13
Frame=0 idx=008548 GeodesicLength=0.0 rxn_smarts="[C:1]([c:2]1[n:3][o:4][c:5]([N:6]([H:11])[H:12])[c:7]1[H:13])([H:8])([H:9])[H:10]>>[C:1]([C:2]([N:3]=[O:4])=[C:7]=[C:5]([N:6]([H:11])[H:12])[H:13])([H:8])([H:9])[H:10]"
C       -2.37122435      -0.00930597      -0.00519063
C       -0.88797431       0.01485520      -0.15489698
N       -0.35170859      -0.13477313      -1.33895638
O        0.97454622      -0.11199042      -1.23828889
C        1.27856331       0.17760430       0.14058085
N        2.56054445      -0.18880658       0.55834509
C        0.07352497       0.15675858       0.92042327
H       -2.85278690      -0.19332029      -0.96467304
H       -2.66264434      -0.78963758       0.69882421
H       -2.72626608       0.94002818       0.39791538
H        3.26595320      -0.03654180      -0.14568974
H        2.59579201      -1.13256412       0.90939578
H        1.10368036       1.30769368       0.22221108
13
Frame=1 idx=008548 GeodesicLength=0.11132137335758926 rxn_smarts="[C:1]([c:2]1[n:3][o:4][c:5]([N:6]([H:11])[H:12])[c:7]1[H:13])([H:8])([H:9])[H:10]>>[C:1]([C:2]([N:3]=[O:4])=[C:7]=[C:5]([N:6]([H:11])[H:12])[H:13])([H:8])([H:9])[H:10]"
C       -2.37161116      -0.00701473      -0.00319923
C       -0.88880824       0.00026669      -0.15809746
N       -0.35923375      -0.14491510      -1.35088449
O        0.96544004      -0.10782285      -1.25883715
C        1.28443209       0.17360685       0.14355430
N        2.56002321      -0.20297948       0.56698043
C        0.07614623       0.15417300       0.90516603
H       -2.85832633      -0.23108126      -0.95157256
H       -2.66647905      -0.75385696       0.73480056
H       -2.71977439       0.96194708       0.35707267
H        3.28049412       0.00886974      -0.10531556
H        2.60196753      -1.16584520       0.86028878
H        1.09572971       1.31465220       0.26004368
13
Frame=2 idx=008548 GeodesicLength=0.2226474199014523 rxn_smarts="[C:1]([c:2]1[n:3][o:4][c:5]([N:6]([H:11])[H:12])[c:7]1[H:13])([H:8])([H:9])[H:10]>>[C:1]([C:2]([N:3]=[O:4])=[C:7]=[C:5]([N:6]([H:11])[H:12])[H:13])([H:8])([H:9])[H:10]"
C       -2.37181814      -0.00437024      -0.00116522
C       -0.88966061      -0.01408330      -0.16152751
N       -0.36731270      -0.15592581      -1.36309743
O        0.95559809      -0.10449692      -1.28017943
C        1.29040016       0.16980792       0.14598480
N        2.55956763      -0.21725082       0.57463777
C        0.07903399       0.15073410       0.88938431
H       -2.86416280      -0.26779902      -0.93650531
H       -2.66940382      -0.71631053       0.76943738
H       -2.71298864       0.98214355       0.31570849
H        3.29349997       0.05227041      -0.06109182
H        2.60990092      -1.19554977       0.80925516
H        1.08734595       1.32083044       0.29915881
13
Frame=3 idx=008548 GeodesicLength=0.3339495002867491 rxn_smarts="[C:1]([c:2]1[n:3][o:4][c:5]([N:6]([H:11])[H:12])[c:7]1[H:13])([H:8])([H:9])[H:10]>>[C:1]([C:2]([N:3]=[O:4])=[C:7]=[C:5]([N:6]([H:11])[H:12])[H:13])([H:8])([H:9])[H:10]"
C       -2.37181429      -0.00150978       0.00096147
C       -0.89051986      -0.02767216      -0.16528872
N       -0.37598078      -0.16749537      -1.37568385
O        0.94499456      -0.10222397      -1.30240063
C        1.29653282       0.16642838       0.14774391
N        2.55911689      -0.23162725       0.58134621
C        0.08223291       0.14714537       0.87292162
H       -2.87024216      -0.30339067      -0.91950376
H       -2.67099412      -0.67758694       0.80254238
H       -2.70630497       1.00025183       0.27431481
H        3.30494371       0.09287905      -0.01312479
H        2.61922977      -1.22156904       0.75681221
H        1.07880551       1.32637056       0.33935914
13
Frame=4 idx=008548 GeodesicLength=0.44522558007855934 rxn_smarts="[C:1]([c:2]1[n:3][o:4][c:5]([N:6]([H:11])[H:12])[c:7]1[H:13])([H:8])([H:9])[H:10]>>[C:1]([C:2]([N:3]=[O:4])=[C:7]=[C:5]([N:6]([H:11])[H:12])[H:13])([H:8])([H:9])[H:10]"
C       -2.37158783       0.00148729       0.00321344
C       -0.89137181      -0.04018752      -0.16945298
N       -0.38526480      -0.17946861      -1.38870549
O        0.93363103      -0.10118179      -1.32559063
C        1.30288945       0.16365631       0.14873358
N        2.55861677      -0.24610644       0.58714598
C        0.08578393       0.14389414       0.85565518
H       -2.87648441      -0.33788931      -0.90060536
H       -2.67102025      -0.63804249       0.83407905
H       -2.70002469       1.01612865       0.23317217
H        3.31483437       0.13024929       0.03855541
H        2.62971543      -1.24390106       0.70321738
H        1.07028280       1.33136156       0.38058228
13
Frame=5 idx=008548 GeodesicLength=0.5564926273863584 rxn_smarts="[C:1]([c:2]1[n:3][o:4][c:5]([N:6]([H:11])[H:12])[c:7]1[H:13])([H:8])([H:9])[H:10]>>[C:1]([C:2]([N:3]=[O:4])=[C:7]=[C:5]([N:6]([H:11])[H:12])[H:13])([H:8])([H:9])[H:10]"
C       -2.37118130       0.00505593       0.00546686
C       -0.89226060      -0.05258506      -0.17389191
N       -0.39517894      -0.19295361      -1.40198704
O        0.92142976      -0.10159538      -1.34972082
C        1.30938318       0.16113994       0.14907967
N        2.55829091      -0.26033392       0.59188101
C        0.08964636       0.13971254       0.83774794
H       -2.88301517      -0.37082472      -0.87991383
H       -2.67012396      -0.59672854       0.86415827
H       -2.69349286       1.03061672       0.19177166
H        3.32290085       0.16559767       0.09393384
H        2.64257233      -1.26214846       0.64782867
H        1.06102944       1.33504688       0.42364568
13
Frame=6 idx=008548 GeodesicLength=0.6677099813405928 rxn_smarts="[C:1]([c:2]1[n:3][o:4][c:5]([N:6]([H:11])[H:12])[c:7]1[H:13])([H:8])([H:9])[H:10]>>[C:1]([C:2]([N:3]=[O:4])=[C:7]=[C:5]([N:6]([H:11])[H:12])[H:13])([H:8])([H:9])[H:10]"
C       -2.37052039       0.00868224       0.00788302
C       -0.89310678      -0.06353140      -0.17885227
N       -0.40577398      -0.20661009      -1.41580534
O        0.90845615      -0.10367743      -1.37497816
C        1.31619944       0.15955404       0.14848042
N        2.55785620      -0.27456295       0.59570515
C        0.09393346       0.13653514       0.81880643
H       -2.88954782      -0.40268173      -0.85740794
H       -2.66735460      -0.55508183       0.89263616
H       -2.68779299       1.04277117       0.15100859
H        3.32928991       0.19695897       0.15290289
H        2.65640061      -1.27649783       0.59180080
H        1.05196080       1.33814169       0.46782024
13
Frame=7 idx=008548 GeodesicLength=0.7788873316330666 rxn_smarts="[C:1]([c:2]1[n:3][o:4][c:5]([N:6]([H:11])[H:12])[c:7]1[H:13])([H:8])([H:9])[H:10]>>[C:1]([C:2]([N:3]=[O:4])=[C:7]=[C:5]([N:6]([H:11])[H:12])[H:13])([H:8])([H:9])[H:10]"
C       -2.36960909       0.01251283       0.01043735
C       -0.89390310      -0.07336578      -0.18431823
N       -0.41708459      -0.22080278      -1.43012481
O        0.89468461      -0.10771434      -1.40140224
C        1.32334457       0.15889895       0.14691389
N        2.55738260      -0.28858847       0.59854455
C        0.09865418       0.13405859       0.79880263
H       -2.89607327      -0.43322322      -0.83317740
H       -2.66292650      -0.51289436       0.91956109
H       -2.68275520       1.05293643       0.11083082
H        3.33384738       0.22458499       0.21539759
H        2.67164119      -1.28671496       0.53506467
H        1.04279722       1.34031213       0.51347011
13
Frame=8 idx=008548 GeodesicLength=0.8899955522051434 rxn_smarts="[C:1]([c:2]1[n:3][o:4][c:5]([N:6]([H:11])[H:12])[c:7]1[H:13])([H:8])([H:9])[H:10]>>[C:1]([C:2]([N:3]=[O:4])=[C:7]=[C:5]([N:6]([H:11])[H:12])[H:13])([H:8])([H:9])[H:10]"
C       -2.36841117       0.01627459       0.01320341
C       -0.89459366      -0.08141040      -0.19044860
N       -0.42913800      -0.23486730      -1.44509207
O        0.88022123      -0.11375689      -1.42911489
C        1.33095633       0.15967111       0.14421496
N        2.55666480      -0.30255174       0.60050637
C        0.10387307       0.13339354       0.77747346
H       -2.90229735      -0.46304273      -0.80712145
H       -2.65642550      -0.47071848       0.94505247
H       -2.67903620       1.06071099       0.07145856
H        3.33662501       0.24737944       0.28139441
H        2.68755459      -1.29300365       0.47806011
H        1.03400685       1.34192149       0.56041326
13
Frame=9 idx=008548 GeodesicLength=1.0011010034202692 rxn_smarts="[C:1]([c:2]1[n:3][o:4][c:5]([N:6]([H:11])[H:12])[c:7]1[H:13])([H:8])([H:9])[H:10]>>[C:1]([C:2]([N:3]=[O:4])=[C:7]=[C:5]([N:6]([H:11])[H:12])[H:13])([H:8])([H:9])[H:10]"
C       -2.36692734       0.02106137       0.01590117
C       -0.89526858      -0.08993752      -0.19685495
N       -0.44194634      -0.25147797      -1.46019043
O        0.86469274      -0.12229359      -1.45792296
C        1.33874123       0.16090802       0.14071052
N        2.55630304      -0.31566879       0.60105289
C        0.10950431       0.13133597       0.75531066
H       -2.90874732      -0.49068723      -0.77937274
H       -2.64914327      -0.42615312       0.96914303
H       -2.67469323       1.06791424       0.03171527
H        3.33656101       0.26813067       0.35104389
H        2.70715838      -1.29388403       0.41893220
H        1.02376537       1.34075200       0.61053145
13
Frame=10 idx=008548 GeodesicLength=1.11210579053784 rxn_smarts="[C:1]([c:2]1[n:3][o:4][c:5]([N:6]([H:11])[H:12])[c:7]1[H:13])([H:8])([H:9])[H:10]>>[C:1]([C:2]([N:3]=[O:4])=[C:7]=[C:5]([N:6]([H:11])[H:12])[H:13])([H:8])([H:9])[H:10]"
C       -2.36507577       0.02569594       0.01883439
C       -0.89574408      -0.09636749      -0.20405763
N       -0.45555491      -0.26758679      -1.47602141
O        0.84852249      -0.13350208      -1.48806673
C        1.34712211       0.16410235       0.13590866
N        2.55560766      -0.32849194       0.60067492
C        0.11570520       0.13193103       0.73150725
H       -2.91457601      -0.51770162      -0.74985323
H       -2.63955222      -0.38200881       0.99177930
H       -2.67204766       1.07264042      -0.00691704
H        3.33433236       0.28302386       0.42372643
H        2.72728254      -1.29043059       0.36030632
H        1.01397830       1.33869572       0.66217877
13
Frame=11 idx=008548 GeodesicLength=1.2230412086703082 rxn_smarts="[C:1]([c:2]1[n:3][o:4][c:5]([N:6]([H:11])[H:12])[c:7]1[H:13])([H:8])([H:9])[H:10]>>[C:1]([C:2]([N:3]=[O:4])=[C:7]=[C:5]([N:6]([H:11])[H:12])[H:13])([H:8])([H:9])[H:10]"
C       -2.36281495       0.03046443       0.02194740
C       -0.89598663      -0.10131320      -0.21198510
N       -0.46996984      -0.28396523      -1.49243298
O        0.83161583      -0.14772589      -1.51947055
C        1.35607865       0.16924503       0.12983604
N        2.55468963      -0.34070812       0.59917900
C        0.12248134       0.13462887       0.70605794
H       -2.91979824      -0.54368058      -0.71863010
H       -2.62798117      -0.33770611       1.01299905
H       -2.67062724       1.07542788      -0.04466374
H        3.32946939       0.29251975       0.49933268
H        2.74873511      -1.28212686       0.30183470
H        1.00410813       1.33494002       0.71599566
13
Frame=12 idx=008548 GeodesicLength=1.3338828156853197 rxn_smarts="[C:1]([c:2]1[n:3][o:4][c:5]([N:6]([H:11])[H:12])[c:7]1[H:13])([H:8])([H:9])[H:10]>>[C:1]([C:2]([N:3]=[O:4])=[C:7]=[C:5]([N:6]([H:11])[H:12])[H:13])([H:8])([H:9])[H:10]"
C       -2.36008662       0.03509151       0.02528835
C       -0.89589371      -0.10410233      -0.22079442
N       -0.48512782      -0.30002198      -1.50949961
O        0.81411880      -0.16479524      -1.55210992
C        1.36578413       0.17695097       0.12242236
N        2.55325116      -0.35249518       0.59667843
C        0.12987902       0.14075500       0.67865002
H       -2.92390220      -0.56955067      -0.68536326
H       -2.61412067      -0.29340424       1.03298617
H       -2.67114852       1.07577780      -0.08171034
H        3.32185570       0.29534425       0.57764862
H        2.77081212      -1.26918810       0.24385635
H        0.99457858       1.32963820       0.77194726
13
Frame=13 idx=008548 GeodesicLength=1.4446811282707765 rxn_smarts="[C:1]([c:2]1[n:3][o:4][c:5]([N:6]([H:11])[H:12])[c:7]1[H:13])([H:8])([H:9])[H:10]>>[C:1]([C:2]([N:3]=[O:4])=[C:7]=[C:5]([N:6]([H:11])[H:12])[H:13])([H:8])([H:9])[H:10]"
C       -2.35682828       0.04093482       0.02854583
C       -0.89561150      -0.10731807      -0.22990748
N       -0.50108240      -0.31899978      -1.52643420
O        0.79555663      -0.18552024      -1.58559440
C        1.37582282       0.18614898       0.11408219
N        2.55214347      -0.36283731       0.59237494
C        0.13777489       0.14671298       0.64992910
H       -2.92772721      -0.59307532      -0.65031550
H       -2.59918561      -0.24647975       1.05150176
H       -2.67113314       1.07573846      -0.11909238
H        3.30990655       0.29427102       0.65851880
H        2.79719939      -1.24898042       0.18422954
H        0.98316439       1.31940462       0.83216178
13
Frame=14 idx=008548 GeodesicLength=1.5553494173477096 rxn_smarts="[C:1]([c:2]1[n:3][o:4][c:5]([N:6]([H:11])[H:12])[c:7]1[H:13])([H:8])([H:9])[H:10]>>[C:1]([C:2]([N:3]=[O:4])=[C:7]=[C:5]([N:6]([H:11])[H:12])[H:13])([H:8])([H:9])[H:10]"
C       -2.35293592       0.04653393       0.03204200
C       -0.89480439      -0.10812409      -0.23996375
N       -0.51766278      -0.33733955      -1.54392324
O        0.77656653      -0.20979409      -1.61991928
C        1.38678088       0.19868021       0.10443000
N        2.55032923      -0.37241084       0.58705837
C        0.14631111       0.15766036       0.61879840
H       -2.92986806      -0.61647835      -0.61334003
H       -2.58182369      -0.19998125       1.06862478
H       -2.67332737       1.07306533      -0.15537383
H        3.29456027       0.28525522       0.74055740
H        2.82389427      -1.22369190       0.12643836
H        0.97197992       1.30662504       0.89457082
13
Frame=15 idx=008548 GeodesicLength=1.6658852651225369 rxn_smarts="[C:1]([c:2]1[n:3][o:4][c:5]([N:6]([H:11])[H:12])[c:7]1[H:13])([H:8])([H:9])[H:10]>>[C:1]([C:2]([N:3]=[O:4])=[C:7]=[C:5]([N:6]([H:11])[H:12])[H:13])([H:8])([H:9])[H:10]"
C       -2.34825505       0.05197667       0.03581656
C       -0.89333640      -0.10664226      -0.25094585
N       -0.53477067      -0.35527330      -1.56182033
O        0.75715874      -0.23792262      -1.65479960
C        1.39874260       0.21479034       0.09346359
N        2.54762589      -0.38112614       0.58062635
C        0.15550783       0.17424456       0.58491241
H       -2.92998970      -0.63971856      -0.57432926
H       -2.56202303      -0.15362203       1.08440747
H       -2.67759697       1.06783329      -0.19054067
H        3.27503355       0.26803627       0.82354359
H        2.85123972      -1.19298880       0.07051541
H        0.96066349       1.29041259       0.95915033
13
Frame=16 idx=008548 GeodesicLength=1.7762621130565315 rxn_smarts="[C:1]([c:2]1[n:3][o:4][c:5]([N:6]([H:11])[H:12])[c:7]1[H:13])([H:8])([H:9])[H:10]>>[C:1]([C:2]([N:3]=[O:4])=[C:7]=[C:5]([N:6]([H:11])[H:12])[H:13])([H:8])([H:9])[H:10]"
C       -2.34256446       0.05694391       0.04002420
C       -0.89096861      -0.10214865      -0.26306013
N       -0.55222099      -0.37163400      -1.58031415
O        0.73756328      -0.27010817      -1.68988675
C        1.41196549       0.23496678       0.08116853
N        2.54350579      -0.38919016       0.57342581
C        0.16540858       0.19848885       0.54752607
H       -2.92723883      -0.66347153      -0.53308057
H       -2.53937873      -0.10794162       1.09898703
H       -2.68455895       1.05944586      -0.22416203
H        3.25078077       0.24167821       0.90642047
H        2.87845194      -1.15760208       0.01779097
H        0.94925474       1.27057261       1.02516055
