16
Frame=0 idx=003241 GeodesicLength=0.0 rxn_smarts="[C:1]([C@@:2]1([H:10])[C:3]([H:11])([H:12])[C:4]([H:13])([H:14])[O:5][C:6]1([H:15])[H:16])([H:7])([H:8])[H:9]>>[C:1]([C@@:2]1([H:10])[C:3]([H:11])([H:12])[C-:4]([H:13])[O+:5]=[C:6]1[H:16])([H:7])([H:8])[H:9].[H:14][H:15]"
C        1.91333876      -0.08645800      -0.06818048
C        0.50785114       0.47484830       0.14883100
C       -0.43538427       0.21004386      -1.06375434
C       -1.47367095      -0.70927159      -0.47045815
O       -1.07638656      -1.10408672       0.72066312
C       -0.22775349      -0.24623634       1.25622641
H        2.38585819       0.39164214      -0.93053745
H        2.54860205       0.08214645       0.80374240
H        1.87522488      -1.16195549      -0.25716970
H        0.58229720       1.54335852       0.35544834
H       -0.87127483       1.12471396      -1.46442999
H        0.10767397      -0.27276296      -1.88511218
H       -2.11178911      -1.40304509      -0.99671107
H       -2.19812518       0.76583781       0.50951871
H       -1.71450290       0.94527037       1.13703544
H        0.18804111      -0.55404528       2.20488787
16
Frame=1 idx=003241 GeodesicLength=0.08532572342104204 rxn_smarts="[C:1]([C@@:2]1([H:10])[C:3]([H:11])([H:12])[C:4]([H:13])([H:14])[O:5][C:6]1([H:15])[H:16])([H:7])([H:8])[H:9]>>[C:1]([C@@:2]1([H:10])[C:3]([H:11])([H:12])[C-:4]([H:13])[O+:5]=[C:6]1[H:16])([H:7])([H:8])[H:9].[H:14][H:15]"
C        1.91542264      -0.08391200      -0.06519951
C        0.50828311       0.47453249       0.14546583
C       -0.43224091       0.20616750      -1.06645524
C       -1.48207853      -0.69789125      -0.47019515
O       -1.07421141      -1.10599657       0.71646636
C       -0.23136334      -0.23863800       1.25604747
H        2.39005017       0.39106858      -0.92805469
H        2.54782018       0.09090067       0.80756258
H        1.87952303      -1.16039532      -0.24911895
H        0.58021686       1.54444059       0.34668517
H       -0.86240931       1.12185899      -1.47219367
H        0.10717180      -0.28555383      -1.88445085
H       -2.12416768      -1.38778449      -0.99703533
H       -2.20641013       0.75723906       0.50933324
H       -1.71176580       0.93542090       1.15615287
H        0.19615930      -0.56145732       2.19498986
16
Frame=2 idx=003241 GeodesicLength=0.17004798342843086 rxn_smarts="[C:1]([C@@:2]1([H:10])[C:3]([H:11])([H:12])[C:4]([H:13])([H:14])[O:5][C:6]1([H:15])[H:16])([H:7])([H:8])[H:9]>>[C:1]([C@@:2]1([H:10])[C:3]([H:11])([H:12])[C-:4]([H:13])[O+:5]=[C:6]1[H:16])([H:7])([H:8])[H:9].[H:14][H:15]"
C        1.91751807      -0.08131281      -0.06226723
C        0.50870891       0.47411842       0.14213721
C       -0.42910884       0.20217403      -1.06911208
C       -1.49035799      -0.68643867      -0.46992956
O       -1.07234278      -1.10771040       0.71225914
C       -0.23483743      -0.23132677       1.25582980
H        2.39420212       0.39066255      -0.92557068
H        2.54703871       0.09968492       0.81129311
H        1.88392456      -1.15874098      -0.24120446
H        0.57807995       1.54538306       0.33801220
H       -0.85345689       1.11882036      -1.48001703
H        0.10659875      -0.29847342      -1.88365077
H       -2.13635359      -1.37246549      -0.99736375
H       -2.21493785       0.74874354       0.50890757
H       -1.70861615       0.92558326       1.17571058
H        0.20394045      -0.56870158       2.18496597
16
Frame=3 idx=003241 GeodesicLength=0.2543894966574855 rxn_smarts="[C:1]([C@@:2]1([H:10])[C:3]([H:11])([H:12])[C:4]([H:13])([H:14])[O:5][C:6]1([H:15])[H:16])([H:7])([H:8])[H:9]>>[C:1]([C@@:2]1([H:10])[C:3]([H:11])([H:12])[C-:4]([H:13])[O+:5]=[C:6]1[H:16])([H:7])([H:8])[H:9].[H:14][H:15]"
C        1.91962234      -0.07866126      -0.05938344
C        0.50912825       0.47361212       0.13884372
C       -0.42598951       0.19806595      -1.07172265
C       -1.49850242      -0.67491681      -0.46966589
O       -1.07079613      -1.10922095       0.70805908
C       -0.23817633      -0.22428674       1.25557884
H        2.39831316       0.39041985      -0.92308762
H        2.54625522       0.10849805       0.81493446
H        1.88842337      -1.15699418      -0.23342358
H        0.57588783       1.54619319       0.32942350
H       -0.84442270       1.11559641      -1.48789558
H        0.10595397      -0.31151475      -1.88271024
H       -2.14833317      -1.35709475      -0.99770520
H       -2.22375765       0.74034393       0.50817026
H       -1.70501679       0.91576970       1.19575979
H        0.21141057      -0.57580976       2.17482456
16
Frame=4 idx=003241 GeodesicLength=0.33857487017498616 rxn_smarts="[C:1]([C@@:2]1([H:10])[C:3]([H:11])([H:12])[C:4]([H:13])([H:14])[O:5][C:6]1([H:15])[H:16])([H:7])([H:8])[H:9]>>[C:1]([C@@:2]1([H:10])[C:3]([H:11])([H:12])[C-:4]([H:13])[O+:5]=[C:6]1[H:16])([H:7])([H:8])[H:9].[H:14][H:15]"
C        1.92173236      -0.07595833      -0.05654802
C        0.50954066       0.47301989       0.13558401
C       -0.42288416       0.19384704      -1.07428505
C       -1.50650669      -0.66332892      -0.46940894
O       -1.06958821      -1.11051996       0.70388596
C       -0.24138095      -0.21750130       1.25530029
H        2.40238242       0.39033592      -0.92060760
H        2.54546692       0.11733818       0.81848703
H        1.89301261      -1.15515693      -0.22577379
H        0.57364210       1.54687869       0.32091330
H       -0.83531103       1.11218699      -1.49582571
H        0.10523642      -0.32467031      -1.88162771
H       -2.16008973      -1.34168393      -0.99807058
H       -2.23292669       0.73203176       0.50704238
H       -1.70091998       0.90599332       1.21636346
H        0.21859394      -0.58281212       2.16457098
16
Frame=5 idx=003241 GeodesicLength=0.4228401606794648 rxn_smarts="[C:1]([C@@:2]1([H:10])[C:3]([H:11])([H:12])[C:4]([H:13])([H:14])[O:5][C:6]1([H:15])[H:16])([H:7])([H:8])[H:9]>>[C:1]([C@@:2]1([H:10])[C:3]([H:11])([H:12])[C-:4]([H:13])[O+:5]=[C:6]1[H:16])([H:7])([H:8])[H:9].[H:14][H:15]"
C        1.92384528      -0.07320520      -0.05376207
C        0.50994566       0.47234685       0.13235823
C       -0.41979497       0.18952103      -1.07679524
C       -1.51436469      -0.65167790      -0.46916251
O       -1.06874188      -1.11159328       0.69976208
C       -0.24444925      -0.21095789       1.25500064
H        2.40640789       0.39040781      -0.91813337
H        2.54467308       0.12620228       0.82194952
H        1.89768640      -1.15323092      -0.21825560
H        0.57134440       1.54744551       0.31247865
H       -0.82612659       1.10859247      -1.50380060
H        0.10444318      -0.33793109      -1.88039999
H       -2.17160226      -1.32624967      -0.99846947
H       -2.24250940       0.72379861       0.50542255
H       -1.69627068       0.89626950       1.23759802
H        0.22551385      -0.58973811       2.15420917
16
Frame=6 idx=003241 GeodesicLength=0.5073353999198483 rxn_smarts="[C:1]([C@@:2]1([H:10])[C:3]([H:11])([H:12])[C:4]([H:13])([H:14])[O:5][C:6]1([H:15])[H:16])([H:7])([H:8])[H:9]>>[C:1]([C@@:2]1([H:10])[C:3]([H:11])([H:12])[C-:4]([H:13])[O+:5]=[C:6]1[H:16])([H:7])([H:8])[H:9].[H:14][H:15]"
C        1.92595799      -0.07040200      -0.05102536
C        0.51034203       0.47159846       0.12916585
C       -0.41672328       0.18509015      -1.07925103
C       -1.52207265      -0.63996819      -0.46893220
O       -1.06827813      -1.11242907       0.69571029
C       -0.24738109      -0.20464256       1.25468545
H        2.41038775       0.39063318      -0.91566678
H        2.54387074       0.13508993       0.82532178
H        1.90243972      -1.15121705      -0.21086754
H        0.56899437       1.54790018       0.30411487
H       -0.81687334       1.10481170      -1.51181695
H        0.10357438      -0.35129191      -1.87902515
H       -2.18285345      -1.31080577      -0.99891455
H       -2.25257026       0.71564108       0.50321504
H       -1.69100666       0.88660923       1.25954704
H        0.23219188      -0.59661738       2.14373925
16
Frame=7 idx=003241 GeodesicLength=0.5921759585784957 rxn_smarts="[C:1]([C@@:2]1([H:10])[C:3]([H:11])([H:12])[C:4]([H:13])([H:14])[O:5][C:6]1([H:15])[H:16])([H:7])([H:8])[H:9]>>[C:1]([C@@:2]1([H:10])[C:3]([H:11])([H:12])[C-:4]([H:13])[O+:5]=[C:6]1[H:16])([H:7])([H:8])[H:9].[H:14][H:15]"
C        1.92806738      -0.06754846      -0.04833905
C        0.51072808       0.47077901       0.12600726
C       -0.41367161       0.18055675      -1.08164790
C       -1.52962867      -0.62820280      -0.46872354
O       -1.06822205      -1.11301209       0.69175613
C       -0.25017403      -0.19854502       1.25436018
H        2.41431916       0.39101170      -0.91321036
H        2.54305914       0.14400008       0.82860287
H        1.90726831      -1.14911545      -0.20361043
H        0.56659144       1.54824744       0.29581987
H       -0.80755518       1.10084363      -1.51986812
H        0.10262735      -0.36474665      -1.87749910
H       -2.19382098      -1.29537451      -0.99941815
H       -2.26317538       0.70756337       0.50030595
H       -1.68506090       0.87702245       1.28230499
H        0.23864793      -0.60347944       2.13315940
16
Frame=8 idx=003241 GeodesicLength=0.6774740775349808 rxn_smarts="[C:1]([C@@:2]1([H:10])[C:3]([H:11])([H:12])[C:4]([H:13])([H:14])[O:5][C:6]1([H:15])[H:16])([H:7])([H:8])[H:9]>>[C:1]([C@@:2]1([H:10])[C:3]([H:11])([H:12])[C-:4]([H:13])[O+:5]=[C:6]1[H:16])([H:7])([H:8])[H:9].[H:14][H:15]"
C        1.93017074      -0.06464356      -0.04570367
C        0.51110256       0.46989323       0.12288316
C       -0.41064098       0.17592232      -1.08398256
C       -1.53703040      -0.61638473      -0.46854103
O       -1.06860334      -1.11332387       0.68792739
C       -0.25282461      -0.19265439       1.25403205
H        2.41819936       0.39154361      -0.91076620
H        2.54223664       0.15293358       0.83179141
H        1.91216941      -1.14692562      -0.19648495
H        0.56413384       1.54849315       0.28759129
H       -0.79817497       1.09668614      -1.52795132
H        0.10160187      -0.37829295      -1.87581759
H       -2.20448607      -1.27997184      -0.99999335
H       -2.27440507       0.69956293       0.49656772
H       -1.67835172       0.86751829       1.30598287
H        0.24490273      -0.61035629       2.12246478
16
Frame=9 idx=003241 GeodesicLength=0.7632392223821606 rxn_smarts="[C:1]([C@@:2]1([H:10])[C:3]([H:11])([H:12])[C:4]([H:13])([H:14])[O:5][C:6]1([H:15])[H:16])([H:7])([H:8])[H:9]>>[C:1]([C@@:2]1([H:10])[C:3]([H:11])([H:12])[C-:4]([H:13])[O+:5]=[C:6]1[H:16])([H:7])([H:8])[H:9].[H:14][H:15]"
C        1.93226449      -0.06168490      -0.04311985
C        0.51146188       0.46894457       0.11979337
C       -0.40763361       0.17118670      -1.08625138
C       -1.54428046      -0.60451707      -0.46839444
O       -1.06945232      -1.11334766       0.68425178
C       -0.25533068      -0.18696331       1.25370524
H        2.42202440       0.39223184      -0.90833605
H        2.54140148       0.16189346       0.83488631
H        1.91714121      -1.14464539      -0.18949161
H        0.56161683       1.54864103       0.27942733
H       -0.78873339       1.09233573      -1.53606331
H        0.10049690      -0.39193040      -1.87397534
H       -2.21482664      -1.26462579      -1.00065772
H       -2.28633064       0.69165880       0.49187353
H       -1.67079008       0.85809842       1.33070424
H        0.25097063      -0.61727603       2.11164789
16
Frame=10 idx=003241 GeodesicLength=0.8494657584063978 rxn_smarts="[C:1]([C@@:2]1([H:10])[C:3]([H:11])([H:12])[C:4]([H:13])([H:14])[O:5][C:6]1([H:15])[H:16])([H:7])([H:8])[H:9]>>[C:1]([C@@:2]1([H:10])[C:3]([H:11])([H:12])[C-:4]([H:13])[O+:5]=[C:6]1[H:16])([H:7])([H:8])[H:9].[H:14][H:15]"
C        1.93434609      -0.05867039      -0.04058977
C        0.51180434       0.46793706       0.11674053
C       -0.40465192       0.16635030      -1.08844786
C       -1.55137691      -0.59260031      -0.46828635
O       -1.07081056      -1.11305241       0.68076363
C       -0.25768518      -0.18146433       1.25338806
H        2.42579005       0.39308034      -0.90592339
H        2.54055449       0.17088018       0.83788444
H        1.92218296      -1.14227303      -0.18263472
H        0.55903809       1.54869586       0.27132847
H       -0.77923254       1.08778930      -1.54419840
H        0.09930889      -0.40565735      -1.87196411
H       -2.22481744      -1.24936017      -1.00142218
H       -2.29903876       0.68385889       0.48606237
H       -1.66228402       0.84876080       1.35659949
H        0.25687242      -0.62427474       2.10069980
16
Frame=11 idx=003241 GeodesicLength=0.9361889158380399 rxn_smarts="[C:1]([C@@:2]1([H:10])[C:3]([H:11])([H:12])[C:4]([H:13])([H:14])[O:5][C:6]1([H:15])[H:16])([H:7])([H:8])[H:9]>>[C:1]([C@@:2]1([H:10])[C:3]([H:11])([H:12])[C-:4]([H:13])[O+:5]=[C:6]1[H:16])([H:7])([H:8])[H:9].[H:14][H:15]"
C        1.93641242      -0.05559295      -0.03811387
C        0.51212582       0.46687466       0.11372643
C       -0.40169657       0.16140964      -1.09056764
C       -1.55832882      -0.58063169      -0.46822167
O       -1.07272507      -1.11240342       0.67750381
C       -0.25988126      -0.17615212       1.25308774
H        2.42949086       0.39409896      -0.90352970
H        2.53969245       0.17990310       0.84078437
H        1.92729840      -1.13980164      -0.17591639
H        0.55638783       1.54866240       0.26329474
H       -0.76966548       1.08303855      -1.55236284
H        0.09803773      -0.41948615      -1.86977214
H       -2.23443828      -1.23419918      -1.00230212
H       -2.31263539       0.67618900       0.47894899
H       -1.65270252       0.83949071       1.38383933
H        0.26262788      -0.63139986       2.08960097
16
Frame=12 idx=003241 GeodesicLength=1.0231283747683837 rxn_smarts="[C:1]([C@@:2]1([H:10])[C:3]([H:11])([H:12])[C:4]([H:13])([H:14])[O:5][C:6]1([H:15])[H:16])([H:7])([H:8])[H:9]>>[C:1]([C@@:2]1([H:10])[C:3]([H:11])([H:12])[C-:4]([H:13])[O+:5]=[C:6]1[H:16])([H:7])([H:8])[H:9].[H:14][H:15]"
C        1.93846160      -0.05244790      -0.03569455
C        0.51242363       0.46576044       0.11075332
C       -0.39876999       0.15636126      -1.09260331
C       -1.56513899      -0.56860751      -0.46820470
O       -1.07523510      -1.11137390       0.67450518
C       -0.26191078      -0.17102229       1.25281208
H        2.43312145       0.39529518      -0.90115891
H        2.53881793       0.18896707       0.84358274
H        1.93249015      -1.13722654      -0.16934014
H        0.55366038       1.54854387       0.25532702
H       -0.76003059       1.07807588      -1.56055227
H        0.09667903      -0.43342213      -1.86738766
H       -2.24366920      -1.21916398      -1.00330897
H       -2.32718921       0.66867809       0.47038232
H       -1.64196171       0.83026598       1.41254902
H        0.26825141      -0.63868353       2.07833882
16
Frame=13 idx=003241 GeodesicLength=1.110175453181919 rxn_smarts="[C:1]([C@@:2]1([H:10])[C:3]([H:11])([H:12])[C:4]([H:13])([H:14])[O:5][C:6]1([H:15])[H:16])([H:7])([H:8])[H:9]>>[C:1]([C@@:2]1([H:10])[C:3]([H:11])([H:12])[C-:4]([H:13])[O+:5]=[C:6]1[H:16])([H:7])([H:8])[H:9].[H:14][H:15]"
C        1.94049016      -0.04922481      -0.03333224
C        0.51269187       0.46459823       0.10782342
C       -0.39587323       0.15119830      -1.09454968
C       -1.57182089      -0.55652008      -0.46824236
O       -1.07839428      -1.10992581       0.67181151
C       -0.26376622      -0.16607137       1.25256802
H        2.43667485       0.39668349      -0.89881280
H        2.53792733       0.19808601       0.84627794
H        1.93776512      -1.13453749      -0.16290789
H        0.55084198       1.54834471       0.24742559
H       -0.75031713       1.07288745      -1.56877611
H        0.09523251      -0.44748672      -1.86479383
H       -2.25249078      -1.20427985      -1.00446038
H       -2.34280420       0.66137123       0.46016433
H       -1.62991505       0.82105050       1.44291699
H        0.27375798      -0.64617379       2.06688749
16
Frame=14 idx=003241 GeodesicLength=1.1970846621974982 rxn_smarts="[C:1]([C@@:2]1([H:10])[C:3]([H:11])([H:12])[C:4]([H:13])([H:14])[O:5][C:6]1([H:15])[H:16])([H:7])([H:8])[H:9]>>[C:1]([C@@:2]1([H:10])[C:3]([H:11])([H:12])[C-:4]([H:13])[O+:5]=[C:6]1[H:16])([H:7])([H:8])[H:9].[H:14][H:15]"
C        1.94249606      -0.04591410      -0.03102935
C        0.51292636       0.46339148       0.10494050
C       -0.39300796       0.14591362      -1.09639802
C       -1.57838332      -0.54435849      -0.46833714
O       -1.08226116      -1.10801242       0.66946706
C       -0.26543567      -0.16129749       1.25236562
H        2.44014360       0.39827887      -0.89649528
H        2.53702215       0.20727147       0.84886590
H        1.94313102      -1.13172466      -0.15662507
H        0.54792157       1.54806870       0.23959299
H       -0.74051623       1.06745885      -1.57703726
H        0.09369262      -0.46169780      -1.86197012
H       -2.26088144      -1.18957002      -1.00576595
H       -2.35957333       0.65431096       0.44809159
H       -1.61643769       0.81179920       1.47511171
H        0.27916343      -0.65391818       2.05522281
16
Frame=15 idx=003241 GeodesicLength=1.2836066488633886 rxn_smarts="[C:1]([C@@:2]1([H:10])[C:3]([H:11])([H:12])[C:4]([H:13])([H:14])[O:5][C:6]1([H:15])[H:16])([H:7])([H:8])[H:9]>>[C:1]([C@@:2]1([H:10])[C:3]([H:11])([H:12])[C-:4]([H:13])[O+:5]=[C:6]1[H:16])([H:7])([H:8])[H:9].[H:14][H:15]"
C        1.94447630      -0.04250141      -0.02878641
C        0.51312061       0.46214443       0.10210767
C       -0.39017506       0.14049521      -1.09814105
C       -1.58484273      -0.53210752      -0.46849325
O       -1.08689497      -1.10558728       0.66751829
C       -0.26690922      -0.15669730       1.25221430
H        2.44351897       0.40010086      -0.89420886
H        2.53609943       0.21654285       0.85134472
H        1.94859867      -1.12877348      -0.15049325
H        0.54488186       1.54772052       0.23182918
H       -0.73061185       1.06176884      -1.58534907
H        0.09205629      -0.47608712      -1.85889074
H       -2.26882688      -1.17505218      -1.00723973
H       -2.37759143       0.64755943       0.43395786
H       -1.60138022       0.80244292       1.50931876
H        0.28448023      -0.66196875       2.04331159
16
Frame=16 idx=003241 GeodesicLength=1.3694462118024098 rxn_smarts="[C:1]([C@@:2]1([H:10])[C:3]([H:11])([H:12])[C:4]([H:13])([H:14])[O:5][C:6]1([H:15])[H:16])([H:7])([H:8])[H:9]>>[C:1]([C@@:2]1([H:10])[C:3]([H:11])([H:12])[C-:4]([H:13])[O+:5]=[C:6]1[H:16])([H:7])([H:8])[H:9].[H:14][H:15]"
C        1.94642850      -0.03897178      -0.02660489
C        0.51326861       0.46086129       0.09932876
C       -0.38737587       0.13493043      -1.09976930
C       -1.59121595      -0.51974614      -0.46871344
O       -1.09235709      -1.10259901       0.66601278
C       -0.26817505      -0.15226852       1.25212464
H        2.44679155       0.40217023      -0.89195732
H        2.53515857       0.22591985       0.85371132
H        1.95417986      -1.12566856      -0.14451530
H        0.54170605       1.54730466       0.22413534
H       -0.72058631       1.05579364      -1.59372331
H        0.09031716      -0.49068811      -1.85552588
H       -2.27631120      -1.16074248      -1.00889100
H       -2.39694737       0.64118072       0.41755632
H       -1.58460015       0.79289978       1.54571155
H        0.28971870      -0.67037602       2.03111975
