14
Frame=0 idx=001724 GeodesicLength=0.0 rxn_smarts="[O:1]([C@@:2]1([H:8])[C:3]([H:9])([H:10])[C:4]([H:11])([H:12])[O:5][C:6]1([H:13])[H:14])[H:7]>>[O:1]([C:2]([C:3](=[C:4]([H:11])[H:12])[H:10])([H:8])[H:9])[H:7].[O:5]=[C:6]([H:13])[H:14]"
O        0.56178770      -1.32522568      -0.99289869
C        0.26290394      -0.02291998      -1.05188543
C       -0.97579083       0.42936476      -0.32642871
C       -1.54176111      -0.32431767       0.68588766
O        1.12134507      -0.31543138       1.53095815
C        1.61091806       0.50827558       0.77261469
H        0.61492123      -1.55108542      -0.04122108
H        0.53413939       0.45407395      -1.98902848
H       -1.29433258       0.06617441      -1.38066773
H       -1.10722892       1.50751202      -0.31313607
H       -1.43952588      -1.39917556       0.72002161
H       -2.16657927       0.14362933       1.43072480
H        1.39736963       1.58463238       0.88027294
H        2.42183361       0.24449326       0.07478629
14
Frame=1 idx=001724 GeodesicLength=0.07831753152873322 rxn_smarts="[O:1]([C@@:2]1([H:8])[C:3]([H:9])([H:10])[C:4]([H:11])([H:12])[O:5][C:6]1([H:13])[H:14])[H:7]>>[O:1]([C:2]([C:3](=[C:4]([H:11])[H:12])[H:10])([H:8])[H:9])[H:7].[O:5]=[C:6]([H:13])[H:14]"
O        0.56584803      -1.31954391      -1.00498090
C        0.25530559      -0.01555919      -1.05182888
C       -0.99117358       0.42671910      -0.33358573
C       -1.52354647      -0.31894009       0.70569810
O        1.09645139      -0.30854584       1.53248553
C        1.61002620       0.50363295       0.76958269
H        0.62437317      -1.55439454      -0.05686881
H        0.54027421       0.48267661      -1.97381773
H       -1.29135270       0.03874137      -1.39946689
H       -1.14284430       1.50241525      -0.33529906
H       -1.44084375      -1.39596781       0.73400636
H       -2.15935214       0.15189185       1.44023195
H        1.42796678       1.58487343       0.88482241
H        2.42886758       0.22200082       0.08902096
14
Frame=2 idx=001724 GeodesicLength=0.15651917566258255 rxn_smarts="[O:1]([C@@:2]1([H:8])[C:3]([H:9])([H:10])[C:4]([H:11])([H:12])[O:5][C:6]1([H:13])[H:14])[H:7]>>[O:1]([C:2]([C:3](=[C:4]([H:11])[H:12])[H:10])([H:8])[H:9])[H:7].[O:5]=[C:6]([H:13])[H:14]"
O        0.57007108      -1.31372729      -1.01683862
C        0.24753011      -0.00830475      -1.05171341
C       -1.00694100       0.42332451      -0.34084342
C       -1.50583518      -0.31319269       0.72446857
O        1.07243408      -0.30135749       1.53351973
C        1.60924029       0.49918288       0.76624965
H        0.63375000      -1.55734156      -0.07233768
H        0.54554897       0.51095620      -1.95795291
H       -1.28739995       0.01209283      -1.41885020
H       -1.17894204       1.49596960      -0.35709637
H       -1.44232102      -1.39198864       0.74861435
H       -2.15180987       0.16024609       1.44934250
H        1.45923892       1.58426508       0.89028470
H        2.43543562       0.19987524       0.10315310
14
Frame=3 idx=001724 GeodesicLength=0.23458689320407708 rxn_smarts="[O:1]([C@@:2]1([H:8])[C:3]([H:9])([H:10])[C:4]([H:11])([H:12])[O:5][C:6]1([H:13])[H:14])[H:7]>>[O:1]([C:2]([C:3](=[C:4]([H:11])[H:12])[H:10])([H:8])[H:9])[H:7].[O:5]=[C:6]([H:13])[H:14]"
O        0.57447269      -1.30774567      -1.02852375
C        0.23956066      -0.00114948      -1.05154834
C       -1.02310169       0.41913168      -0.34823024
C       -1.48867026      -0.30708436       0.74220866
O        1.04922726      -0.29389008       1.53409252
C        1.60852501       0.49492365       0.76264320
H        0.64305774      -1.55993687      -0.08768597
H        0.54997689       0.53899263      -1.94139022
H       -1.28248993      -0.01378417      -1.43889024
H       -1.21555602       1.48812016      -0.37863424
H       -1.44387462      -1.38726951       0.76389663
H       -2.14380340       0.16885664       1.45817219
H        1.49115704       1.58272936       0.89665561
H        2.44151865       0.17810601       0.11723419
14
Frame=4 idx=001724 GeodesicLength=0.312598626096655 rxn_smarts="[O:1]([C@@:2]1([H:8])[C:3]([H:9])([H:10])[C:4]([H:11])([H:12])[O:5][C:6]1([H:13])[H:14])[H:7]>>[O:1]([C:2]([C:3](=[C:4]([H:11])[H:12])[H:10])([H:8])[H:9])[H:7].[O:5]=[C:6]([H:13])[H:14]"
O        0.57908170      -1.30158945      -1.04007961
C        0.23139724       0.00592116      -1.05135213
C       -1.03964360       0.41411805      -0.35573941
C       -1.47205036      -0.30063054       0.75898345
O        1.02677588      -0.28612669       1.53425458
C        1.60787623       0.49088057       0.75876654
H        0.65232532      -1.56220300      -0.10294617
H        0.55349653       0.56680715      -1.92418507
H       -1.27661840      -0.03888398      -1.45963024
H       -1.25268189       1.47885819      -0.39993725
H       -1.44547711      -1.38187199       0.77985950
H       -2.13535571       0.17783096       1.46676070
H        1.52374220       1.58023572       0.90395836
H        2.44713196       0.15665386       0.13128674
14
Frame=5 idx=001724 GeodesicLength=0.3905360503032406 rxn_smarts="[O:1]([C@@:2]1([H:8])[C:3]([H:9])([H:10])[C:4]([H:11])([H:12])[O:5][C:6]1([H:13])[H:14])[H:7]>>[O:1]([C:2]([C:3](=[C:4]([H:11])[H:12])[H:10])([H:8])[H:9])[H:7].[O:5]=[C:6]([H:13])[H:14]"
O        0.58391021      -1.29523229      -1.05153261
C        0.22302703       0.01291024      -1.05112602
C       -1.05655220       0.40824273      -0.36336031
C       -1.45596721      -0.29383844       0.77484090
O        1.00504304      -0.27805514       1.53402619
C        1.60729071       0.48707214       0.75462079
H        0.66157359      -1.56413829      -0.11815061
H        0.55606448       0.59442586      -1.90633059
H       -1.26978655      -0.06319494      -1.48109098
H       -1.29029568       1.46813698      -0.42102677
H       -1.44709476      -1.37582342       0.79651182
H       -2.12647979       0.18727210       1.47510473
H        1.55699963       1.57671306       0.91218937
H        2.45226751       0.13550941       0.14532408
14
Frame=6 idx=001724 GeodesicLength=0.4684041545989846 rxn_smarts="[O:1]([C@@:2]1([H:8])[C:3]([H:9])([H:10])[C:4]([H:11])([H:12])[O:5][C:6]1([H:13])[H:14])[H:7]>>[O:1]([C:2]([C:3](=[C:4]([H:11])[H:12])[H:10])([H:8])[H:9])[H:7].[O:5]=[C:6]([H:13])[H:14]"
O        0.58897295      -1.28865246      -1.06291011
C        0.21444053       0.01982185      -1.05087429
C       -1.07380901       0.40146932      -0.37107637
C       -1.44040423      -0.28670995       0.78983732
O        0.98399916      -0.26966324       1.53342916
C        1.60677234       0.48351944       0.75020552
H        0.67082744      -1.56574531      -0.13332916
H        0.55762836       0.62186760      -1.88783604
H       -1.26198975      -0.08669683      -1.50328670
H       -1.32837673       1.45591626      -0.44191652
H       -1.44869824      -1.36914549       0.81386903
H       -2.11721735       0.19726980       1.48318451
H        1.59093198       1.57208948       0.92134868
H        2.45692256       0.11465951       0.15935497
14
Frame=7 idx=001724 GeodesicLength=0.5462066883626808 rxn_smarts="[O:1]([C@@:2]1([H:8])[C:3]([H:9])([H:10])[C:4]([H:11])([H:12])[O:5][C:6]1([H:13])[H:14])[H:7]>>[O:1]([C:2]([C:3](=[C:4]([H:11])[H:12])[H:10])([H:8])[H:9])[H:7].[O:5]=[C:6]([H:13])[H:14]"
O        0.59428256      -1.28182789      -1.07423711
C        0.20562776       0.02665813      -1.05060010
C       -1.09139247       0.39375939      -0.37886749
C       -1.42533913      -0.27924181       0.80402840
O        0.96362057      -0.26093855       1.53248224
C        1.60632825       0.48024411       0.74552082
H        0.68011261      -1.56702417      -0.14851012
H        0.55813645       0.64914801      -1.86870737
H       -1.25321992      -0.10936078      -1.52622577
H       -1.36690255       1.44215031      -0.46261581
H       -1.45026124      -1.36184817       0.83194988
H       -2.10761476       0.20790421       1.49096778
H        1.62553236       1.56628409       0.93143127
H        2.46108951       0.09409311       0.17338338
14
Frame=8 idx=001724 GeodesicLength=0.6239481520641372 rxn_smarts="[O:1]([C@@:2]1([H:8])[C:3]([H:9])([H:10])[C:4]([H:11])([H:12])[O:5][C:6]1([H:13])[H:14])[H:7]>>[O:1]([C:2]([C:3](=[C:4]([H:11])[H:12])[H:10])([H:8])[H:9])[H:7].[O:5]=[C:6]([H:13])[H:14]"
O        0.59985086      -1.27473626      -1.08553694
C        0.19657956       0.03342011      -1.05030596
C       -1.10927767       0.38507299      -0.38671016
C       -1.41074686      -0.27142678       0.81746762
O        0.94388719      -0.25186852       1.53120191
C        1.60596874       0.47726781       0.74056726
H        0.68945584      -1.56797329      -0.16372072
H        0.55753717       0.67627940      -1.84894917
H       -1.24346553      -0.13114905      -1.54991078
H       -1.40584943       1.42678889      -0.48312919
H       -1.45176063      -1.35393112       0.85077630
H       -2.09772023       0.21924718       1.49841380
H        1.66078242       1.55920931       0.94242542
H        2.46475857       0.07379933       0.18741059
14
Frame=9 idx=001724 GeodesicLength=0.7016262010961052 rxn_smarts="[O:1]([C@@:2]1([H:8])[C:3]([H:9])([H:10])[C:4]([H:11])([H:12])[O:5][C:6]1([H:13])[H:14])[H:7]>>[O:1]([C:2]([C:3](=[C:4]([H:11])[H:12])[H:10])([H:8])[H:9])[H:7].[O:5]=[C:6]([H:13])[H:14]"
O        0.60568773      -1.26735445      -1.09682992
C        0.18728743       0.04010616      -1.04999248
C       -1.12743539       0.37536770      -0.39457712
C       -1.39660177      -0.26325456       0.83020335
O        0.92478173      -0.24244213       1.52960073
C        1.60570605       0.47461069       0.73534682
H        0.69888395      -1.56858835      -0.17898711
H        0.55578267       0.70326960      -1.82855896
H       -1.23271253      -0.15201384      -1.57433757
H       -1.44518617       1.40977682      -0.50345428
H       -1.45317556      -1.34538325       0.87037224
H       -2.08758050       0.23136321       1.50547393
H        1.69664661       1.55077085       0.95430732
H        2.46791573       0.05377153       0.20143304
14
Frame=10 idx=001724 GeodesicLength=0.7792493308571812 rxn_smarts="[O:1]([C@@:2]1([H:8])[C:3]([H:9])([H:10])[C:4]([H:11])([H:12])[O:5][C:6]1([H:13])[H:14])[H:7]>>[O:1]([C:2]([C:3](=[C:4]([H:11])[H:12])[H:10])([H:8])[H:9])[H:7].[O:5]=[C:6]([H:13])[H:14]"
O        0.61180362      -1.25966021      -1.10813776
C        0.17774599       0.04671515      -1.04966086
C       -1.14583165       0.36459921      -0.40243897
C       -1.38287510      -0.25471053       0.84228283
O        0.90629091      -0.23265164       1.52769184
C        1.60555669       0.47229221       0.72986297
H        0.70842462      -1.56886630      -0.19433605
H        0.55282213       0.73012323      -1.80753986
H       -1.22094238      -0.17189706      -1.59950005
H       -1.48489085       1.39105032      -0.52358994
H       -1.45448882      -1.33618348       0.89076569
H       -2.07723520       0.24431790       1.51209736
H        1.73307234       1.54087153       0.96705783
H        2.47054771       0.03399968       0.21544498
14
Frame=11 idx=001724 GeodesicLength=0.8568198447069962 rxn_smarts="[O:1]([C@@:2]1([H:8])[C:3]([H:9])([H:10])[C:4]([H:11])([H:12])[O:5][C:6]1([H:13])[H:14])[H:7]>>[O:1]([C:2]([C:3](=[C:4]([H:11])[H:12])[H:10])([H:8])[H:9])[H:7].[O:5]=[C:6]([H:13])[H:14]"
O        0.61820818      -1.25162913      -1.11948070
C        0.16795124       0.05324424      -1.04930964
C       -1.16442757       0.35271969      -0.41026238
C       -1.36953930      -0.24577791       0.85374757
O        0.88840263      -0.22249312       1.52548585
C        1.60553953       0.47032667       0.72412283
H        0.71810553      -1.56880193      -0.20979535
H        0.54861196       0.75684491      -1.78588149
H       -1.20813481      -0.19073065      -1.62538494
H       -1.52493695       1.37053670      -0.54353131
H       -1.45568547      -1.32630041       0.91198683
H       -2.06671843       0.25817471       1.51822810
H        1.76998577       1.52941130       0.98063843
H        2.47263768       0.01447493       0.22943620
14
Frame=12 idx=001724 GeodesicLength=0.9343416166486992 rxn_smarts="[O:1]([C@@:2]1([H:8])[C:3]([H:9])([H:10])[C:4]([H:11])([H:12])[O:5][C:6]1([H:13])[H:14])[H:7]>>[O:1]([C:2]([C:3](=[C:4]([H:11])[H:12])[H:10])([H:8])[H:9])[H:7].[O:5]=[C:6]([H:13])[H:14]"
O        0.62491050      -1.24323686      -1.13087918
C        0.15790211       0.05968956      -1.04893628
C       -1.18317762       0.33967985      -0.41800985
C       -1.35656667      -0.23643854       0.86463502
O        0.87110616      -0.21196723       1.52299333
C        1.60567637       0.46872367       0.71813695
H        0.72795474      -1.56839044      -0.22539406
H        0.54311300       0.78343509      -1.76356893
H       -1.19426800      -0.20843492      -1.65197270
H       -1.56529304       1.34815674      -0.56326774
H       -1.45675519      -1.31569400       0.93406566
H       -2.05605702       0.27299616       1.52380775
H        1.80728624       1.51629457       0.99499627
H        2.47416841      -0.00481364       0.24339377
14
Frame=13 idx=001724 GeodesicLength=1.011817694938081 rxn_smarts="[O:1]([C@@:2]1([H:8])[C:3]([H:9])([H:10])[C:4]([H:11])([H:12])[O:5][C:6]1([H:13])[H:14])[H:7]>>[O:1]([C:2]([C:3](=[C:4]([H:11])[H:12])[H:10])([H:8])[H:9])[H:7].[O:5]=[C:6]([H:13])[H:14]"
O        0.63191818      -1.23446016      -1.14235360
C        0.14760077       0.06604505      -1.04853696
C       -1.20202802       0.32542997      -0.42563869
C       -1.34392984      -0.22667409       0.87497829
O        0.85439199      -0.20108131       1.52022491
C        1.60599142       0.46748588       0.71191982
H        0.73800049      -1.56762838      -0.24116264
H        0.53629230       0.80988776      -1.74058154
H       -1.17932044      -0.22491774      -1.67923562
H       -1.60591601       1.32382766      -0.58277914
H       -1.45769260      -1.30431607       0.95703065
H       -2.04527240       0.28884279       1.52877365
H        1.84484122       1.50143630       1.01006014
H        2.47512295      -0.02387766       0.25730075
14
Frame=14 idx=001724 GeodesicLength=1.0892521917999824 rxn_smarts="[O:1]([C@@:2]1([H:8])[C:3]([H:9])([H:10])[C:4]([H:11])([H:12])[O:5][C:6]1([H:13])[H:14])[H:7]>>[O:1]([C:2]([C:3](=[C:4]([H:11])[H:12])[H:10])([H:8])[H:9])[H:7].[O:5]=[C:6]([H:13])[H:14]"
O        0.63923810      -1.22527563      -1.15392553
C        0.13705309       0.07230365      -1.04810596
C       -1.22091661       0.30992001      -0.43310088
C       -1.33160203      -0.21646643       0.88480667
O        0.83825139      -0.18985113       1.51719216
C        1.60651166       0.46660597       0.70549074
H        0.74827043      -1.56651403      -0.25713466
H        0.52812457       0.83619309      -1.71688936
H       -1.16327149      -0.24007603      -1.70713682
H       -1.64675631       1.29746026      -0.60203974
H       -1.45849894      -1.29211014       0.98090805
H       -2.03437881       0.30577560       1.53305944
H        1.88248881       1.48476737       1.02573885
H        2.47548614      -0.04273256       0.27113705
14
Frame=15 idx=001724 GeodesicLength=1.166648292999217 rxn_smarts="[O:1]([C@@:2]1([H:8])[C:3]([H:9])([H:10])[C:4]([H:11])([H:12])[O:5][C:6]1([H:13])[H:14])[H:7]>>[O:1]([C:2]([C:3](=[C:4]([H:11])[H:12])[H:10])([H:8])[H:9])[H:7].[O:5]=[C:6]([H:13])[H:14]"
O        0.64687445      -1.21566245      -1.16561712
C        0.12626884       0.07845544      -1.04763621
C       -1.23977107       0.29310228      -0.44034192
C       -1.31955745      -0.20579963       0.89414545
O        0.82267616      -0.17830209       1.51390781
C        1.60726531       0.46606549       0.69887307
H        0.75879159      -1.56504880      -0.27334616
H        0.51859343       0.86233113      -1.69245650
H       -1.14610448      -0.25379448      -1.73562832
H       -1.68774729       1.26896585      -0.62101143
H       -1.45918296      -1.27901313       1.00571894
H       -2.02338662       0.32385195       1.53659313
H        1.92003422       1.46624395       1.04192070
H        2.47524585      -0.06139552       0.28487855
14
Frame=16 idx=001724 GeodesicLength=1.2440100310162276 rxn_smarts="[O:1]([C@@:2]1([H:8])[C:3]([H:9])([H:10])[C:4]([H:11])([H:12])[O:5][C:6]1([H:13])[H:14])[H:7]>>[O:1]([C:2]([C:3](=[C:4]([H:11])[H:12])[H:10])([H:8])[H:9])[H:7].[O:5]=[C:6]([H:13])[H:14]"
O        0.65482890      -1.20560171      -1.17745230
C        0.11526154       0.08448844      -1.04711945
C       -1.25850917       0.27493233      -0.44730105
C       -1.30777166      -0.19466067       0.90301646
O        0.80765811      -0.16647057       1.51038638
C        1.60828104       0.46583257       0.69209416
H        0.76958953      -1.56323771      -0.28983719
H        0.50769217       0.88827282      -1.66724007
H       -1.12780860      -0.26594810      -1.76465019
H       -1.72880909       1.23825570      -0.63964672
H       -1.45976203      -1.26495565       1.03147843
H       -2.01230158       0.34312647       1.53929704
H        1.95725622       1.44585367       1.05847564
H        2.47439464      -0.07988759       0.29849887
