12
Frame=0 idx=000041 GeodesicLength=0.0 rxn_smarts="[C:1](/[N:2]=[C:3](/[N:4]([C:5](=[O:6])[H:12])[H:11])[H:10])([H:7])([H:8])[H:9]>>[C:1]([N+:2](=[C-:3][N:4]([C:5](=[O:6])[H:12])[H:11])[H:10])([H:7])([H:8])[H:9]"
C       -1.79009811      -0.36588824      -0.48852503
N       -1.26311419       0.68922167       0.37865559
C        0.03335957       0.79488157       0.64725571
N        0.92787323      -0.12372002       0.18121566
C        2.28362340      -0.00328332       0.42913000
O        3.09576100      -0.79276015       0.03537539
H       -2.83676229      -0.15987796      -0.69883426
H       -1.24835675      -0.44326160      -1.43753953
H       -1.72909556      -1.32671920       0.03005661
H       -0.64343142       1.78296038       0.24674664
H        0.65344569      -0.94602880      -0.34469715
H        2.51679539       0.89447568       1.02116035
12
Frame=1 idx=000041 GeodesicLength=0.09063910184236115 rxn_smarts="[C:1](/[N:2]=[C:3](/[N:4]([C:5](=[O:6])[H:12])[H:11])[H:10])([H:7])([H:8])[H:9]>>[C:1]([N+:2](=[C-:3][N:4]([C:5](=[O:6])[H:12])[H:11])[H:10])([H:7])([H:8])[H:9]"
C       -1.81048693      -0.36589747      -0.49230611
N       -1.23899334       0.66893324       0.36110743
C        0.05065892       0.80183900       0.62111758
N        0.94926673      -0.12097626       0.17230802
C        2.29943712      -0.00470341       0.44834229
O        3.10923752      -0.82897669       0.12748323
H       -2.87505676      -0.17987168      -0.61534806
H       -1.33651165      -0.38166626      -1.47985635
H       -1.70182033      -1.35189734      -0.03340719
H       -0.65444993       1.78875161       0.24385573
H        0.67685798      -0.94976887      -0.34406785
H        2.53186068       0.92423413       0.99077127
12
Frame=2 idx=000041 GeodesicLength=0.18078821840306453 rxn_smarts="[C:1](/[N:2]=[C:3](/[N:4]([C:5](=[O:6])[H:12])[H:11])[H:10])([H:7])([H:8])[H:9]>>[C:1]([N+:2](=[C-:3][N:4]([C:5](=[O:6])[H:12])[H:11])[H:10])([H:7])([H:8])[H:9]"
C       -1.83096711      -0.36554218      -0.49697587
N       -1.21312901       0.64994723       0.33737322
C        0.06897114       0.80952321       0.59021683
N        0.97171497      -0.11966683       0.16411670
C        2.31521119      -0.00659166       0.47015308
O        3.12163464      -0.85737293       0.21665047
H       -2.90683060      -0.20539616      -0.52524600
H       -1.43612124      -0.31585632      -1.51769795
H       -1.67450685      -1.37359593      -0.10619110
H       -0.66451252       1.79475684       0.23834569
H        0.70101463      -0.95927443      -0.33510762
H        2.54752076       0.94906917       0.96436254
12
Frame=3 idx=000041 GeodesicLength=0.27003352445038287 rxn_smarts="[C:1](/[N:2]=[C:3](/[N:4]([C:5](=[O:6])[H:12])[H:11])[H:10])([H:7])([H:8])[H:9]>>[C:1]([N+:2](=[C-:3][N:4]([C:5](=[O:6])[H:12])[H:11])[H:10])([H:7])([H:8])[H:9]"
C       -1.85163066      -0.36486964      -0.50242811
N       -1.18538325       0.63313082       0.30563208
C        0.08848709       0.81818376       0.55315677
N        0.99497445      -0.12066289       0.15799204
C        2.33076001      -0.00870925       0.49475515
O        3.13414871      -0.87786714       0.30033212
H       -2.93006056      -0.23741887      -0.42810215
H       -1.54901590      -0.24706249      -1.54882256
H       -1.64779364      -1.39065472      -0.18871817
H       -0.67290772       1.80139228       0.22865604
H        0.72575703      -0.97369560      -0.31845036
H        2.56266442       0.96823374       0.94599713
12
Frame=4 idx=000041 GeodesicLength=0.35789467904991684 rxn_smarts="[C:1](/[N:2]=[C:3](/[N:4]([C:5](=[O:6])[H:12])[H:11])[H:10])([H:7])([H:8])[H:9]>>[C:1]([N+:2](=[C-:3][N:4]([C:5](=[O:6])[H:12])[H:11])[H:10])([H:7])([H:8])[H:9]"
C       -1.87230543      -0.36354355      -0.50962919
N       -1.15592713       0.61818887       0.26503215
C        0.10900477       0.82659287       0.51066078
N        1.01837591      -0.12535308       0.15624108
C        2.34579739      -0.01082809       0.52228915
O        3.14729517      -0.89194033       0.38012561
H       -2.94189571      -0.27658343      -0.32524169
H       -1.67565549      -0.17437007      -1.57081382
H       -1.62304545      -1.40179885      -0.28385171
H       -0.67930861       1.80822334       0.21686371
H        0.75032135      -0.99369300      -0.29218603
H        2.57734324       0.98510532       0.93050995
12
Frame=5 idx=000041 GeodesicLength=0.4434471398739048 rxn_smarts="[C:1](/[N:2]=[C:3](/[N:4]([C:5](=[O:6])[H:12])[H:11])[H:10])([H:7])([H:8])[H:9]>>[C:1]([N+:2](=[C-:3][N:4]([C:5](=[O:6])[H:12])[H:11])[H:10])([H:7])([H:8])[H:9]"
C       -1.89290441      -0.36163805      -0.51847832
N       -1.12448283       0.60661900       0.21221058
C        0.13076108       0.83495627       0.46113123
N        1.04129933      -0.13356288       0.15928808
C        2.35976942      -0.01308412       0.55310204
O        3.16188563      -0.89955020       0.45286375
H       -2.93885410      -0.32390870      -0.21704643
H       -1.81726260      -0.10096129      -1.58014320
H       -1.60132000      -1.40510983      -0.39093840
H       -0.68270688       1.81592407       0.20183120
H        0.77399499      -1.01778393      -0.25711291
H        2.58982038       0.99809966       0.92329238
12
Frame=6 idx=000041 GeodesicLength=0.5258795284778582 rxn_smarts="[C:1](/[N:2]=[C:3](/[N:4]([C:5](=[O:6])[H:12])[H:11])[H:10])([H:7])([H:8])[H:9]>>[C:1]([N+:2](=[C-:3][N:4]([C:5](=[O:6])[H:12])[H:11])[H:10])([H:7])([H:8])[H:9]"
C       -1.91288978      -0.35882732      -0.53052761
N       -1.09109594       0.59818977       0.14488382
C        0.15317348       0.84140119       0.40721012
N        1.06183859      -0.14677726       0.17152445
C        2.37276149      -0.01428491       0.58455985
O        3.17843507      -0.90084600       0.51737322
H       -2.91718701      -0.37781882      -0.10877624
H       -1.97060342      -0.02827475      -1.57384948
H       -1.58576735      -1.39900728      -0.51101826
H       -0.68299512       1.82344427       0.18761302
H        0.79430366      -1.04730747      -0.20783645
H        2.60002635       1.01010860       0.91884357
12
Frame=7 idx=000041 GeodesicLength=0.6046550540940651 rxn_smarts="[C:1](/[N:2]=[C:3](/[N:4]([C:5](=[O:6])[H:12])[H:11])[H:10])([H:7])([H:8])[H:9]>>[C:1]([N+:2](=[C-:3][N:4]([C:5](=[O:6])[H:12])[H:11])[H:10])([H:7])([H:8])[H:9]"
C       -1.93124637      -0.35509770      -0.54680381
N       -1.05496219       0.59303216       0.05905060
C        0.17585242       0.84544202       0.35020552
N        1.07859287      -0.16345568       0.19305933
C        2.38413711      -0.01449911       0.61578995
O        3.19494129      -0.89827389       0.57638498
H       -2.87260895      -0.43783654      -0.00440381
H       -2.13225506       0.04145012      -1.54865782
H       -1.57807359      -1.38211300      -0.64346203
H       -0.68228570       1.82933399       0.18016294
H        0.80889039      -1.08051013      -0.14234977
H        2.60901776       1.02252777       0.91102391
12
Frame=8 idx=000041 GeodesicLength=0.6789008329763548 rxn_smarts="[C:1](/[N:2]=[C:3](/[N:4]([C:5](=[O:6])[H:12])[H:11])[H:10])([H:7])([H:8])[H:9]>>[C:1]([N+:2](=[C-:3][N:4]([C:5](=[O:6])[H:12])[H:11])[H:10])([H:7])([H:8])[H:9]"
C       -1.94668510      -0.35061723      -0.56466457
N       -1.01314958       0.59252357      -0.05323058
C        0.19936608       0.84883020       0.28663200
N        1.09149441      -0.17924555       0.21796932
C        2.39176078      -0.01506431       0.64949650
O        3.20823328      -0.89450704       0.63063386
H       -2.80036892      -0.49905239       0.09598845
H       -2.29805130       0.10027315      -1.50001359
H       -1.58149499      -1.35532335      -0.77890498
H       -0.68415052       1.83037958       0.18012567
H        0.81850484      -1.11008749      -0.07370017
H        2.61454100       1.03189086       0.90966810
12
Frame=9 idx=000041 GeodesicLength=0.7491529616012192 rxn_smarts="[C:1](/[N:2]=[C:3](/[N:4]([C:5](=[O:6])[H:12])[H:11])[H:10])([H:7])([H:8])[H:9]>>[C:1]([N+:2](=[C-:3][N:4]([C:5](=[O:6])[H:12])[H:11])[H:10])([H:7])([H:8])[H:9]"
C       -1.95747100      -0.34411379      -0.58105839
N       -0.96408249       0.59210784      -0.19043831
C        0.22279343       0.84985956       0.21752962
N        1.10095900      -0.19241253       0.24124066
C        2.39474999      -0.01496814       0.68520475
O        3.21759182      -0.88899339       0.68180342
H       -2.70217748      -0.54912699       0.18740918
H       -2.45306127       0.14875323      -1.42559768
H       -1.60399031      -1.32335212      -0.90536850
H       -0.69515235       1.81630405       0.18429233
H        0.82603257      -1.13313325      -0.01449856
H        2.61380809       1.03907554       0.91948149
12
Frame=10 idx=000041 GeodesicLength=0.82088386514934 rxn_smarts="[C:1](/[N:2]=[C:3](/[N:4]([C:5](=[O:6])[H:12])[H:11])[H:10])([H:7])([H:8])[H:9]>>[C:1]([N+:2](=[C-:3][N:4]([C:5](=[O:6])[H:12])[H:11])[H:10])([H:7])([H:8])[H:9]"
C       -1.96327225      -0.33462221      -0.59009798
N       -0.91269594       0.58490319      -0.33209511
C        0.24763150       0.84803250       0.13529817
N        1.10857843      -0.20234900       0.25485009
C        2.39161526      -0.01339769       0.72300978
O        3.22162901      -0.88070845       0.73624146
H       -2.58442799      -0.59212033       0.26714627
H       -2.58524937       0.19775067      -1.31912661
H       -1.64845328      -1.28663745      -1.01938550
H       -0.71259156       1.78423663       0.17288816
H        0.83579261      -1.14961612       0.02274003
H        2.60144358       1.04452826       0.94853124
12
Frame=11 idx=000041 GeodesicLength=0.8962165195433534 rxn_smarts="[C:1](/[N:2]=[C:3](/[N:4]([C:5](=[O:6])[H:12])[H:11])[H:10])([H:7])([H:8])[H:9]>>[C:1]([N+:2](=[C-:3][N:4]([C:5](=[O:6])[H:12])[H:11])[H:10])([H:7])([H:8])[H:9]"
C       -1.96631259      -0.32387119      -0.59418981
N       -0.86772163       0.56645932      -0.45317286
C        0.27153350       0.83996842       0.05238356
N        1.11077367      -0.21224632       0.27272899
C        2.38384573      -0.00895766       0.76035042
O        3.22339281      -0.86698940       0.78685742
H       -2.46673210      -0.63707988       0.32151389
H       -2.68010079       0.25391641      -1.19236935
H       -1.71074531      -1.24403414      -1.12187822
H       -0.72740030       1.74354729       0.14268877
H        0.84704652      -1.16404175       0.04902873
H        2.58242050       1.05332889       0.97605847
12
Frame=12 idx=000041 GeodesicLength=0.9730380663993009 rxn_smarts="[C:1](/[N:2]=[C:3](/[N:4]([C:5](=[O:6])[H:12])[H:11])[H:10])([H:7])([H:8])[H:9]>>[C:1]([N+:2](=[C-:3][N:4]([C:5](=[O:6])[H:12])[H:11])[H:10])([H:7])([H:8])[H:9]"
C       -1.96826671      -0.31324012      -0.59246710
N       -0.82915956       0.53903274      -0.55811924
C        0.29577500       0.82532073      -0.03299654
N        1.11302053      -0.22119639       0.28068841
C        2.37118694      -0.00250873       0.79829226
O        3.22463869      -0.84665995       0.83372083
H       -2.35473801      -0.68214585       0.35715222
H       -2.74226826       0.31141747      -1.05208419
H       -1.78974874      -1.19697900      -1.20766157
H       -0.73408584       1.70167931       0.09592832
H        0.86244226      -1.17760746       0.06180417
H        2.55120371       1.06288724       1.01574243
12
Frame=13 idx=000041 GeodesicLength=1.0504503566002383 rxn_smarts="[C:1](/[N:2]=[C:3](/[N:4]([C:5](=[O:6])[H:12])[H:11])[H:10])([H:7])([H:8])[H:9]>>[C:1]([N+:2](=[C-:3][N:4]([C:5](=[O:6])[H:12])[H:11])[H:10])([H:7])([H:8])[H:9]"
C       -1.96934363      -0.30269255      -0.58777326
N       -0.79654938       0.50511400      -0.64951109
C        0.31916968       0.80430583      -0.11633515
N        1.11527580      -0.23024422       0.28248009
C        2.35510441       0.00648002       0.83419299
O        3.22342778      -0.82195242       0.88355163
H       -2.25034121      -0.73290558       0.37326699
H       -2.77513698       0.36889246      -0.90302895
H       -1.88038831      -1.14095737      -1.28180979
H       -0.73448339       1.66043199       0.04330603
H        0.87971718      -1.19197743       0.07028507
H        2.51354804       1.07550527       1.05137543
12
Frame=14 idx=000041 GeodesicLength=1.1276820985139793 rxn_smarts="[C:1](/[N:2]=[C:3](/[N:4]([C:5](=[O:6])[H:12])[H:11])[H:10])([H:7])([H:8])[H:9]>>[C:1]([N+:2](=[C-:3][N:4]([C:5](=[O:6])[H:12])[H:11])[H:10])([H:7])([H:8])[H:9]"
C       -1.96948331      -0.29215784      -0.58210978
N       -0.76872612       0.46643136      -0.72941090
C        0.34070526       0.77745006      -0.19390598
N        1.11674792      -0.23974736       0.28347657
C        2.33745738       0.01810211       0.86637654
O        3.22044961      -0.79370698       0.93350894
H       -2.15739867      -0.78946575       0.36938878
H       -2.78111951       0.42282381      -0.75189605
H       -1.97774861      -1.07345418      -1.34543025
H       -0.73132992       1.61950303      -0.00897462
H        0.89638900      -1.20743865       0.08225907
H        2.47405695       1.09166039       1.07671768
12
Frame=15 idx=000041 GeodesicLength=1.2042724439920376 rxn_smarts="[C:1](/[N:2]=[C:3](/[N:4]([C:5](=[O:6])[H:12])[H:11])[H:10])([H:7])([H:8])[H:9]>>[C:1]([N+:2](=[C-:3][N:4]([C:5](=[O:6])[H:12])[H:11])[H:10])([H:7])([H:8])[H:9]"
C       -1.96866254      -0.28142323      -0.57523687
N       -0.74481758       0.42416321      -0.80122325
C        0.36104936       0.74545249      -0.26815320
N        1.11886087      -0.24995718       0.28066811
C        2.31794353       0.03176660       0.89537987
O        3.21588640      -0.76170844       0.98359818
H       -2.07642308      -0.84776896       0.35004742
H       -2.76361107       0.47031405      -0.60166226
H       -2.07918008      -0.99553923      -1.39490803
H       -0.72483569       1.57877234      -0.06041092
H        0.91367142      -1.22383874       0.09388059
H        2.43011847       1.10976710       1.09802036
12
Frame=16 idx=000041 GeodesicLength=1.2799790762255727 rxn_smarts="[C:1](/[N:2]=[C:3](/[N:4]([C:5](=[O:6])[H:12])[H:11])[H:10])([H:7])([H:8])[H:9]>>[C:1]([N+:2](=[C-:3][N:4]([C:5](=[O:6])[H:12])[H:11])[H:10])([H:7])([H:8])[H:9]"
C       -1.96699878      -0.27072695      -0.56853059
N       -0.72416431       0.37921237      -0.86494262
C        0.37933323       0.70916452      -0.33586792
N        1.12038242      -0.26047488       0.27924010
C        2.29851844       0.04751572       0.92010922
O        3.21054842      -0.72712801       1.03089944
H       -2.01032005      -0.90881463       0.31470452
H       -2.72641372       0.50860855      -0.45630831
H       -2.17936293      -0.90517086      -1.43301503
H       -0.71710956       1.53827959      -0.10838550
H        0.92876040      -1.24062467       0.11196338
H        2.38682645       1.13015925       1.11013330
