12
Frame=0 idx=001940 GeodesicLength=0.0 rxn_smarts="[O:1]([C:2]([C:3]([O:4][C:5](=[O:6])[H:12])([H:10])[H:11])([H:8])[H:9])[H:7]>>[C:5](=[O:6])([H:10])[H:12].[O:1]([C:2]([C:3](=[O:4])[H:11])([H:8])[H:9])[H:7]"
O       -2.07847757       0.80920593       0.67712801
C       -1.24973597      -0.28936750       0.39085137
C        0.19467293       0.18546694       0.41409081
O        0.53285746       1.09050501      -0.45351803
C        1.72601432      -0.27303006      -0.80740994
O        2.83456798      -0.15367132      -0.43940218
H       -1.85080858       1.51195621       0.06020781
H       -1.47280859      -0.71942464      -0.59456323
H       -1.43178061      -1.04410582       1.15678997
H        0.88179598      -0.94099579      -0.03444788
H        0.68910798       0.20359368       1.39669548
H        1.22459470      -0.38013260      -1.76642221
12
Frame=1 idx=001940 GeodesicLength=0.10913051983246688 rxn_smarts="[O:1]([C:2]([C:3]([O:4][C:5](=[O:6])[H:12])([H:10])[H:11])([H:8])[H:9])[H:7]>>[C:5](=[O:6])([H:10])[H:12].[O:1]([C:2]([C:3](=[O:4])[H:11])([H:8])[H:9])[H:7]"
O       -2.08044097       0.82192238       0.71973048
C       -1.27332025      -0.28239482       0.39560390
C        0.17858207       0.16836551       0.38800629
O        0.51053543       1.04484212      -0.51320329
C        1.76164961      -0.27626722      -0.80927813
O        2.85131322      -0.09276939      -0.40639589
H       -1.85286880       1.53670914       0.11665838
H       -1.52933240      -0.69741310      -0.58821211
H       -1.44563039      -1.04690908       1.15415897
H        0.89836100      -0.96440900      -0.03874461
H        0.67167345       0.20383981       1.37095146
H        1.30947803      -0.41551635      -1.78927545
12
Frame=2 idx=001940 GeodesicLength=0.2170850390307379 rxn_smarts="[O:1]([C:2]([C:3]([O:4][C:5](=[O:6])[H:12])([H:10])[H:11])([H:8])[H:9])[H:7]>>[C:5](=[O:6])([H:10])[H:12].[O:1]([C:2]([C:3](=[O:4])[H:11])([H:8])[H:9])[H:7]"
O       -2.07958733       0.83625749       0.76078486
C       -1.29782256      -0.27546429       0.40114328
C        0.16154619       0.14773252       0.36160989
O        0.48681863       0.99362311      -0.57315669
C        1.79716893      -0.27726695      -0.81097539
O        2.86298179      -0.02683041      -0.37560985
H       -1.84893352       1.56119459       0.17102937
H       -1.58777338      -0.67580408      -0.57929503
H       -1.46241336      -1.04828446       1.15306331
H        0.91647266      -0.98905611      -0.04323639
H        0.65387855       0.20134081       1.34431207
H        1.39766340      -0.44744223      -1.80966943
12
Frame=3 idx=001940 GeodesicLength=0.32386029598911825 rxn_smarts="[O:1]([C:2]([C:3]([O:4][C:5](=[O:6])[H:12])([H:10])[H:11])([H:8])[H:9])[H:7]>>[C:5](=[O:6])([H:10])[H:12].[O:1]([C:2]([C:3](=[O:4])[H:11])([H:8])[H:9])[H:7]"
O       -2.07563255       0.85241075       0.80000347
C       -1.32314862      -0.26854187       0.40748650
C        0.14354893       0.12307840       0.33512848
O        0.46183988       0.93624499      -0.63299900
C        1.83231159      -0.27581155      -0.81256162
O        2.86885296       0.04411456      -0.34737686
H       -1.83859637       1.58535473       0.22268174
H       -1.64782939      -0.65437812      -0.56782193
H       -1.48231614      -1.04811942       1.15366334
H        0.93645176      -1.01505366      -0.04767908
H        0.63571013       0.19568057       1.31695054
H        1.48880781      -0.47497938      -1.82747559
12
Frame=4 idx=001940 GeodesicLength=0.42939936949074 rxn_smarts="[O:1]([C:2]([C:3]([O:4][C:5](=[O:6])[H:12])([H:10])[H:11])([H:8])[H:9])[H:7]>>[C:5](=[O:6])([H:10])[H:12].[O:1]([C:2]([C:3](=[O:4])[H:11])([H:8])[H:9])[H:7]"
O       -2.06827082       0.87050888       0.83699758
C       -1.34914152      -0.26157669       0.41451780
C        0.12461441       0.09392201       0.30894020
O        0.43585117       0.87219901      -0.69212549
C        1.86671166      -0.27163459      -0.81407960
O        2.86818052       0.12012595      -0.32236829
H       -1.82136725       1.60913931       0.27102640
H       -1.70900400      -0.63277647      -0.55405793
H       -1.50558489      -1.04638070       1.15586794
H        0.95876442      -1.04242805      -0.05149839
H        0.61717091       0.18637153       1.28921917
H        1.58207539      -0.49747020      -1.84243940
12
Frame=5 idx=001940 GeodesicLength=0.5337946332617383 rxn_smarts="[O:1]([C:2]([C:3]([O:4][C:5](=[O:6])[H:12])([H:10])[H:11])([H:8])[H:9])[H:7]>>[C:5](=[O:6])([H:10])[H:12].[O:1]([C:2]([C:3](=[O:4])[H:11])([H:8])[H:9])[H:7]"
O       -2.05709186       0.89068193       0.87143063
C       -1.37562480      -0.25450817       0.42220031
C        0.10475159       0.05968241       0.28335245
O        0.40906151       0.80080610      -0.75008029
C        1.89998903      -0.26448238      -0.81561178
O        2.86001339       0.20095829      -0.30075941
H       -1.79673627       1.63238283       0.31542591
H       -1.77086972      -0.61065244      -0.53816375
H       -1.53239399      -1.04288047       1.15978555
H        0.98377366      -1.07121547      -0.05432391
H        0.59826449       0.17299666       1.26136318
H        1.67686297      -0.51376929      -1.85461889
12
Frame=6 idx=001940 GeodesicLength=0.6369295046333849 rxn_smarts="[O:1]([C:2]([C:3]([O:4][C:5](=[O:6])[H:12])([H:10])[H:11])([H:8])[H:9])[H:7]>>[C:5](=[O:6])([H:10])[H:12].[O:1]([C:2]([C:3](=[O:4])[H:11])([H:8])[H:9])[H:7]"
O       -2.04170582       0.91290980       0.90280544
C       -1.40231100      -0.24724409       0.43027850
C        0.08402918       0.01984236       0.25890778
O        0.38186699       0.72164494      -0.80596310
C        1.93158013      -0.25402106      -0.81718922
O        2.84337330       0.28652067      -0.28336144
H       -1.76408537       1.65487771       0.35540194
H       -1.83263010      -0.58746195      -0.52069615
H       -1.56298374      -1.03752183       1.16507929
H        1.01200908      -1.10123923      -0.05534321
H        0.57900829       0.15500142       1.23387791
H        1.77184905      -0.52330874      -1.86379773
12
Frame=7 idx=001940 GeodesicLength=0.7391168819503201 rxn_smarts="[O:1]([C:2]([C:3]([O:4][C:5](=[O:6])[H:12])([H:10])[H:11])([H:8])[H:9])[H:7]>>[C:5](=[O:6])([H:10])[H:12].[O:1]([C:2]([C:3](=[O:4])[H:11])([H:8])[H:9])[H:7]"
O       -2.02146038       0.93727885       0.93070617
C       -1.42889441      -0.23968837       0.43870207
C        0.06246828      -0.02632836       0.23598159
O        0.35452810       0.63384588      -0.85933152
C        1.96090869      -0.24001341      -0.81891570
O        2.81687769       0.37620024      -0.26981765
H       -1.72271347       1.67625489       0.39022779
H       -1.89371829      -0.56281099      -0.50190169
H       -1.59745367      -1.02985824       1.17196176
H        1.04375968      -1.13245300      -0.05421299
H        0.55943468       0.13197694       1.20702682
H        1.86626311      -0.52440443      -1.87042666
12
Frame=8 idx=001940 GeodesicLength=0.840445566094137 rxn_smarts="[O:1]([C:2]([C:3]([O:4][C:5](=[O:6])[H:12])([H:10])[H:11])([H:8])[H:9])[H:7]>>[C:5](=[O:6])([H:10])[H:12].[O:1]([C:2]([C:3](=[O:4])[H:11])([H:8])[H:9])[H:7]"
O       -1.99583717       0.96353749       0.95461698
C       -1.45488139      -0.23172422       0.44703646
C        0.04021172      -0.07921057       0.21535916
O        0.32768298       0.53722270      -0.90904681
C        1.98712068      -0.22211752      -0.82080048
O        2.77931970       0.46961057      -0.26096074
H       -1.67191841       1.69606827       0.41960993
H       -1.95291934      -0.53598495      -0.48281508
H       -1.63596303      -1.01980879       1.17975045
H        1.07942152      -1.16438244      -0.04988111
H        0.53963438       0.10347445       1.18157666
H        1.95812835      -0.51668499      -1.87444541
12
Frame=9 idx=001940 GeodesicLength=0.940737205536323 rxn_smarts="[O:1]([C:2]([C:3]([O:4][C:5](=[O:6])[H:12])([H:10])[H:11])([H:8])[H:9])[H:7]>>[C:5](=[O:6])([H:10])[H:12].[O:1]([C:2]([C:3](=[O:4])[H:11])([H:8])[H:9])[H:7]"
O       -1.96424534       0.99125043       0.97398623
C       -1.47964816      -0.22313621       0.45485095
C        0.01739943      -0.13914865       0.19777244
O        0.30195617       0.43151089      -0.95384940
C        2.00920684      -0.20005248      -0.82279806
O        2.72912020       0.56586909      -0.25735434
H       -1.61101394       1.71340471       0.44336563
H       -2.00887638      -0.50616188      -0.46429522
H       -1.67845089      -1.00682527       1.18768892
H        1.11921328      -1.19626350      -0.04162565
H        0.51970054       0.06906988       1.15800507
H        2.04563824      -0.49951701      -1.87574657
12
Frame=10 idx=001940 GeodesicLength=1.0411642745147742 rxn_smarts="[O:1]([C:2]([C:3]([O:4][C:5](=[O:6])[H:12])([H:10])[H:11])([H:8])[H:9])[H:7]>>[C:5](=[O:6])([H:10])[H:12].[O:1]([C:2]([C:3](=[O:4])[H:11])([H:8])[H:9])[H:7]"
O       -1.92597647       1.02018214       0.98823943
C       -1.50245157      -0.21384664       0.46181423
C       -0.00579552      -0.20632009       0.18407327
O        0.27812771       0.31673672      -0.99286193
C        2.02602170      -0.17377436      -0.82505158
O        2.66481237       0.66335194      -0.25824538
H       -1.53944846       1.72764995       0.46085445
H       -2.06004610      -0.47322272      -0.44744499
H       -1.72464146      -0.99038655       1.19566739
H        1.16285402      -1.22765877      -0.02889204
H        0.49983707       0.02865855       1.13723156
H        2.12670672      -0.47137018      -1.87538438
12
Frame=11 idx=001940 GeodesicLength=1.1424914889244389 rxn_smarts="[O:1]([C:2]([C:3]([O:4][C:5](=[O:6])[H:12])([H:10])[H:11])([H:8])[H:9])[H:7]>>[C:5](=[O:6])([H:10])[H:12].[O:1]([C:2]([C:3](=[O:4])[H:11])([H:8])[H:9])[H:7]"
O       -1.88067883       1.04958258       0.99687174
C       -1.52236249      -0.20370156       0.46731882
C       -0.02913787      -0.28031070       0.17518346
O        0.25714963       0.19360781      -1.02468634
C        2.03625262      -0.14336751      -0.82756880
O        2.58519707       0.76012107      -0.26366041
H       -1.45698300       1.73773846       0.47228167
H       -2.10443415      -0.43677997      -0.43364468
H       -1.77393589      -0.96992860       1.20266252
H        1.20989739      -1.25754721      -0.01105469
H        0.48024732      -0.01754131       1.12003986
H        2.19878819      -0.43187306      -1.87374313
12
Frame=12 idx=001940 GeodesicLength=1.2461793171334938 rxn_smarts="[O:1]([C:2]([C:3]([O:4][C:5](=[O:6])[H:12])([H:10])[H:11])([H:8])[H:9])[H:7]>>[C:5](=[O:6])([H:10])[H:12].[O:1]([C:2]([C:3](=[O:4])[H:11])([H:8])[H:9])[H:7]"
O       -1.82837924       1.07851266       0.99974207
C       -1.53837321      -0.19261891       0.47070163
C       -0.05231459      -0.35997417       0.17200174
O        0.24013448       0.06367283      -1.04803250
C        2.03869958      -0.10933705      -0.83044571
O        2.48991174       0.85353746      -0.27322858
H       -1.36426770       1.74269146       0.47825119
H       -2.13981220      -0.39677027      -0.42450583
H       -1.82532471      -0.94513096       1.20740288
H        1.25946140      -1.28484930       0.01242233
H        0.46120246      -0.06856034       1.10727160
H        2.25906198      -0.38117340      -1.87158082
12
Frame=13 idx=001940 GeodesicLength=1.3542264102530677 rxn_smarts="[O:1]([C:2]([C:3]([O:4][C:5](=[O:6])[H:12])([H:10])[H:11])([H:8])[H:9])[H:7]>>[C:5](=[O:6])([H:10])[H:12].[O:1]([C:2]([C:3](=[O:4])[H:11])([H:8])[H:9])[H:7]"
O       -1.76965829       1.10589846       0.99709057
C       -1.54959418      -0.18058429       0.47132884
C       -0.07502007      -0.44352244       0.17522125
O        0.22818105      -0.07079193      -1.06178104
C        2.03255351      -0.07260436      -0.83384217
O        2.37967849       0.94065642      -0.28641035
H       -1.26263349       1.74168715       0.47998487
H       -2.16406613      -0.35353274      -0.42154353
H       -1.87765384      -0.91590138       1.20837408
H        1.31033809      -1.30846085       0.04187482
H        0.44297622      -0.12277582       1.09954260
H        2.30489864      -0.32006823      -1.86983993
12
Frame=14 idx=001940 GeodesicLength=1.468921026986249 rxn_smarts="[O:1]([C:2]([C:3]([O:4][C:5](=[O:6])[H:12])([H:10])[H:11])([H:8])[H:9])[H:7]>>[C:5](=[O:6])([H:10])[H:12].[O:1]([C:2]([C:3](=[O:4])[H:11])([H:8])[H:9])[H:7]"
O       -1.70598296       1.13064807       0.98983510
C       -1.55543190      -0.16773156       0.46864845
C       -0.09697880      -0.52846291       0.18514087
O        0.22225612      -0.20651602      -1.06522034
C        2.01763269      -0.03440781      -0.83802224
O        2.25669553       1.01873811      -0.30289663
H       -1.15453143       1.73446903       0.47969674
H       -2.17543233      -0.30772493      -0.42613653
H       -1.92955197      -0.88274979       1.20388991
H        1.36110469      -1.32748198       0.07732504
H        0.42577322      -0.17794971       1.09718659
H        2.33444714      -0.25083049      -1.86944698
12
Frame=15 idx=001940 GeodesicLength=1.5927207558213419 rxn_smarts="[O:1]([C:2]([C:3]([O:4][C:5](=[O:6])[H:12])([H:10])[H:11])([H:8])[H:9])[H:7]>>[C:5](=[O:6])([H:10])[H:12].[O:1]([C:2]([C:3](=[O:4])[H:11])([H:8])[H:9])[H:7]"
O       -1.63912647       1.15201558       0.97915338
C       -1.55565963      -0.15416829       0.46229053
C       -0.11805384      -0.61249052       0.20160400
O        0.22291602      -0.34069108      -1.05816930
C        1.99438097       0.00397065      -0.84336310
O        2.12366730       1.08564911      -0.32214189
H       -1.04235764       1.72115420       0.48010087
H       -2.17284292      -0.26021034      -0.43902265
H       -1.97998179      -0.84625145       1.19232140
H        1.41073473      -1.34117965       0.11867180
H        0.40967328      -0.23190524       1.09998755
H        2.34664999      -0.17589298      -1.87143257
12
Frame=16 idx=001940 GeodesicLength=1.7269050998945517 rxn_smarts="[O:1]([C:2]([C:3]([O:4][C:5](=[O:6])[H:12])([H:10])[H:11])([H:8])[H:9])[H:7]>>[C:5](=[O:6])([H:10])[H:12].[O:1]([C:2]([C:3](=[O:4])[H:11])([H:8])[H:9])[H:7]"
O       -1.57168634       1.16939127       0.96697532
C       -1.55057794      -0.14021495       0.45230369
C       -0.13819307      -0.69283393       0.22394452
O        0.23037812      -0.46946145      -1.04095787
C        1.96420500       0.04099492      -0.85038903
O        1.98538363       1.13978624      -0.34391243
H       -0.93011306       1.70266001       0.48395114
H       -2.15606981      -0.21213692      -0.46017032
H       -2.02792493      -0.80778683       1.17248427
H        1.45793181      -1.34940852       0.16519511
H        0.39471756      -0.28223197       1.10737381
H        2.34194902      -0.09875787      -1.87679821
