20
Frame=0 idx=001245 GeodesicLength=0.0 rxn_smarts="[C:1]([C:2]([C:3]([C:4]([H:13])([H:14])[H:15])([C:5]([C:6]([H:18])([H:19])[H:20])([H:16])[H:17])[H:12])([H:10])[H:11])([H:7])([H:8])[H:9]>>[C:1](/[C:2](=[C:3](/[C:4]([H:13])([H:14])[H:15])[H:12])[H:10])([H:7])([H:8])[H:9].[C:5](=[C:6]([H:18])[H:19])([H:16])[H:17].[H:11][H:20]"
C        2.07187651      -0.65645887       0.80206745
C        1.20308341      -0.11287387      -0.30443020
C        0.34708058       0.94146043      -0.09752031
C       -0.16430436       1.75657512      -1.25386547
C       -1.68470227       0.05619376       0.70665341
C       -1.81614099      -1.26115372       0.35609017
H        1.54994649      -0.60461911       1.75999458
H        2.34365832      -1.69896275       0.62765650
H        2.99725609      -0.08234194       0.89339442
H        1.56579392      -0.26946648      -1.31904076
H        0.29789840      -1.31053870      -0.49503430
H        0.35687981       1.41935479       0.87449553
H       -1.00152936       2.39504895      -0.96944605
H        0.61916184       2.40780353      -1.65307388
H       -0.49931039       1.10957131      -2.06882234
H       -2.16258878       0.82781498       0.12008255
H       -1.44003023       0.31804413       1.72750293
H       -1.71756450      -2.03743640       1.10703687
H       -2.39357368      -1.53705906      -0.51967754
H       -0.47289080      -1.66095612      -0.29406355
20
Frame=1 idx=001245 GeodesicLength=0.17285761342829675 rxn_smarts="[C:1]([C:2]([C:3]([C:4]([H:13])([H:14])[H:15])([C:5]([C:6]([H:18])([H:19])[H:20])([H:16])[H:17])[H:12])([H:10])[H:11])([H:7])([H:8])[H:9]>>[C:1](/[C:2](=[C:3](/[C:4]([H:13])([H:14])[H:15])[H:12])[H:10])([H:7])([H:8])[H:9].[C:5](=[C:6]([H:18])[H:19])([H:16])[H:17].[H:11][H:20]"
C        2.13431683      -0.63927830       0.74645465
C        1.18367945      -0.13913210      -0.31299115
C        0.31816191       0.90541839      -0.08337793
C       -0.11739485       1.80486876      -1.20853120
C       -1.74528047       0.05417909       0.63077177
C       -1.85571167      -1.29256418       0.39108828
H        1.66560466      -0.59465466       1.73185075
H        2.43267731      -1.67318170       0.56346754
H        3.04403042      -0.03475177       0.78025072
H        1.50983180      -0.29600803      -1.34057042
H        0.28200954      -1.36935924      -0.43200073
H        0.34339208       1.35956290       0.90098056
H       -0.94863433       2.44838102      -0.91744956
H        0.69611505       2.46059385      -1.53316096
H       -0.42631195       1.21802601      -2.07751647
H       -2.20347299       0.75921760      -0.04846573
H       -1.62915706       0.40372117       1.64880114
H       -1.79976614      -1.99698456       1.21409301
H       -2.39834827      -1.64218637      -0.48114171
H       -0.48574132      -1.73586788      -0.17255255
20
Frame=2 idx=001245 GeodesicLength=0.33028113234280054 rxn_smarts="[C:1]([C:2]([C:3]([C:4]([H:13])([H:14])[H:15])([C:5]([C:6]([H:18])([H:19])[H:20])([H:16])[H:17])[H:12])([H:10])[H:11])([H:7])([H:8])[H:9]>>[C:1](/[C:2](=[C:3](/[C:4]([H:13])([H:14])[H:15])[H:12])[H:10])([H:7])([H:8])[H:9].[C:5](=[C:6]([H:18])[H:19])([H:16])[H:17].[H:11][H:20]"
C        2.19421192      -0.61956380       0.68594475
C        1.16487447      -0.16584686      -0.32033306
C        0.29173351       0.87039700      -0.06903347
C       -0.07317103       1.84709718      -1.15507882
C       -1.80105330       0.04930467       0.55042735
C       -1.89515928      -1.31695239       0.42439438
H        1.78236921      -0.57763492       1.69648797
H        2.51608570      -1.64490727       0.49407769
H        3.08473984       0.01314062       0.66003317
H        1.45034908      -0.32486445      -1.36024137
H        0.26931607      -1.42757390      -0.35671445
H        0.32772169       1.29535212       0.92922110
H       -0.90127982       2.49150173      -0.85670927
H        0.76502020       2.50417695      -1.40543450
H       -0.35138313       1.32135136      -2.07218790
H       -2.22483371       0.68056982      -0.21833321
H       -1.81226795       0.48475475       1.54230030
H       -1.89082767      -1.94305281       1.31046992
H       -2.39791159      -1.73916350      -0.44011746
H       -0.49853419      -1.79808630      -0.03917312
20
Frame=3 idx=001245 GeodesicLength=0.4756694920625029 rxn_smarts="[C:1]([C:2]([C:3]([C:4]([H:13])([H:14])[H:15])([C:5]([C:6]([H:18])([H:19])[H:20])([H:16])[H:17])[H:12])([H:10])[H:11])([H:7])([H:8])[H:9]>>[C:1](/[C:2](=[C:3](/[C:4]([H:13])([H:14])[H:15])[H:12])[H:10])([H:7])([H:8])[H:9].[C:5](=[C:6]([H:18])[H:19])([H:16])[H:17].[H:11][H:20]"
C        2.25034714      -0.59771651       0.62185281
C        1.14709728      -0.19233592      -0.32585946
C        0.26814597       0.83715142      -0.05394676
C       -0.03317387       1.88264466      -1.09544101
C       -1.84999396       0.04120969       0.46809195
C       -1.93399028      -1.33439647       0.45409336
H        1.89906620      -0.55099250       1.65476011
H        2.59097292      -1.61572757       0.42265838
H        3.11941733       0.05855325       0.53291801
H        1.38886549      -0.35489754      -1.37685011
H        0.26077020      -1.48291572      -0.26843225
H        0.31146265       1.22941834       0.95853957
H       -0.86018322       2.52495680      -0.78925841
H        0.82464363       2.53744019      -1.27485135
H       -0.27880814       1.41682334      -2.05329342
H       -2.22579628       0.59441865      -0.38197797
H       -1.98246187       0.55620340       1.41267913
H       -1.99203007      -1.87895650       1.39087346
H       -2.39163589      -1.82560490      -0.39943722
H       -0.51271523      -1.84527614       0.10288118
20
Frame=4 idx=001245 GeodesicLength=0.6115289030695626 rxn_smarts="[C:1]([C:2]([C:3]([C:4]([H:13])([H:14])[H:15])([C:5]([C:6]([H:18])([H:19])[H:20])([H:16])[H:17])[H:12])([H:10])[H:11])([H:7])([H:8])[H:9]>>[C:1](/[C:2](=[C:3](/[C:4]([H:13])([H:14])[H:15])[H:12])[H:10])([H:7])([H:8])[H:9].[C:5](=[C:6]([H:18])[H:19])([H:16])[H:17].[H:11][H:20]"
C        2.30051196      -0.57595740       0.55599786
C        1.13087335      -0.21767017      -0.32991475
C        0.24782059       0.80654459      -0.03824641
C        0.00181505       1.91196862      -1.03209347
C       -1.89050827       0.03047703       0.38532749
C       -1.97032055      -1.34513253       0.48137532
H        2.01001259      -0.52005463       1.60712226
H        2.65592647      -1.58763665       0.34969337
H        3.14587113       0.09961112       0.40519895
H        1.32875732      -0.38323037      -1.39015428
H        0.25625791      -1.53238208      -0.17143264
H        0.29662214       1.16433559       0.98783247
H       -0.82604971       2.54953972      -0.71804878
H        0.87411222       2.56240512      -1.14470887
H       -0.21001388       1.50336120      -2.02350432
H       -2.20816697       0.50177020      -0.53539001
H       -2.13725774       0.61662291       1.26393039
H       -2.09486099      -1.80600486       1.45602381
H       -2.38179322      -1.90222030      -0.35553421
H       -0.52960939      -1.87634710       0.24652579
20
Frame=5 idx=001245 GeodesicLength=0.7407504259064582 rxn_smarts="[C:1]([C:2]([C:3]([C:4]([H:13])([H:14])[H:15])([C:5]([C:6]([H:18])([H:19])[H:20])([H:16])[H:17])[H:12])([H:10])[H:11])([H:7])([H:8])[H:9]>>[C:1](/[C:2](=[C:3](/[C:4]([H:13])([H:14])[H:15])[H:12])[H:10])([H:7])([H:8])[H:9].[C:5](=[C:6]([H:18])[H:19])([H:16])[H:17].[H:11][H:20]"
C        2.34436728      -0.55505935       0.48971266
C        1.11630318      -0.24138808      -0.33261019
C        0.23058036       0.77874230      -0.02174388
C        0.03139757       1.93592415      -0.96660802
C       -1.92226870       0.01696535       0.30345607
C       -2.00389933      -1.35004248       0.50594379
H        2.11425737      -0.48481917       1.55478220
H        2.71018778      -1.56198440       0.27763485
H        3.16497723       0.13448111       0.27805003
H        1.27159141      -0.40838635      -1.40026116
H        0.25550202      -1.57424020      -0.06737875
H        0.28455215       1.10176705       1.01661275
H       -0.79838033       2.56685328      -0.64400363
H        0.91397649       2.58004622      -1.01797733
H       -0.14779717       1.58107121      -1.98472544
H       -2.17408808       0.40427156      -0.67545942
H       -2.27378541       0.66448787       1.10021744
H       -2.19778050      -1.72683952       1.50531531
H       -2.36972837      -1.96914561      -0.30879780
H       -0.54996494      -1.89270494       0.38784050
20
Frame=6 idx=001245 GeodesicLength=0.8652877394546736 rxn_smarts="[C:1]([C:2]([C:3]([C:4]([H:13])([H:14])[H:15])([C:5]([C:6]([H:18])([H:19])[H:20])([H:16])[H:17])[H:12])([H:10])[H:11])([H:7])([H:8])[H:9]>>[C:1](/[C:2](=[C:3](/[C:4]([H:13])([H:14])[H:15])[H:12])[H:10])([H:7])([H:8])[H:9].[C:5](=[C:6]([H:18])[H:19])([H:16])[H:17].[H:11][H:20]"
C        2.38202552      -0.53600828       0.42388179
C        1.10338137      -0.26335895      -0.33434486
C        0.21634732       0.75375191      -0.00448256
C        0.05568492       1.95523016      -0.90060802
C       -1.94529567       0.00142288       0.22392915
C       -2.03447919      -1.34935063       0.52807540
H        2.21028950      -0.44910666       1.49862934
H        2.75497890      -1.53930653       0.20631960
H        3.17680863       0.16353629       0.15454662
H        1.21844525      -0.42951365      -1.40778273
H        0.25792064      -1.60746277       0.04168368
H        0.27659140       1.04300883       1.04444750
H       -0.77663185       2.57795335      -0.56839557
H        0.94497622       2.59199573      -0.89688015
H       -0.09321380       1.65006022      -1.93943151
H       -2.12694812       0.30378185      -0.79993294
H       -2.39296704       0.69866368       0.92562366
H       -2.29856709      -1.64332326       1.53931622
H       -2.35559085      -2.02628236      -0.25960885
H       -0.57375606      -1.89569179       0.52501421
20
Frame=7 idx=001245 GeodesicLength=0.9865695224566017 rxn_smarts="[C:1]([C:2]([C:3]([C:4]([H:13])([H:14])[H:15])([C:5]([C:6]([H:18])([H:19])[H:20])([H:16])[H:17])[H:12])([H:10])[H:11])([H:7])([H:8])[H:9]>>[C:1](/[C:2](=[C:3](/[C:4]([H:13])([H:14])[H:15])[H:12])[H:10])([H:7])([H:8])[H:9].[C:5](=[C:6]([H:18])[H:19])([H:16])[H:17].[H:11][H:20]"
C        2.41381463      -0.51924583       0.35930263
C        1.09205386      -0.28344660      -0.33559458
C        0.20478257       0.73134589       0.01342466
C        0.07480303       1.97095779      -0.83475750
C       -1.96025186      -0.01623675       0.14701239
C       -2.06221410      -1.34384120       0.54816032
H        2.29790163      -0.41385744       1.43978446
H        2.79087746      -1.52010712       0.13682781
H        3.18259413       0.18635049       0.03580987
H        1.17014515      -0.44564560      -1.41356292
H        0.26280020      -1.63151345       0.15356532
H        0.27320140       0.98840766       1.07118315
H       -0.76049092       2.58376014      -0.49134591
H        0.96809794       2.59977879      -0.78214139
H       -0.04733885       1.71168246      -1.88934384
H       -2.06930300       0.20093251      -0.90879914
H       -2.49322501       0.71941874       0.74269656
H       -2.39592910      -1.55663162       1.55940009
H       -2.34129573      -2.07450985      -0.20742262
H       -0.60102342      -1.88759900       0.65580065
20
Frame=8 idx=001245 GeodesicLength=1.1057528934294514 rxn_smarts="[C:1]([C:2]([C:3]([C:4]([H:13])([H:14])[H:15])([C:5]([C:6]([H:18])([H:19])[H:20])([H:16])[H:17])[H:12])([H:10])[H:11])([H:7])([H:8])[H:9]>>[C:1](/[C:2](=[C:3](/[C:4]([H:13])([H:14])[H:15])[H:12])[H:10])([H:7])([H:8])[H:9].[C:5](=[C:6]([H:18])[H:19])([H:16])[H:17].[H:11][H:20]"
C        2.44044820      -0.50511733       0.29598713
C        1.08199484      -0.30188213      -0.33659106
C        0.19569112       0.71131572       0.03199150
C        0.08937266       1.98375231      -0.76976526
C       -1.96783100      -0.03516300       0.07379416
C       -2.08733425      -1.33374546       0.56608013
H        2.37770102      -0.38092966       1.37879650
H        2.81906332      -1.50449595       0.06864394
H        3.18306128       0.20361006      -0.07784844
H        1.12610873      -0.45718621      -1.41815006
H        0.26959233      -1.64629212       0.26786704
H        0.27502002       0.93838171       1.09680131
H       -0.74936036       2.58475291      -0.41359056
H        0.98456796       2.60463211      -0.67427826
H       -0.00984513       1.76665790      -1.83613973
H       -2.00416008       0.09765784      -1.00139728
H       -2.57668161       0.72593480       0.55474271
H       -2.49074385      -1.46891756       1.56548267
H       -2.32530617      -2.11393830      -0.15386950
H       -0.63135904      -1.86902764       0.78144306
20
Frame=9 idx=001245 GeodesicLength=1.2232530415175737 rxn_smarts="[C:1]([C:2]([C:3]([C:4]([H:13])([H:14])[H:15])([C:5]([C:6]([H:18])([H:19])[H:20])([H:16])[H:17])[H:12])([H:10])[H:11])([H:7])([H:8])[H:9]>>[C:1](/[C:2](=[C:3](/[C:4]([H:13])([H:14])[H:15])[H:12])[H:10])([H:7])([H:8])[H:9].[C:5](=[C:6]([H:18])[H:19])([H:16])[H:17].[H:11][H:20]"
C        2.46221164      -0.49364902       0.23524780
C        1.07355348      -0.31839759      -0.33831974
C        0.18863946       0.69299638       0.05057409
C        0.09904135       1.99426275      -0.70560920
C       -1.96882167      -0.05620923       0.00275937
C       -2.11009183      -1.31913318       0.58329877
H        2.44851151      -0.35221063       1.31758668
H        2.84081875      -1.49193384       0.00233962
H        3.17942588       0.21631263      -0.18312443
H        1.08822342      -0.46226420      -1.42296040
H        0.27746161      -1.65296234       0.37882264
H        0.28123598       0.89180160       1.12093304
H       -0.74393774       2.58079656      -0.33506458
H        0.99422712       2.60793431      -0.57224068
H        0.01876026       1.81666935      -1.78076443
H       -1.93314555      -0.00794989      -1.08008986
H       -2.63967350       0.72015563       0.36262535
H       -2.57786436      -1.37711220       1.56212227
H       -2.31401443      -2.14538101      -0.09512138
H       -0.66456138      -1.84372607       0.89698505
20
Frame=10 idx=001245 GeodesicLength=1.3400023596610107 rxn_smarts="[C:1]([C:2]([C:3]([C:4]([H:13])([H:14])[H:15])([C:5]([C:6]([H:18])([H:19])[H:20])([H:16])[H:17])[H:12])([H:10])[H:11])([H:7])([H:8])[H:9]>>[C:1](/[C:2](=[C:3](/[C:4]([H:13])([H:14])[H:15])[H:12])[H:10])([H:7])([H:8])[H:9].[C:5](=[C:6]([H:18])[H:19])([H:16])[H:17].[H:11][H:20]"
C        2.48005077      -0.48483198       0.17630696
C        1.06613163      -0.33345533      -0.34051167
C        0.18353950       0.67642293       0.06929849
C        0.10501479       2.00277827      -0.64309155
C       -1.96412706      -0.07774406      -0.06365723
C       -2.13089500      -1.30037564       0.59865545
H        2.51231312      -0.32795879       1.25603256
H        2.85687662      -1.48250283      -0.06290478
H        3.17246270       0.22501048      -0.28210072
H        1.05429413      -0.46293780      -1.42776113
H        0.28610036      -1.65186854       0.48855717
H        0.29264064       0.84954933       1.14357192
H       -0.74330851       2.57219524      -0.25766701
H        0.99867620       2.61021408      -0.47625871
H        0.04054636       1.86184830      -1.72463864
H       -1.85936522      -0.11193029      -1.14316559
H       -2.68669734       0.70063267       0.17157883
H       -2.66214743      -1.28644109       1.54648561
H       -2.30192960      -2.16840691      -0.03599149
H       -0.70017666      -1.81019805       1.00726154
20
Frame=11 idx=001245 GeodesicLength=1.45624517638508 rxn_smarts="[C:1]([C:2]([C:3]([C:4]([H:13])([H:14])[H:15])([C:5]([C:6]([H:18])([H:19])[H:20])([H:16])[H:17])[H:12])([H:10])[H:11])([H:7])([H:8])[H:9]>>[C:1](/[C:2](=[C:3](/[C:4]([H:13])([H:14])[H:15])[H:12])[H:10])([H:7])([H:8])[H:9].[C:5](=[C:6]([H:18])[H:19])([H:16])[H:17].[H:11][H:20]"
C        2.49467144      -0.47790849       0.12017758
C        1.06023898      -0.34699034      -0.34398468
C        0.17996615       0.66069391       0.08748115
C        0.10694197       2.00929971      -0.58214219
C       -1.95451192      -0.10088601      -0.12715327
C       -2.15046501      -1.27738606       0.61322187
H        2.56858797      -0.30911722       1.19595805
H        2.86926397      -1.47468823      -0.12702040
H        3.16339145       0.23199480      -0.37204986
H        1.02583025      -0.45822807      -1.43359277
H        0.29499531      -1.64553252       0.59197087
H        0.30792718       0.81007494       1.16429558
H       -0.74794799       2.55862030      -0.18157642
H        0.99752303       2.61195575      -0.38520950
H        0.05539956       1.90311848      -1.66826301
H       -1.78422380      -0.21634747      -1.19320592
H       -2.71447090       0.67018618      -0.01657041
H       -2.73906894      -1.19306003       1.52307138
H       -2.29593274      -2.18348960       0.02641232
H       -0.73811595      -1.77231003       1.10817962
20
Frame=12 idx=001245 GeodesicLength=1.5725547568827487 rxn_smarts="[C:1]([C:2]([C:3]([C:4]([H:13])([H:14])[H:15])([C:5]([C:6]([H:18])([H:19])[H:20])([H:16])[H:17])[H:12])([H:10])[H:11])([H:7])([H:8])[H:9]>>[C:1](/[C:2](=[C:3](/[C:4]([H:13])([H:14])[H:15])[H:12])[H:10])([H:7])([H:8])[H:9].[C:5](=[C:6]([H:18])[H:19])([H:16])[H:17].[H:11][H:20]"
C        2.50660885      -0.47296406       0.06579547
C        1.05517774      -0.35934988      -0.34832569
C        0.17783081       0.64602186       0.10534626
C        0.10623136       2.01421942      -0.52303575
C       -1.94103686      -0.12406063      -0.18587031
C       -2.16884840      -1.25079031       0.62588525
H        2.61935382      -0.29498895       1.13661663
H        2.87779518      -1.46891744      -0.19060989
H        3.15259342       0.23685779      -0.45599640
H        1.00037327      -0.45013388      -1.43986507
H        0.30402425      -1.63411090       0.69184086
H        0.32753349       0.77404631       1.18322203
H       -0.75669322       2.54072889      -0.10847277
H        0.99235611       2.61337400      -0.29825303
H        0.06621070       1.94094939      -1.61228181
H       -1.70992693      -0.31782502      -1.22955819
H       -2.72828025       0.62785675      -0.19810278
H       -2.81319900      -1.10255249       1.48890272
H       -2.28982948      -2.19091741       0.08819614
H       -0.77827485      -1.72744342       1.20456633
20
Frame=13 idx=001245 GeodesicLength=1.689253562793596 rxn_smarts="[C:1]([C:2]([C:3]([C:4]([H:13])([H:14])[H:15])([C:5]([C:6]([H:18])([H:19])[H:20])([H:16])[H:17])[H:12])([H:10])[H:11])([H:7])([H:8])[H:9]>>[C:1](/[C:2](=[C:3](/[C:4]([H:13])([H:14])[H:15])[H:12])[H:10])([H:7])([H:8])[H:9].[C:5](=[C:6]([H:18])[H:19])([H:16])[H:17].[H:11][H:20]"
C        2.51683436      -0.46875956       0.01366386
C        1.05163948      -0.37062090      -0.35425397
C        0.17681009       0.63120855       0.12247705
C        0.10220656       2.01703769      -0.46510590
C       -1.92390436      -0.14906940      -0.24232995
C       -2.18700117      -1.21985537       0.63761227
H        2.66466889      -0.28575468       1.07925345
H        2.88492403      -1.46304673      -0.25431109
H        3.14105054       0.24257203      -0.53200132
H        0.97928145      -0.43793370      -1.44738338
H        0.31305995      -1.62067550       0.78426411
H        0.34993544       0.73927433       1.20019378
H       -0.76984376       2.51791042      -0.03719480
H        0.98245558       2.61414881      -0.21422487
H        0.07193457       1.97576285      -1.55627790
H       -1.63642545      -0.42016377      -1.25500736
H       -2.72554687       0.57644902      -0.37358685
H       -2.87979357      -1.00833499       1.44872340
H       -2.29149271      -2.19069837       0.15261803
H       -0.82079307      -1.67945076       1.29287142
20
Frame=14 idx=001245 GeodesicLength=1.80663573024029 rxn_smarts="[C:1]([C:2]([C:3]([C:4]([H:13])([H:14])[H:15])([C:5]([C:6]([H:18])([H:19])[H:20])([H:16])[H:17])[H:12])([H:10])[H:11])([H:7])([H:8])[H:9]>>[C:1](/[C:2](=[C:3](/[C:4]([H:13])([H:14])[H:15])[H:12])[H:10])([H:7])([H:8])[H:9].[C:5](=[C:6]([H:18])[H:19])([H:16])[H:17].[H:11][H:20]"
C        2.52543621      -0.46569148      -0.03738227
C        1.04885358      -0.38101082      -0.36126036
C        0.17690578       0.61676413       0.13919141
C        0.09637131       2.01829944      -0.40843759
C       -1.90411139      -0.17425359      -0.29474562
C       -2.20465311      -1.18546770       0.64718646
H        2.70617594      -0.28064245       1.02266058
H        2.88966952      -1.45799259      -0.31856723
H        3.12874060       0.24786132      -0.60326639
H        0.96011146      -0.42337969      -1.45538086
H        0.32208450      -1.60460412       0.87277658
H        0.37563652       0.70667443       1.21537402
H       -0.78599874       2.49118922       0.03092481
H        0.96947048       2.61435351      -0.13220727
H        0.07554594       2.00816452      -1.50050014
H       -1.56522151      -0.51985416      -1.26886523
H       -2.71167470       0.51474377      -0.54023890
H       -2.94374821      -0.91713523       1.39883437
H       -2.29366865      -2.18349196       0.21612691
H       -0.86592553      -1.62452656       1.37777674
20
Frame=15 idx=001245 GeodesicLength=1.925028342799567 rxn_smarts="[C:1]([C:2]([C:3]([C:4]([H:13])([H:14])[H:15])([C:5]([C:6]([H:18])([H:19])[H:20])([H:16])[H:17])[H:12])([H:10])[H:11])([H:7])([H:8])[H:9]>>[C:1](/[C:2](=[C:3](/[C:4]([H:13])([H:14])[H:15])[H:12])[H:10])([H:7])([H:8])[H:9].[C:5](=[C:6]([H:18])[H:19])([H:16])[H:17].[H:11][H:20]"
C        2.53331521      -0.46254937      -0.08730609
C        1.04743464      -0.39070024      -0.36976635
C        0.17799011       0.60160068       0.15539514
C        0.08797225       2.01727426      -0.35227363
C       -1.88139885      -0.20143360      -0.34512128
C       -2.22262911      -1.14672751       0.65500050
H        2.74438554      -0.27922411       0.96731193
H        2.89408171      -1.45179404      -0.38418142
H        3.11624042       0.25523816      -0.66894988
H        0.94361345      -0.40624934      -1.46424386
H        0.33119839      -1.58829662       0.95538627
H        0.40362504       0.67441310       1.22882252
H       -0.80535985       2.45972760       0.09747029
H        0.95268163       2.61332756      -0.05153491
H        0.07547215       2.03803262      -1.44425452
H       -1.49569877      -0.62042537      -1.27271405
H       -2.68465902       0.44463611      -0.69925788
H       -3.00139932      -0.82272315       1.34238920
H       -2.30281092      -2.16877482       0.28090943
H       -0.91405471      -1.56535191       1.45691860
20
Frame=16 idx=001245 GeodesicLength=2.0445337666512455 rxn_smarts="[C:1]([C:2]([C:3]([C:4]([H:13])([H:14])[H:15])([C:5]([C:6]([H:18])([H:19])[H:20])([H:16])[H:17])[H:12])([H:10])[H:11])([H:7])([H:8])[H:9]>>[C:1](/[C:2](=[C:3](/[C:4]([H:13])([H:14])[H:15])[H:12])[H:10])([H:7])([H:8])[H:9].[C:5](=[C:6]([H:18])[H:19])([H:16])[H:17].[H:11][H:20]"
C        2.54016413      -0.45998061      -0.13702367
C        1.04663805      -0.39972087      -0.37934837
C        0.18009601       0.58635605       0.17136821
C        0.07840579       2.01460092      -0.29655351
C       -1.85667966      -0.22898150      -0.39206893
C       -2.24041485      -1.10461514       0.65993030
H        2.78021024      -0.28116825       0.91204866
H        2.89671705      -1.44561957      -0.45133010
H        3.10328647       0.26302370      -0.73152980
H        0.92779673      -0.38773165      -1.47333103
H        0.34035291      -1.57066693       1.03509973
H        0.43431060       0.64339142       1.24065876
H       -0.82653092       2.42467224       0.16155852
H        0.93360652       2.61112125       0.02868693
H        0.07434560       2.06611937      -1.38752486
H       -1.42886585      -0.71838380      -1.26609913
H       -2.64910822       0.36478064      -0.84859590
H       -3.05672993      -0.73217874       1.27603156
H       -2.31193612      -2.14740851       0.34436960
H       -0.96566454      -1.49761004       1.53365302
