11
Frame=0 idx=000501 GeodesicLength=0.0 rxn_smarts="[O:1]=[C:2]1[C:3]([H:6])([H:7])[C:4]([H:8])([H:9])[C:5]1([H:10])[H:11]>>[O-:1][C:2]([C:3]([C:4]([H:8])([H:9])[H:11])([H:6])[H:7])=[C+:5][H:10]"
O       -2.39924347       0.19904799       0.20336575
C       -1.22523822      -0.03263165       0.00957458
C       -0.07927896       0.92444733      -0.20290893
C        1.12915439       0.01389219      -0.00209552
C       -0.76746479      -1.39153877      -0.13619215
H       -0.12995232       1.32640360      -1.21639971
H       -0.12379258       1.76185940       0.49181839
H        1.46982694      -0.02891844       1.02984924
H        1.96949978       0.21431963      -0.66495462
H       -0.67318121      -1.94597099       0.80450859
H        0.82967041      -1.04091025      -0.31656563
11
Frame=1 idx=000501 GeodesicLength=0.06320925488015455 rxn_smarts="[O:1]=[C:2]1[C:3]([H:6])([H:7])[C:4]([H:8])([H:9])[C:5]1([H:10])[H:11]>>[O-:1][C:2]([C:3]([C:4]([H:8])([H:9])[H:11])([H:6])[H:7])=[C+:5][H:10]"
O       -2.40170649       0.18500858       0.19085792
C       -1.22238796      -0.02803525       0.00737182
C       -0.07736744       0.92934924      -0.20197291
C        1.12558175       0.00966488      -0.00378859
C       -0.75954431      -1.38615324      -0.11964891
H       -0.12844486       1.33430652      -1.21427507
H       -0.12334160       1.76313367       0.49709650
H        1.46740987      -0.03514487       1.02793691
H        1.96963427       0.22109831      -0.65864711
H       -0.67975278      -1.93867047       0.82281810
H        0.82991956      -1.05455736      -0.34774866
11
Frame=2 idx=000501 GeodesicLength=0.12639492721847212 rxn_smarts="[O:1]=[C:2]1[C:3]([H:6])([H:7])[C:4]([H:8])([H:9])[C:5]1([H:10])[H:11]>>[O-:1][C:2]([C:3]([C:4]([H:8])([H:9])[H:11])([H:6])[H:7])=[C+:5][H:10]"
O       -2.40386969       0.17053469       0.17774076
C       -1.21948226      -0.02353361       0.00519250
C       -0.07542516       0.93430283      -0.20076581
C        1.12205669       0.00551508      -0.00541190
C       -0.75124666      -1.38052348      -0.10315035
H       -0.12686904       1.34240082      -1.21180732
H       -0.12297716       1.76433964       0.50271461
H        1.46550011      -0.04049936       1.02597510
H        1.96934500       0.22677449      -0.65296693
H       -0.68635928      -1.93135318       0.84074526
H        0.82932745      -1.06795791      -0.37826594
11
Frame=3 idx=000501 GeodesicLength=0.1895920973507585 rxn_smarts="[O:1]=[C:2]1[C:3]([H:6])([H:7])[C:4]([H:8])([H:9])[C:5]1([H:10])[H:11]>>[O-:1][C:2]([C:3]([C:4]([H:8])([H:9])[H:11])([H:6])[H:7])=[C+:5][H:10]"
O       -2.40569611       0.15564009       0.16408590
C       -1.21651429      -0.01911475       0.00309818
C       -0.07344903       0.93932021      -0.19930824
C        1.11859119       0.00147733      -0.00693496
C       -0.74261155      -1.37466328      -0.08672477
H       -0.12523202       1.35065114      -1.20904930
H       -0.12269358       1.76554188       0.50861054
H        1.46406438      -0.04500012       1.02401723
H        1.96867691       0.23143427      -0.64791608
H       -0.69302675      -1.92409964       0.85822381
H        0.82789085      -1.08118714      -0.40810231
11
Frame=4 idx=000501 GeodesicLength=0.2527645743599925 rxn_smarts="[O:1]=[C:2]1[C:3]([H:6])([H:7])[C:4]([H:8])([H:9])[C:5]1([H:10])[H:11]>>[O-:1][C:2]([C:3]([C:4]([H:8])([H:9])[H:11])([H:6])[H:7])=[C+:5][H:10]"
O       -2.40715112       0.14034149       0.14992702
C       -1.21347838      -0.01476179       0.00114540
C       -0.07144032       0.94439571      -0.19761193
C        1.11519455      -0.00241955      -0.00833434
C       -0.73367302      -1.36856315      -0.07038561
H       -0.12355232       1.35900666      -1.20602026
H       -0.12248567       1.76676083       0.51472760
H        1.46308166      -0.04867328       1.02208667
H        1.96766282       0.23515394      -0.64348514
H       -0.69976228      -1.91694676       0.87519225
H        0.82560407      -1.09429409      -0.43724166
11
Frame=5 idx=000501 GeodesicLength=0.3159345240342214 rxn_smarts="[O:1]=[C:2]1[C:3]([H:6])([H:7])[C:4]([H:8])([H:9])[C:5]1([H:10])[H:11]>>[O-:1][C:2]([C:3]([C:4]([H:8])([H:9])[H:11])([H:6])[H:7])=[C+:5][H:10]"
O       -2.40818843       0.12466617       0.13540895
C       -1.21037364      -0.01046285      -0.00062256
C       -0.06940120       0.94952765      -0.19571025
C        1.11187077      -0.00615002      -0.00956344
C       -0.72446865      -1.36221380      -0.05418007
H       -0.12184037       1.36739891      -1.20278240
H       -0.12235056       1.76804920       0.52097381
H        1.46249503      -0.05154703       1.02024229
H        1.96634595       0.23801213      -0.63962470
H       -0.70655700      -1.90994324       0.89154465
H        0.82246809      -1.10733712      -0.46568628
11
Frame=6 idx=000501 GeodesicLength=0.3790949624315386 rxn_smarts="[O:1]=[C:2]1[C:3]([H:6])([H:7])[C:4]([H:8])([H:9])[C:5]1([H:10])[H:11]>>[O-:1][C:2]([C:3]([C:4]([H:8])([H:9])[H:11])([H:6])[H:7])=[C+:5][H:10]"
O       -2.40877674       0.10863662       0.12058484
C       -1.20719919      -0.00619987      -0.00216027
C       -0.06733225       0.95472168      -0.19362165
C        1.10862604      -0.00968869      -0.01060071
C       -0.71503023      -1.35562314      -0.03812477
H       -0.12010832       1.37579354      -1.19937261
H       -0.12228017       1.76944658       0.52729687
H        1.46227698      -0.05364818       1.01851257
H        1.96475670       0.24008124      -0.63630976
H       -0.71341069      -1.90314968       0.90722814
H        0.81847787      -1.12037011      -0.49343264
11
Frame=7 idx=000501 GeodesicLength=0.4422453957915864 rxn_smarts="[O:1]=[C:2]1[C:3]([H:6])([H:7])[C:4]([H:8])([H:9])[C:5]1([H:10])[H:11]>>[O-:1][C:2]([C:3]([C:4]([H:8])([H:9])[H:11])([H:6])[H:7])=[C+:5][H:10]"
O       -2.40888361       0.09227602       0.10552657
C       -1.20395771      -0.00195959      -0.00344192
C       -0.06523555       0.95997780      -0.19136681
C        1.10546366      -0.01301672      -0.01142008
C       -0.70538360      -1.34879281      -0.02223457
H       -0.11836368       1.38415271      -1.19582660
H       -0.12227090       1.77098333       0.53364345
H        1.46239217      -0.05500864       1.01692702
H        1.96292499       0.24143028      -0.63350144
H       -0.72031164      -1.89660242       0.92219083
H        0.81362586      -1.13343996      -0.52049645
11
Frame=8 idx=000501 GeodesicLength=0.5053959811083 rxn_smarts="[O:1]=[C:2]1[C:3]([H:6])([H:7])[C:4]([H:8])([H:9])[C:5]1([H:10])[H:11]>>[O-:1][C:2]([C:3]([C:4]([H:8])([H:9])[H:11])([H:6])[H:7])=[C+:5][H:10]"
O       -2.40848261       0.07560902       0.09028684
C       -1.20065307       0.00227016      -0.00444523
C       -0.06311347       0.96530102      -0.18896404
C        1.10238830      -0.01611872      -0.01199831
C       -0.69555307      -1.34173263      -0.00651872
H       -0.11661586       1.39245221      -1.19218046
H       -0.12231822       1.77269432       0.53997271
H        1.46281513      -0.05565978       1.01551501
H        1.96087574       0.24212360      -0.63116489
H       -0.72724423      -1.89034203       0.93639500
H        0.80790136      -1.14659715      -0.54689791
11
Frame=9 idx=000501 GeodesicLength=0.5685143752119147 rxn_smarts="[O:1]=[C:2]1[C:3]([H:6])([H:7])[C:4]([H:8])([H:9])[C:5]1([H:10])[H:11]>>[O-:1][C:2]([C:3]([C:4]([H:8])([H:9])[H:11])([H:6])[H:7])=[C+:5][H:10]"
O       -2.40754093       0.05866578       0.07496693
C       -1.19728733       0.00650500      -0.00514586
C       -0.06096812       0.97068336      -0.18643712
C        1.09939942      -0.01897128      -0.01231697
C       -0.68556002      -1.33443191       0.00899861
H       -0.11486441       1.40064033      -1.18846322
H       -0.12242262       1.77459156       0.54622128
H        1.46349779      -0.05562123       1.01428930
H        1.95863809       0.24221823      -0.62924385
H       -0.73419732      -1.88440475       0.94976671
H        0.80130545      -1.15987510      -0.57263580
11
Frame=10 idx=000501 GeodesicLength=0.6316414508870718 rxn_smarts="[O:1]=[C:2]1[C:3]([H:6])([H:7])[C:4]([H:8])([H:9])[C:5]1([H:10])[H:11]>>[O-:1][C:2]([C:3]([C:4]([H:8])([H:9])[H:11])([H:6])[H:7])=[C+:5][H:10]"
O       -2.40604217       0.04145775       0.05950798
C       -1.19386509       0.01074803      -0.00554684
C       -0.05880253       0.97613875      -0.18378375
C        1.09650282      -0.02157208      -0.01236890
C       -0.67541161      -1.32691896       0.02435401
H       -0.11311442       1.40874941      -1.18468403
H       -0.12258655       1.77669983       0.55241065
H        1.46444776      -0.05492829       1.01326485
H        1.95621577       0.24176453      -0.62774695
H       -0.74114960      -1.87880430       0.96234780
H        0.79380562      -1.17333467      -0.59775481
11
Frame=11 idx=000501 GeodesicLength=0.69476073484876 rxn_smarts="[O:1]=[C:2]1[C:3]([H:6])([H:7])[C:4]([H:8])([H:9])[C:5]1([H:10])[H:11]>>[O-:1][C:2]([C:3]([C:4]([H:8])([H:9])[H:11])([H:6])[H:7])=[C+:5][H:10]"
O       -2.40397677       0.02397322       0.04382174
C       -1.19039756       0.01499894      -0.00566448
C       -0.05661937       0.98165696      -0.18099097
C        1.09370806      -0.02391519      -0.01215746
C       -0.66511857      -1.31918478       0.03959389
H       -0.11136761       1.41678956      -1.18081138
H       -0.12281436       1.77897991       0.55857099
H        1.46568552      -0.05361425       1.01241528
H        1.95361627       0.24080336      -0.62667257
H       -0.74807384      -1.87348351       0.97418972
H        0.78535824      -1.18700421      -0.62229477
11
Frame=12 idx=000501 GeodesicLength=0.757895584316602 rxn_smarts="[O:1]=[C:2]1[C:3]([H:6])([H:7])[C:4]([H:8])([H:9])[C:5]1([H:10])[H:11]>>[O-:1][C:2]([C:3]([C:4]([H:8])([H:9])[H:11])([H:6])[H:7])=[C+:5][H:10]"
O       -2.40129291       0.00629219       0.02821772
C       -1.18687900       0.01927418      -0.00549878
C       -0.05441985       0.98725508      -0.17812509
C        1.09100595      -0.02597448      -0.01163272
C       -0.65469629      -1.31125565       0.05462347
H       -0.10962106       1.42469426      -1.17695236
H       -0.12310045       1.78153091       0.56456776
H        1.46711301      -0.05167457       1.01182012
H        1.95087284       0.23938753      -0.62589810
H       -0.75495342      -1.86859043       0.98511568
H        0.77597119      -1.20093903      -0.64623770
11
Frame=13 idx=000501 GeodesicLength=0.8210072444955976 rxn_smarts="[O:1]=[C:2]1[C:3]([H:6])([H:7])[C:4]([H:8])([H:9])[C:5]1([H:10])[H:11]>>[O-:1][C:2]([C:3]([C:4]([H:8])([H:9])[H:11])([H:6])[H:7])=[C+:5][H:10]"
O       -2.39797623      -0.01160928       0.01255906
C       -1.18331443       0.02357176      -0.00503317
C       -0.05220462       0.99291649      -0.17516335
C        1.08840450      -0.02774563      -0.01080640
C       -0.64414958      -1.30311076       0.06950213
H       -0.10786538       1.43247519      -1.17307065
H       -0.12345363       1.78429528       0.57044660
H        1.46874518      -0.04914342       1.01144596
H        1.94798727       0.23755447      -0.62544700
H       -0.76176792      -1.86405496       0.99519488
H        0.76559484      -1.21514914      -0.66962805
11
Frame=14 idx=000501 GeodesicLength=0.8841309527827932 rxn_smarts="[O:1]=[C:2]1[C:3]([H:6])([H:7])[C:4]([H:8])([H:9])[C:5]1([H:10])[H:11]>>[O-:1][C:2]([C:3]([C:4]([H:8])([H:9])[H:11])([H:6])[H:7])=[C+:5][H:10]"
O       -2.39402010      -0.02966893      -0.00302215
C       -1.17971240       0.02790098      -0.00429048
C       -0.04998045       0.99865869      -0.17213823
C        1.08591116      -0.02921662      -0.00965019
C       -0.63348612      -1.29477963       0.08419170
H       -0.10611285       1.44012015      -1.16922024
H       -0.12387742       1.78733268       0.57615754
H        1.47056191      -0.04602297       1.01133961
H        1.94498373       0.23533692      -0.62525058
H       -0.76848105      -1.85995748       1.00435034
H        0.75421359      -1.22970379      -0.69246733
11
Frame=15 idx=000501 GeodesicLength=0.9472571357215245 rxn_smarts="[O:1]=[C:2]1[C:3]([H:6])([H:7])[C:4]([H:8])([H:9])[C:5]1([H:10])[H:11]>>[O-:1][C:2]([C:3]([C:4]([H:8])([H:9])[H:11])([H:6])[H:7])=[C+:5][H:10]"
O       -2.38940680      -0.04784809      -0.01841723
C       -1.17607222       0.03226262      -0.00328898
C       -0.04774816       1.00447888      -0.16907381
C        1.08352783      -0.03037424      -0.00814426
C       -0.62271074      -1.28626551       0.09866901
H       -0.10435164       1.44760481      -1.16543391
H       -0.12438082       1.79065296       0.58165981
H        1.47252355      -0.04231958       1.01152550
H        1.94188074       0.23277082      -0.62525031
H       -0.77506283      -1.85632798       1.01252267
H        0.74180109      -1.24463469      -0.71476850
11
Frame=16 idx=000501 GeodesicLength=1.010384370979875 rxn_smarts="[O:1]=[C:2]1[C:3]([H:6])([H:7])[C:4]([H:8])([H:9])[C:5]1([H:10])[H:11]>>[O-:1][C:2]([C:3]([C:4]([H:8])([H:9])[H:11])([H:6])[H:7])=[C+:5][H:10]"
O       -2.38413001      -0.06610227      -0.03352200
C       -1.17239374       0.03665732      -0.00204856
C       -0.04550920       1.01037817      -0.16599390
C        1.08125916      -0.03120613      -0.00626836
C       -0.61182724      -1.27757789       0.11290956
H       -0.10257364       1.45491060      -1.16174582
H       -0.12497275       1.79427250       0.58691559
H        1.47459762      -0.03803746       1.01203178
H        1.93869816       0.22988828      -0.62538711
H       -0.78147620      -1.85320276       1.01965268
H        0.72832783      -1.25998036      -0.73654384
