10
Frame=0 idx=001793 GeodesicLength=0.0 rxn_smarts="[O:1]([c:2]1[c:3]([H:8])[c:4]([H:9])[n:5][n:6]1[H:10])[H:7]>>[O:1]([C:2][N:6]([N:5]1[C:3]([H:8])=[C:4]1[H:9])[H:10])[H:7]"
O       -2.20370377      -0.35423024       0.61532572
C       -1.09058672       0.17526600       0.06713546
C        1.03324720       1.00304400       0.27126546
C        1.75091662      -0.01505068      -0.01944383
N        0.85461206      -0.45991028      -1.02692747
N       -0.41415837      -0.72675042      -0.59987195
H       -2.72872550       0.37273360       0.95264226
H        0.87831165       2.03821945       0.49292762
H        2.73117628      -0.43557995       0.17366513
H       -0.81108943      -1.59774149      -0.92671840
10
Frame=1 idx=001793 GeodesicLength=0.0529327166682104 rxn_smarts="[O:1]([c:2]1[c:3]([H:8])[c:4]([H:9])[n:5][n:6]1[H:10])[H:7]>>[O:1]([C:2][N:6]([N:5]1[C:3]([H:8])=[C:4]1[H:9])[H:10])[H:7]"
O       -2.20880006      -0.34879965       0.60290419
C       -1.07233049       0.16399220       0.08856655
C        1.01446688       0.99861269       0.26378608
C        1.74612808      -0.01809433      -0.01187481
N        0.85903562      -0.46059638      -1.02602939
N       -0.40919570      -0.73601865      -0.59637949
H       -2.71097579       0.38072939       0.96835360
H        0.87089771       2.03741009       0.47769308
H        2.72933236      -0.42802982       0.18538159
H       -0.81855860      -1.58920554      -0.95240139
10
Frame=2 idx=001793 GeodesicLength=0.10592098330177083 rxn_smarts="[O:1]([c:2]1[c:3]([H:8])[c:4]([H:9])[n:5][n:6]1[H:10])[H:7]>>[O:1]([C:2][N:6]([N:5]1[C:3]([H:8])=[C:4]1[H:9])[H:10])[H:7]"
O       -2.21373210      -0.34153312       0.59002781
C       -1.05418979       0.15175161       0.11008432
C        0.99593285       0.99380766       0.25645382
C        1.74165365      -0.02083695      -0.00511032
N        0.86316724      -0.46117097      -1.02521432
N       -0.40403385      -0.74603017      -0.59213047
H       -2.69367092       0.38876343       0.98285153
H        0.86262877       2.03563944       0.46388949
H        2.72780756      -0.42008519       0.19580363
H       -0.82556340      -1.58030574      -0.97665548
10
Frame=3 idx=001793 GeodesicLength=0.15894453166772488 rxn_smarts="[O:1]([c:2]1[c:3]([H:8])[c:4]([H:9])[n:5][n:6]1[H:10])[H:7]>>[O:1]([C:2][N:6]([N:5]1[C:3]([H:8])=[C:4]1[H:9])[H:10])[H:7]"
O       -2.21854900      -0.33239637       0.57680191
C       -1.03597472       0.13820923       0.13248742
C        0.97770650       0.98843193       0.24965161
C        1.73763951      -0.02326453       0.00050179
N        0.86675689      -0.46135998      -1.02463543
N       -0.39866610      -0.75687345      -0.58685165
H       -2.67765574       0.39751863       0.99453628
H        0.85360792       2.03266916       0.45245365
H        2.72706513      -0.41140967       0.20367110
H       -0.83193039      -1.57152495      -0.99861668
10
Frame=4 idx=001793 GeodesicLength=0.2120255213137298 rxn_smarts="[O:1]([c:2]1[c:3]([H:8])[c:4]([H:9])[n:5][n:6]1[H:10])[H:7]>>[O:1]([C:2][N:6]([N:5]1[C:3]([H:8])=[C:4]1[H:9])[H:10])[H:7]"
O       -2.22292926      -0.32149752       0.56331007
C       -1.01773002       0.12337470       0.15576300
C        0.95966713       0.98241898       0.24365328
C        1.73398009      -0.02541936       0.00499499
N        0.86973799      -0.46086740      -1.02446640
N       -0.39319594      -0.76822924      -0.58097765
H       -2.66285159       0.40711042       1.00337520
H        0.84383582       2.02857366       0.44328006
H        2.72690876      -0.40224188       0.20905757
H       -0.83742297      -1.56322236      -1.01799013
10
Frame=5 idx=001793 GeodesicLength=0.26526729998922105 rxn_smarts="[O:1]([c:2]1[c:3]([H:8])[c:4]([H:9])[n:5][n:6]1[H:10])[H:7]>>[O:1]([C:2][N:6]([N:5]1[C:3]([H:8])=[C:4]1[H:9])[H:10])[H:7]"
O       -2.22552118      -0.30963521       0.55130529
C       -0.99987114       0.10794507       0.17835034
C        0.94151191       0.97592093       0.23816204
C        1.73026511      -0.02742451       0.00870741
N        0.87228669      -0.45967458      -1.02494155
N       -0.38784150      -0.77956801      -0.57567686
H       -2.64865238       0.41770809       1.00958866
H        0.83321854       2.02350777       0.43637840
H        2.72664154      -0.39300573       0.21312688
H       -0.84203758      -1.55577381      -1.03500060
10
Frame=6 idx=001793 GeodesicLength=0.31868686758171855 rxn_smarts="[O:1]([c:2]1[c:3]([H:8])[c:4]([H:9])[n:5][n:6]1[H:10])[H:7]>>[O:1]([C:2][N:6]([N:5]1[C:3]([H:8])=[C:4]1[H:9])[H:10])[H:7]"
O       -2.22673470      -0.29687107       0.54016014
C       -0.98229340       0.09170363       0.20066528
C        0.92323526       0.96893903       0.23331569
C        1.72652715      -0.02927161       0.01176703
N        0.87441282      -0.45779573      -1.02590861
N       -0.38254908      -0.79094295      -0.57077349
H       -2.63473737       0.42934562       1.01371854
H        0.82173879       2.01763162       0.43118528
H        2.72630338      -0.38368046       0.21601034
H       -0.84590284      -1.54905809      -1.05014019
10
Frame=7 idx=001793 GeodesicLength=0.37235148814067404 rxn_smarts="[O:1]([c:2]1[c:3]([H:8])[c:4]([H:9])[n:5][n:6]1[H:10])[H:7]>>[O:1]([C:2][N:6]([N:5]1[C:3]([H:8])=[C:4]1[H:9])[H:10])[H:7]"
O       -2.22640960      -0.28349889       0.53015833
C       -0.96510739       0.07485369       0.22224814
C        0.90473920       0.96154562       0.22895146
C        1.72264831      -0.03098599       0.01430621
N        0.87617771      -0.45531505      -1.02735844
N       -0.37735047      -0.80228879      -0.56649448
H       -2.62070398       0.44218515       1.01601491
H        0.80936525       2.01099697       0.42775538
H        2.72574866      -0.37425568       0.21804907
H       -0.84910768      -1.54323703      -1.06363056
10
Frame=8 idx=001793 GeodesicLength=0.4262968662600678 rxn_smarts="[O:1]([c:2]1[c:3]([H:8])[c:4]([H:9])[n:5][n:6]1[H:10])[H:7]>>[O:1]([C:2][N:6]([N:5]1[C:3]([H:8])=[C:4]1[H:9])[H:10])[H:7]"
O       -2.22464577      -0.26968398       0.52117805
C       -0.94835872       0.05751355       0.24295840
C        0.88599510       0.95378351       0.22503116
C        1.71857382      -0.03261753       0.01657959
N        0.87767137      -0.45236733      -1.02911769
N       -0.37223861      -0.81360181      -0.56283187
H       -2.60619294       0.45600189       1.01712049
H        0.79612677       2.00377583       0.42545525
H        2.72489270      -0.36476955       0.21967254
H       -0.85182372      -1.53803458      -1.07604592
10
Frame=9 idx=001793 GeodesicLength=0.4805680655596613 rxn_smarts="[O:1]([c:2]1[c:3]([H:8])[c:4]([H:9])[n:5][n:6]1[H:10])[H:7]>>[O:1]([C:2][N:6]([N:5]1[C:3]([H:8])=[C:4]1[H:9])[H:10])[H:7]"
O       -2.22151087      -0.25562645       0.51336543
C       -0.93193935       0.03946131       0.26317150
C        0.86700291       0.94559572       0.22166551
C        1.71435812      -0.03412264       0.01842346
N        0.87877108      -0.44886062      -1.03122376
N       -0.36718791      -0.82497341      -0.55961771
H       -2.59132113       0.47137068       1.01624789
H        0.78199805       1.99583709       0.42479856
H        2.72390713      -0.35501194       0.22040425
H       -0.85407803      -1.53366974      -1.08723513
10
Frame=10 idx=001793 GeodesicLength=0.5352284347209043 rxn_smarts="[O:1]([c:2]1[c:3]([H:8])[c:4]([H:9])[n:5][n:6]1[H:10])[H:7]>>[O:1]([C:2][N:6]([N:5]1[C:3]([H:8])=[C:4]1[H:9])[H:10])[H:7]"
O       -2.21713318      -0.24133577       0.50649528
C       -0.91584161       0.02066076       0.28290340
C        0.84771194       0.93698890       0.21883140
C        1.70997471      -0.03550322       0.01996187
N        0.87950688      -0.44489458      -1.03355653
N       -0.36217352      -0.83648116      -0.55678478
H       -2.57573284       0.48821504       1.01379462
H        0.76692277       1.98725019       0.42544632
H        2.72275239      -0.34494075       0.22046875
H       -0.85598754      -1.52995939      -1.09756034
10
Frame=11 idx=001793 GeodesicLength=0.5903652072196681 rxn_smarts="[O:1]([c:2]1[c:3]([H:8])[c:4]([H:9])[n:5][n:6]1[H:10])[H:7]>>[O:1]([C:2][N:6]([N:5]1[C:3]([H:8])=[C:4]1[H:9])[H:10])[H:7]"
O       -2.21157297      -0.22682327       0.50049223
C       -0.90001853       0.00096732       0.30228385
C        0.82806281       0.92793694       0.21654158
C        1.70540887      -0.03673563       0.02119353
N        0.87984473      -0.44049020      -1.03608259
N       -0.35717898      -0.84820765      -0.55428377
H       -2.55917530       0.50673557       1.00967591
H        0.75080156       1.97797312       0.42747603
H        2.72144244      -0.33443192       0.21982532
H       -0.85761462      -1.52692427      -1.10712208
10
Frame=12 idx=001793 GeodesicLength=0.645786712644671 rxn_smarts="[O:1]([c:2]1[c:3]([H:8])[c:4]([H:9])[n:5][n:6]1[H:10])[H:7]>>[O:1]([C:2][N:6]([N:5]1[C:3]([H:8])=[C:4]1[H:9])[H:10])[H:7]"
O       -2.20465107      -0.21308309       0.49612442
C       -0.88531434      -0.01693534       0.31832496
C        0.80834645       0.91917825       0.21349650
C        1.70027115      -0.03817238       0.02316659
N        0.88054770      -0.43630123      -1.03853349
N       -0.35250621      -0.85912419      -0.55317372
H       -2.54132886       0.52398930       1.00758065
H        0.73476240       1.96902933       0.42847176
H        2.71894610      -0.32474654       0.22145143
H       -0.85907333      -1.52383411      -1.11690910
10
Frame=13 idx=001793 GeodesicLength=0.701393555309144 rxn_smarts="[O:1]([c:2]1[c:3]([H:8])[c:4]([H:9])[n:5][n:6]1[H:10])[H:7]>>[O:1]([C:2][N:6]([N:5]1[C:3]([H:8])=[C:4]1[H:9])[H:10])[H:7]"
O       -2.19667121      -0.20040598       0.49349571
C       -0.87154894      -0.03311130       0.33162543
C        0.78876488       0.91073564       0.20976539
C        1.69473064      -0.03977900       0.02566959
N        0.88154112      -0.43221994      -1.04093755
N       -0.34812745      -0.86921572      -0.55316506
H       -2.52284447       0.54013705       1.00674842
H        0.71904501       1.96041446       0.42865337
H        2.71549521      -0.31589507       0.22488464
H       -0.86038479      -1.52066014      -1.12673995
10
Frame=14 idx=001793 GeodesicLength=0.7571637067312983 rxn_smarts="[O:1]([c:2]1[c:3]([H:8])[c:4]([H:9])[n:5][n:6]1[H:10])[H:7]>>[O:1]([C:2][N:6]([N:5]1[C:3]([H:8])=[C:4]1[H:9])[H:10])[H:7]"
O       -2.18804270      -0.18838569       0.49188127
C       -0.85851397      -0.04797079       0.34291162
C        0.76936987       0.90253670       0.20550353
C        1.68892608      -0.04149073       0.02851908
N        0.88273795      -0.42819439      -1.04328226
N       -0.34396453      -0.87866265      -0.55392800
H       -2.50392109       0.55530362       1.00702608
H        0.70359487       1.95204124       0.42821316
H        2.71134051      -0.30769852       0.22962310
H       -0.86152700      -1.51747880      -1.13646758
10
Frame=15 idx=001793 GeodesicLength=0.8130500918236919 rxn_smarts="[O:1]([c:2]1[c:3]([H:8])[c:4]([H:9])[n:5][n:6]1[H:10])[H:7]>>[O:1]([C:2][N:6]([N:5]1[C:3]([H:8])=[C:4]1[H:9])[H:10])[H:7]"
O       -2.17891227      -0.17711931       0.49128617
C       -0.84610515      -0.06159969       0.35251186
C        0.75023880       0.89458580       0.20075267
C        1.68293347      -0.04328661       0.03161696
N        0.88410364      -0.42418440      -1.04557569
N       -0.33999952      -0.88748114      -0.55532047
H       -2.48482096       0.56959193       1.00807791
H        0.68849168       1.94390310       0.42724460
H        2.70659227      -0.30014137       0.23545130
H       -0.86252196      -1.51426832      -1.14604531
10
Frame=16 idx=001793 GeodesicLength=0.8690598676924228 rxn_smarts="[O:1]([c:2]1[c:3]([H:8])[c:4]([H:9])[n:5][n:6]1[H:10])[H:7]>>[O:1]([C:2][N:6]([N:5]1[C:3]([H:8])=[C:4]1[H:9])[H:10])[H:7]"
O       -2.16944362      -0.16639174       0.49138694
C       -0.83419837      -0.07428797       0.36084449
C        0.73136496       0.88682385       0.19561798
C        1.67681624      -0.04512479       0.03484919
N        0.88557369      -0.42015486      -1.04782401
N       -0.33618921      -0.89579587      -0.55717315
H       -2.46560699       0.58319620       1.00969217
H        0.67366006       1.93591488       0.42595227
H        2.70138997      -0.29307742       0.24205156
H       -0.86336673      -1.51110229      -1.15539744
