14
Frame=0 idx=005249 GeodesicLength=0.0 rxn_smarts="[C:1]1([H:7])([H:8])[C@:2]2([H:9])[C@:3]3([H:10])[C:4]([H:11])([H:12])[C@@:5]1([H:13])[C@:6]23[H:14]>>[C:1]1([H:7])([H:8])[C@@:2]2([H:9])[C:3][C:4]([H:11])([H:12])[C@:5]1([H:13])[C:6]2([H:10])[H:14]"
C       -1.13256969      -0.22867298       0.66727185
C       -0.32709823       1.06185540       0.47765366
C        1.15291329       0.77282249       0.36451849
C        1.14386395      -0.77936422       0.22093127
C       -0.23078849      -0.80441141      -0.43920843
C       -0.04290535       0.65412328      -0.95336812
H       -2.16441475      -0.10395689       0.33745606
H       -1.11055462      -0.72074765       1.64255135
H       -0.65433031       2.05004405       0.77538755
H        1.17603984       0.95828968      -0.98871569
H        1.95492634      -1.12172711      -0.42206816
H        1.21130583      -1.29116419       1.18367578
H       -0.55261602      -1.64263930      -1.05369428
H       -0.42377178       1.19554888      -1.81239134
14
Frame=1 idx=005249 GeodesicLength=0.048705506177146446 rxn_smarts="[C:1]1([H:7])([H:8])[C@:2]2([H:9])[C@:3]3([H:10])[C:4]([H:11])([H:12])[C@@:5]1([H:13])[C@:6]23[H:14]>>[C:1]1([H:7])([H:8])[C@@:2]2([H:9])[C:3][C:4]([H:11])([H:12])[C@:5]1([H:13])[C:6]2([H:10])[H:14]"
C       -1.13277338      -0.22785728       0.66571391
C       -0.32632531       1.06254760       0.47705851
C        1.15162978       0.76705471       0.36854737
C        1.14338997      -0.78180394       0.22353141
C       -0.23043373      -0.80427877      -0.43991993
C       -0.04166746       0.65366868      -0.95499652
H       -2.16397336      -0.10135202       0.33452261
H       -1.11139205      -0.71827792       1.64185398
H       -0.65137163       2.05132533       0.77530977
H        1.18594153       0.97395914      -0.99096975
H        1.95504855      -1.12188044      -0.42024380
H        1.21271286      -1.29721036       1.18431375
H       -0.55158632      -1.64323523      -1.05365559
H       -0.43919945       1.18734051      -1.81106571
14
Frame=2 idx=005249 GeodesicLength=0.09741043854873788 rxn_smarts="[C:1]1([H:7])([H:8])[C@:2]2([H:9])[C@:3]3([H:10])[C:4]([H:11])([H:12])[C@@:5]1([H:13])[C@:6]23[H:14]>>[C:1]1([H:7])([H:8])[C@@:2]2([H:9])[C:3][C:4]([H:11])([H:12])[C@:5]1([H:13])[C:6]2([H:10])[H:14]"
C       -1.13297937      -0.22703703       0.66415543
C       -0.32553323       1.06322420       0.47642205
C        1.15032679       0.76127056       0.37246467
C        1.14288134      -0.78428520       0.22610969
C       -0.23011087      -0.80417128      -0.44063876
C       -0.04045213       0.65318828      -0.95668780
H       -2.16353474      -0.09873477       0.33160989
H       -1.11222081      -0.71578693       1.64116041
H       -0.64837691       2.05259302       0.77518588
H        1.19584553       0.98999238      -0.99303602
H        1.95512400      -1.12205575      -0.41845961
H        1.21412858      -1.30324890       1.18493084
H       -0.55061063      -1.64386303      -1.05360112
H       -0.45448757       1.17891446      -1.80961556
14
Frame=3 idx=005249 GeodesicLength=0.14611462224531313 rxn_smarts="[C:1]1([H:7])([H:8])[C@:2]2([H:9])[C@:3]3([H:10])[C:4]([H:11])([H:12])[C@@:5]1([H:13])[C@:6]23[H:14]>>[C:1]1([H:7])([H:8])[C@@:2]2([H:9])[C:3][C:4]([H:11])([H:12])[C@:5]1([H:13])[C:6]2([H:10])[H:14]"
C       -1.13318759      -0.22621302       0.66259774
C       -0.32472225       1.06388423       0.47574229
C        1.14900434       0.75546993       0.37626661
C        1.14233740      -0.78680872       0.22866528
C       -0.22982144      -0.80409133      -0.44136410
C       -0.03926291       0.65267872      -0.95844362
H       -2.16309938      -0.09610676       0.32872055
H       -1.11303916      -0.71327371       1.64047274
H       -0.64534679       2.05384608       0.77501344
H        1.20574824       1.00639484      -0.99490986
H        1.95515115      -1.12225620      -0.41671604
H        1.21555404      -1.30927833       1.18552762
H       -0.54969135      -1.64452592      -1.05352841
H       -0.46962429       1.17028020      -1.80804424
14
Frame=4 idx=005249 GeodesicLength=0.19481941441278083 rxn_smarts="[C:1]1([H:7])([H:8])[C@:2]2([H:9])[C@:3]3([H:10])[C:4]([H:11])([H:12])[C@@:5]1([H:13])[C@:6]23[H:14]>>[C:1]1([H:7])([H:8])[C@@:2]2([H:9])[C:3][C:4]([H:11])([H:12])[C@:5]1([H:13])[C:6]2([H:10])[H:14]"
C       -1.13339829      -0.22538613       0.66104235
C       -0.32389258       1.06452666       0.47501728
C        1.14766296       0.74965264       0.37994943
C        1.14175783      -0.78937528       0.23119754
C       -0.22956706      -0.80404139      -0.44209516
C       -0.03810326       0.65213653      -0.96026586
H       -2.16266843      -0.09346961       0.32585724
H       -1.11384576      -0.71073752       1.63979357
H       -0.64228181       2.05508341       0.77478999
H        1.21564644       1.02317233      -0.99658671
H        1.95512896      -1.12248513      -0.41501355
H        1.21699067      -1.31529734       1.18610518
H       -0.54883117      -1.64522717      -1.05343509
H       -0.48459849       1.16144801      -1.80635620
14
Frame=5 idx=005249 GeodesicLength=0.24352005274099225 rxn_smarts="[C:1]1([H:7])([H:8])[C@:2]2([H:9])[C@:3]3([H:10])[C:4]([H:11])([H:12])[C@@:5]1([H:13])[C@:6]23[H:14]>>[C:1]1([H:7])([H:8])[C@@:2]2([H:9])[C:3][C:4]([H:11])([H:12])[C@:5]1([H:13])[C:6]2([H:10])[H:14]"
C       -1.13361036      -0.22455686       0.65949019
C       -0.32304457       1.06515060       0.47424488
C        1.14630132       0.74381861       0.38350923
C        1.14114111      -0.79198543       0.23370522
C       -0.22934892      -0.80402415      -0.44283076
C       -0.03697695       0.65155749      -0.96215507
H       -2.16224035      -0.09082474       0.32302253
H       -1.11463766      -0.70817652       1.63912369
H       -0.63918263       2.05630410       0.77451293
H        1.22553499       1.04033023      -0.99806026
H        1.95505418      -1.12274598      -0.41335285
H        1.21843868      -1.32130392       1.18666266
H       -0.54803167      -1.64597046      -1.05331793
H       -0.49939718       1.15242702      -1.80455446
14
Frame=6 idx=005249 GeodesicLength=0.2922253715758275 rxn_smarts="[C:1]1([H:7])([H:8])[C@:2]2([H:9])[C@:3]3([H:10])[C:4]([H:11])([H:12])[C@@:5]1([H:13])[C@:6]23[H:14]>>[C:1]1([H:7])([H:8])[C@@:2]2([H:9])[C:3][C:4]([H:11])([H:12])[C@:5]1([H:13])[C:6]2([H:10])[H:14]"
C       -1.13382427      -0.22372547       0.65794203
C       -0.32217703       1.06575569       0.47342350
C        1.14492208       0.73796664       0.38694401
C        1.14048806      -0.79464079       0.23618859
C       -0.22916802      -0.80404170      -0.44357064
C       -0.03588505       0.65093912      -0.96411362
H       -2.16181679      -0.08817330       0.32021635
H       -1.11541399      -0.70558792       1.63846661
H       -0.63604885       2.05750817       0.77417888
H        1.23541234       1.05788165      -0.99932296
H        1.95492712      -1.12304412      -0.41173342
H        1.21990003      -1.32730148       1.18720096
H       -0.54729631      -1.64675862      -1.05317508
H       -0.51401933       1.14322212      -1.80264522
14
Frame=7 idx=005249 GeodesicLength=0.34093287614053036 rxn_smarts="[C:1]1([H:7])([H:8])[C@:2]2([H:9])[C@:3]3([H:10])[C:4]([H:11])([H:12])[C@@:5]1([H:13])[C@:6]23[H:14]>>[C:1]1([H:7])([H:8])[C@@:2]2([H:9])[C:3][C:4]([H:11])([H:12])[C@:5]1([H:13])[C:6]2([H:10])[H:14]"
C       -1.13403990      -0.22289127       0.65639827
C       -0.32128930       1.06634095       0.47255151
C        1.14352554       0.73209535       0.39025131
C        1.13979760      -0.79734268       0.23864631
C       -0.22902566      -0.80409560      -0.44431411
C       -0.03482933       0.65027827      -0.96614194
H       -2.16139697      -0.08551373       0.31743889
H       -1.11617336      -0.70296974       1.63782221
H       -0.63287811       2.05869554       0.77378386
H        1.24527443       1.07583677      -1.00036371
H        1.95474513      -1.12338290      -0.41015708
H        1.22137550      -1.33329093       1.18771857
H       -0.54662408      -1.64759608      -1.05300168
H       -0.52846148       1.13383604      -1.80063241
14
Frame=8 idx=005249 GeodesicLength=0.3896454633651113 rxn_smarts="[C:1]1([H:7])([H:8])[C@:2]2([H:9])[C@:3]3([H:10])[C:4]([H:11])([H:12])[C@@:5]1([H:13])[C@:6]23[H:14]>>[C:1]1([H:7])([H:8])[C@@:2]2([H:9])[C:3][C:4]([H:11])([H:12])[C@:5]1([H:13])[C:6]2([H:10])[H:14]"
C       -1.13425791      -0.22205655       0.65486082
C       -0.32038226       1.06690540       0.47162551
C        1.14211259       0.72620551       0.39342510
C        1.13907074      -0.80009219       0.24107824
C       -0.22892353      -0.80419060      -0.44505921
C       -0.03381503       0.64956955      -0.96824250
H       -2.16098351      -0.08284823       0.31469461
H       -1.11691569      -0.70032281       1.63719360
H       -0.62967080       2.05986527       0.77332695
H        1.25511734       1.09419947      -1.00118123
H        1.95450942      -1.12376620      -0.40862293
H        1.22286698      -1.33926851       1.18821846
H       -0.54601957      -1.64848720      -1.05279600
H       -0.54270877       1.12428711      -1.79852144
14
Frame=9 idx=005249 GeodesicLength=0.4383617837160838 rxn_smarts="[C:1]1([H:7])([H:8])[C@:2]2([H:9])[C@:3]3([H:10])[C:4]([H:11])([H:12])[C@@:5]1([H:13])[C@:6]23[H:14]>>[C:1]1([H:7])([H:8])[C@@:2]2([H:9])[C:3][C:4]([H:11])([H:12])[C@:5]1([H:13])[C:6]2([H:10])[H:14]"
C       -1.13447662      -0.22122031       0.65332832
C       -0.31945420       1.06744661       0.47064423
C        1.14068233       0.72029565       0.39646338
C        1.13830469      -0.80288860       0.24348291
C       -0.22886168      -0.80432753      -0.44580657
C       -0.03284268       0.64880836      -0.97041651
H       -2.16057163      -0.08017352       0.31198049
H       -1.11763968      -0.69764141       1.63658060
H       -0.62642063       2.06101347       0.77281086
H        1.26493782       1.11297995      -1.00176267
H        1.95421561      -1.12419574      -0.40713166
H        1.22437270      -1.34523259       1.18869909
H       -0.54548142      -1.64943516      -1.05255490
H       -0.55676463       1.11457083      -1.79631755
14
Frame=10 idx=005249 GeodesicLength=0.4870805693642902 rxn_smarts="[C:1]1([H:7])([H:8])[C@:2]2([H:9])[C@:3]3([H:10])[C:4]([H:11])([H:12])[C@@:5]1([H:13])[C@:6]23[H:14]>>[C:1]1([H:7])([H:8])[C@@:2]2([H:9])[C:3][C:4]([H:11])([H:12])[C@:5]1([H:13])[C:6]2([H:10])[H:14]"
C       -1.13469628      -0.22038466       0.65180398
C       -0.31850515       1.06796408       0.46960434
C        1.13923729       0.71436594       0.39936036
C        1.13750113      -0.80573400       0.24586046
C       -0.22884207      -0.80451056      -0.44655386
C       -0.03191651       0.64799094      -0.97266605
H       -2.16016455      -0.07749524       0.30930249
H       -1.11834442      -0.69492673       1.63598768
H       -0.62313258       2.06213955       0.77222947
H        1.27473135       1.13218382      -1.00210481
H        1.95386272      -1.12467930      -0.40568454
H        1.22589609      -1.35118018       1.18916472
H       -0.54501516      -1.65044262      -1.05227593
H       -0.57061187       1.10470895      -1.79402829
14
Frame=11 idx=005249 GeodesicLength=0.5358056672182295 rxn_smarts="[C:1]1([H:7])([H:8])[C@:2]2([H:9])[C@:3]3([H:10])[C:4]([H:11])([H:12])[C@@:5]1([H:13])[C@:6]23[H:14]>>[C:1]1([H:7])([H:8])[C@@:2]2([H:9])[C:3][C:4]([H:11])([H:12])[C@:5]1([H:13])[C:6]2([H:10])[H:14]"
C       -1.13491668      -0.21954876       0.65028802
C       -0.31753420       1.06845794       0.46850387
C        1.13777859       0.70841561       0.40211453
C        1.13665987      -0.80863007       0.24821021
C       -0.22886599      -0.80474228      -0.44730052
C       -0.03103791       0.64711336      -0.97499199
H       -2.15976230      -0.07481108       0.30666129
H       -1.11902722      -0.69217650       1.63541506
H       -0.61980313       2.06324562       0.77157863
H        1.28449609       1.15182422      -1.00219340
H        1.95345099      -1.12522005      -0.40428121
H        1.22743767      -1.35711497       1.18961341
H       -0.54462289      -1.65151362      -1.05195722
H       -0.58425287       1.09470057      -1.79166069
14
Frame=12 idx=005249 GeodesicLength=0.584533750942072 rxn_smarts="[C:1]1([H:7])([H:8])[C@:2]2([H:9])[C@:3]3([H:10])[C:4]([H:11])([H:12])[C@@:5]1([H:13])[C@:6]23[H:14]>>[C:1]1([H:7])([H:8])[C@@:2]2([H:9])[C:3][C:4]([H:11])([H:12])[C@:5]1([H:13])[C:6]2([H:10])[H:14]"
C       -1.13513727      -0.21871343       0.64878254
C       -0.31654122       1.06892661       0.46734049
C        1.13630679       0.70244446       0.40472130
C        1.13578014      -0.81157712       0.25053132
C       -0.22893522      -0.80502531      -0.44804543
C       -0.03021078       0.64617078      -0.97739588
H       -2.15936503      -0.07212362       0.30406097
H       -1.11968542      -0.68939045       1.63486531
H       -0.61643405       2.06432908       0.77085559
H        1.29422900       1.17190363      -1.00202188
H        1.95297800      -1.12582218      -0.40292276
H        1.22899857      -1.36303233       1.19004747
H       -0.54430776      -1.65265078      -1.05159605
H       -0.59767575       1.08456066      -1.78922299
14
Frame=13 idx=005249 GeodesicLength=0.6332610085503381 rxn_smarts="[C:1]1([H:7])([H:8])[C@:2]2([H:9])[C@:3]3([H:10])[C:4]([H:11])([H:12])[C@@:5]1([H:13])[C@:6]23[H:14]>>[C:1]1([H:7])([H:8])[C@@:2]2([H:9])[C:3][C:4]([H:11])([H:12])[C@:5]1([H:13])[C:6]2([H:10])[H:14]"
C       -1.13535743      -0.21787935       0.64728931
C       -0.31552595       1.06936911       0.46611179
C        1.13482258       0.69645262       0.40717631
C        1.13486153      -0.81457568       0.25282303
C       -0.22905151      -0.80536251      -0.44878740
C       -0.02943898       0.64515854      -0.97987892
H       -2.15897298      -0.06943513       0.30150511
H       -1.12031626      -0.68656837       1.63434035
H       -0.61302695       2.06538829       0.77005782
H        1.30392795       1.19242439      -1.00158267
H        1.95244170      -1.12649047      -0.40161002
H        1.23058043      -1.36892799       1.19046904
H       -0.54407287      -1.65385724      -1.05118982
H       -0.61087125       1.07430379      -1.78672393
14
Frame=14 idx=005249 GeodesicLength=0.6819834449197896 rxn_smarts="[C:1]1([H:7])([H:8])[C@:2]2([H:9])[C@:3]3([H:10])[C:4]([H:11])([H:12])[C@@:5]1([H:13])[C@:6]23[H:14]>>[C:1]1([H:7])([H:8])[C@@:2]2([H:9])[C:3][C:4]([H:11])([H:12])[C@:5]1([H:13])[C:6]2([H:10])[H:14]"
C       -1.13557654      -0.21704702       0.64581001
C       -0.31448806       1.06978458       0.46481535
C        1.13332683       0.69044038       0.40947544
C        1.13390376      -0.81762612       0.25508462
C       -0.22921653      -0.80575655      -0.44952528
C       -0.02872620       0.64407215      -0.98244226
H       -2.15858637      -0.06674764       0.29899713
H       -1.12091708      -0.68371005       1.63384192
H       -0.60958315       2.06642174       0.76918305
H        1.31359180       1.21338840      -1.00086750
H        1.95184014      -1.12722957      -0.40034381
H        1.23218478      -1.37479781       1.19088021
H       -0.54392119      -1.65513581      -1.05073620
H       -0.62383219       1.06394333      -1.78417268
14
Frame=15 idx=005249 GeodesicLength=0.730706079261097 rxn_smarts="[C:1]1([H:7])([H:8])[C@:2]2([H:9])[C@:3]3([H:10])[C:4]([H:11])([H:12])[C@@:5]1([H:13])[C@:6]23[H:14]>>[C:1]1([H:7])([H:8])[C@@:2]2([H:9])[C:3][C:4]([H:11])([H:12])[C@:5]1([H:13])[C:6]2([H:10])[H:14]"
C       -1.13579386      -0.21621612       0.64434341
C       -0.31342543       1.07017283       0.46344798
C        1.13182215       0.68440636       0.41161579
C        1.13290705      -0.82073081       0.25731647
C       -0.22943049      -0.80621072      -0.45025920
C       -0.02807310       0.64290759      -0.98508822
H       -2.15820452      -0.06405933       0.29653505
H       -1.12148725      -0.68081030       1.63337111
H       -0.60609773       2.06742972       0.76823073
H        1.32321889       1.23481090      -0.99986228
H        1.95117243      -1.12804735      -0.39912278
H        1.23381444      -1.38064191       1.19128317
H       -0.54385461      -1.65648904      -1.05023625
H       -0.63656797       1.05347818      -1.78157499
14
Frame=16 idx=005249 GeodesicLength=0.7794297062817539 rxn_smarts="[C:1]1([H:7])([H:8])[C@:2]2([H:9])[C@:3]3([H:10])[C:4]([H:11])([H:12])[C@@:5]1([H:13])[C@:6]23[H:14]>>[C:1]1([H:7])([H:8])[C@@:2]2([H:9])[C:3][C:4]([H:11])([H:12])[C@:5]1([H:13])[C:6]2([H:10])[H:14]"
C       -1.13600848      -0.21538528       0.64288903
C       -0.31233523       1.07053142       0.46200480
C        1.13031051       0.67834754       0.41359291
C        1.13187130      -0.82389045       0.25951728
C       -0.22969343      -0.80672721      -0.45098754
C       -0.02747796       0.64165789      -0.98781917
H       -2.15782565      -0.06136778       0.29411963
H       -1.12202762      -0.67786457       1.63292743
H       -0.60256758       2.06840839       0.76719501
H        1.33280684       1.25670845      -0.99855068
H        1.95043623      -1.12894701      -0.39794983
H        1.23546702      -1.38646067       1.19167617
H       -0.54387367      -1.65792062      -1.04968246
H       -0.64908229       1.04290991      -1.77893257
