13
Frame=0 idx=005901 GeodesicLength=0.0 rxn_smarts="[C:1]([C:2]([C@@:3]1([H:11])[C:4]([H:12])([H:13])[O:5]1)([H:9])[H:10])([H:6])([H:7])[H:8]>>[C:1]([C:3](=[C:2]([H:9])[H:10])[H:11])([H:6])([H:7])[H:8].[C:4](=[O:5])([H:12])[H:13]"
C       -0.99418779       0.80690821       0.07173232
C       -0.69609814      -1.15712496       0.14318861
C        0.12442978      -0.26352650      -0.51514758
C        1.58065549       0.11738444       0.06053788
O        2.39616485      -0.72508936      -0.46388688
H       -2.02183555       0.53425861       0.32962529
H       -0.51809439       1.28054728       0.92809515
H       -1.06710321       1.46129502      -0.79538778
H       -1.39400494      -1.81783395      -0.36381424
H       -0.64103153      -1.22609162       1.22604915
H        0.11146804      -0.29516946      -1.59998877
H        1.70308717       1.20279646      -0.19705118
H        1.41655028       0.08164580       1.17604799
13
Frame=1 idx=005901 GeodesicLength=0.08811893372862196 rxn_smarts="[C:1]([C:2]([C@@:3]1([H:11])[C:4]([H:12])([H:13])[O:5]1)([H:9])[H:10])([H:6])([H:7])[H:8]>>[C:1]([C:3](=[C:2]([H:9])[H:10])[H:11])([H:6])([H:7])[H:8].[C:4](=[O:5])([H:12])[H:13]"
C       -1.01178898       0.80639600       0.07178341
C       -0.69886669      -1.14991014       0.13820604
C        0.12777024      -0.26012060      -0.51970161
C        1.60073615       0.11858469       0.07335313
O        2.38322838      -0.75228250      -0.45637558
H       -2.03344119       0.53830575       0.35627813
H       -0.52913415       1.30099628       0.91291375
H       -1.10651484       1.45339543      -0.79905868
H       -1.37664656      -1.82427970      -0.37774085
H       -0.63847609      -1.22996350       1.21992755
H        0.11217101      -0.28317410      -1.60506066
H        1.73754451       1.19628845      -0.20087893
H        1.43341820       0.08576394       1.18635431
13
Frame=2 idx=005901 GeodesicLength=0.1762439249859781 rxn_smarts="[C:1]([C:2]([C@@:3]1([H:11])[C:4]([H:12])([H:13])[O:5]1)([H:9])[H:10])([H:6])([H:7])[H:8]>>[C:1]([C:3](=[C:2]([H:9])[H:10])[H:11])([H:6])([H:7])[H:8].[C:4](=[O:5])([H:12])[H:13]"
C       -1.02991398       0.80585823       0.07187001
C       -0.70165794      -1.14248270       0.13289161
C        0.13103857      -0.25629258      -0.52438560
C        1.62134199       0.11929678       0.08634821
O        2.36966377      -0.77911307      -0.44828718
H       -2.04454496       0.54247385       0.38400895
H       -0.54042379       1.32210072       0.89633554
H       -1.14757420       1.44425363      -0.80280873
H       -1.35882944      -1.83028529      -0.39167302
H       -0.63580576      -1.23379357       1.21333150
H        0.11286488      -0.27043802      -1.61019204
H        1.77317618       1.18879833      -0.20426925
H        1.45066468       0.08962371       1.19682999
13
Frame=3 idx=005901 GeodesicLength=0.2643805569946188 rxn_smarts="[C:1]([C:2]([C@@:3]1([H:11])[C:4]([H:12])([H:13])[O:5]1)([H:9])[H:10])([H:6])([H:7])[H:8]>>[C:1]([C:3](=[C:2]([H:9])[H:10])[H:11])([H:6])([H:7])[H:8].[C:4](=[O:5])([H:12])[H:13]"
C       -1.04857446       0.80528974       0.07199431
C       -0.70446263      -1.13483429       0.12725675
C        0.13423819      -0.25202618      -0.52919035
C        1.64249836       0.11949049       0.09953614
O        2.35546221      -0.80552376      -0.43968872
H       -2.05506974       0.54678558       0.41278305
H       -0.55204580       1.34385985       0.87825770
H       -1.19030134       1.43377054      -0.80658151
H       -1.34056978      -1.83580331      -0.40559252
H       -0.63302580      -1.23754802       1.20626531
H        0.11355221      -0.25692947      -1.61536524
H        1.80997389       1.18028894      -0.20715707
H        1.46832467       0.09317990       1.20748215
13
Frame=4 idx=005901 GeodesicLength=0.35253701863691356 rxn_smarts="[C:1]([C:2]([C@@:3]1([H:11])[C:4]([H:12])([H:13])[O:5]1)([H:9])[H:10])([H:6])([H:7])[H:8]>>[C:1]([C:3](=[C:2]([H:9])[H:10])[H:11])([H:6])([H:7])[H:8].[C:4](=[O:5])([H:12])[H:13]"
C       -1.06777966       0.80468772       0.07215510
C       -0.70727494      -1.12695533       0.12131071
C        0.13737300      -0.24730575      -0.53410714
C        1.66423290       0.11913526       0.11292641
O        2.34062023      -0.83145645      -0.43063584
H       -2.06493148       0.55126409       0.44257695
H       -0.56409831       1.36626023       0.85857201
H       -1.23470262       1.42184614      -0.81031410
H       -1.32188773      -1.84078065      -0.41948367
H       -0.63014435      -1.24119337       1.19873233
H        0.11423357      -0.24261659      -1.62056375
H        1.84792351       1.17072522      -0.20948863
H        1.48643587       0.09638949       1.21831963
13
Frame=5 idx=005901 GeodesicLength=0.4407144804150385 rxn_smarts="[C:1]([C:2]([C@@:3]1([H:11])[C:4]([H:12])([H:13])[O:5]1)([H:9])[H:10])([H:6])([H:7])[H:8]>>[C:1]([C:3](=[C:2]([H:9])[H:10])[H:11])([H:6])([H:7])[H:8].[C:4](=[O:5])([H:12])[H:13]"
C       -1.08753387       0.80404463       0.07235543
C       -0.71008622      -1.11884065       0.11507204
C        0.14044671      -0.24212374      -0.53912392
C        1.68656737       0.11820281       0.12653239
O        2.32514873      -0.85683290      -0.42120948
H       -2.07404807       0.55594605       0.47332063
H       -0.57669321       1.38927724       0.83717842
H       -1.28075243       1.40839136      -0.81392243
H       -1.30281550      -1.84517181      -0.43332220
H       -0.62717076      -1.24469322       1.19074802
H        0.11490104      -0.22747565      -1.62576759
H        1.88700102       1.16007301      -0.21120988
H        1.50503518       0.09920288       1.22934857
13
Frame=6 idx=005901 GeodesicLength=0.5289225818103568 rxn_smarts="[C:1]([C:2]([C@@:3]1([H:11])[C:4]([H:12])([H:13])[O:5]1)([H:9])[H:10])([H:6])([H:7])[H:8]>>[C:1]([C:3](=[C:2]([H:9])[H:10])[H:11])([H:6])([H:7])[H:8].[C:4](=[O:5])([H:12])[H:13]"
C       -1.10784126       0.80335389       0.07259452
C       -0.71288536      -1.11048148       0.10856018
C        0.14346547      -0.23646854      -0.54422842
C        1.70953084       0.11665897       0.14036545
O        2.30906820      -0.88157648      -0.41148984
H       -2.08233671       0.56088988       0.50493077
H       -0.58997412       1.41286237       0.81397677
H       -1.32842866       1.39331129      -0.81730656
H       -1.28338705      -1.84892824      -0.44708355
H       -0.62411538      -1.24800626       1.18233368
H        0.11555014      -0.21147605      -1.63095237
H        1.92718410       1.14829662      -0.21228204
H        1.52416979       0.10156403       1.24058141
13
Frame=7 idx=005901 GeodesicLength=0.6171574086203471 rxn_smarts="[C:1]([C:2]([C@@:3]1([H:11])[C:4]([H:12])([H:13])[O:5]1)([H:9])[H:10])([H:6])([H:7])[H:8]>>[C:1]([C:3](=[C:2]([H:9])[H:10])[H:11])([H:6])([H:7])[H:8].[C:4](=[O:5])([H:12])[H:13]"
C       -1.12870189       0.80261060       0.07286641
C       -0.71566180      -1.10186838       0.10180620
C        0.14643358      -0.23033730      -0.54940511
C        1.73314854       0.11447068       0.15442893
O        2.29241571      -0.90559359      -0.40157532
H       -2.08972710       0.56615996       0.53727014
H       -0.60410938       1.43693755       0.78889658
H       -1.37765867       1.37654018      -0.82034260
H       -1.26364212      -1.85200932      -0.46073044
H       -0.62098728      -1.25108027       1.17352297
H        0.11616770      -0.19460466      -1.63608898
H        1.96843433       1.13536103      -0.21266581
H        1.54388837       0.10341353       1.25201702
13
Frame=8 idx=005901 GeodesicLength=0.7054265766795128 rxn_smarts="[C:1]([C:2]([C@@:3]1([H:11])[C:4]([H:12])([H:13])[O:5]1)([H:9])[H:10])([H:6])([H:7])[H:8]>>[C:1]([C:3](=[C:2]([H:9])[H:10])[H:11])([H:6])([H:7])[H:8].[C:4](=[O:5])([H:12])[H:13]"
C       -1.15011674       0.80180597       0.07316943
C       -0.71840032      -1.09299216       0.09483987
C        0.14935796      -0.22372114      -0.55463902
C        1.75745319       0.11159990       0.16872519
O        2.27522236      -0.92880226      -0.39155326
H       -2.09616126       0.57183793       0.57019030
H       -0.61928055       1.46141053       0.76187991
H       -1.42836675       1.35801898      -0.82290652
H       -1.24361542      -1.85438075      -0.47423001
H       -0.61779054      -1.25386647       1.16435216
H        0.11673897      -0.17683846      -1.64114972
H        2.01071209       1.12123156      -0.21234189
H        1.56424701       0.10469637       1.26366357
13
Frame=9 idx=005901 GeodesicLength=0.7936610155315511 rxn_smarts="[C:1]([C:2]([C@@:3]1([H:11])[C:4]([H:12])([H:13])[O:5]1)([H:9])[H:10])([H:6])([H:7])[H:8]>>[C:1]([C:3](=[C:2]([H:9])[H:10])[H:11])([H:6])([H:7])[H:8].[C:4](=[O:5])([H:12])[H:13]"
C       -1.17214874       0.80095148       0.07349277
C       -0.72105995      -1.08378647       0.08775269
C        0.15224806      -0.21652565      -0.55982627
C        1.78248103       0.10800032       0.18325902
O        2.25761905      -0.95111188      -0.38165882
H       -2.10178358       0.57800440       0.60339559
H       -0.63567840       1.48617689       0.73293024
H       -1.48048829       1.33762085      -0.82495550
H       -1.22327900      -1.85600931      -0.48753137
H       -0.61456281      -1.25622061       1.15494226
H        0.11725691      -0.15808984      -1.64601028
H        2.05399099       1.10585461      -0.21132799
H        1.58540475       0.10513520       1.27553766
13
Frame=10 idx=005901 GeodesicLength=0.8819286984635252 rxn_smarts="[C:1]([C:2]([C@@:3]1([H:11])[C:4]([H:12])([H:13])[O:5]1)([H:9])[H:10])([H:6])([H:7])[H:8]>>[C:1]([C:3](=[C:2]([H:9])[H:10])[H:11])([H:6])([H:7])[H:8].[C:4](=[O:5])([H:12])[H:13]"
C       -1.19473885       0.80002237       0.07382060
C       -0.72365496      -1.07428836       0.08052862
C        0.15510558      -0.20882478      -0.56503347
C        1.80826572       0.10364349       0.19800090
O        2.23955359      -0.97245637      -0.37183683
H       -2.10642275       0.58474236       0.63681589
H       -0.65352831       1.51108484       0.70201142
H       -1.53382456       1.31541781      -0.82627423
H       -1.20270867      -1.85686854      -0.50059404
H       -0.61128018      -1.25816191       1.14527166
H        0.11768963      -0.13842263      -1.65073297
H        2.09820720       1.08924859      -0.20958635
H        1.60733657       0.10486312       1.28760880
13
Frame=11 idx=005901 GeodesicLength=0.9702276792448904 rxn_smarts="[C:1]([C:2]([C@@:3]1([H:11])[C:4]([H:12])([H:13])[O:5]1)([H:9])[H:10])([H:6])([H:7])[H:8]>>[C:1]([C:3](=[C:2]([H:9])[H:10])[H:11])([H:6])([H:7])[H:8].[C:4](=[O:5])([H:12])[H:13]"
C       -1.21790504       0.79901072       0.07413611
C       -0.72616531      -1.06447618       0.07321986
C        0.15793233      -0.20059882      -0.57023302
C        1.83484866       0.09849004       0.21292568
O        2.22106852      -0.99277250      -0.36219526
H       -2.11013210       0.59210522       0.67022550
H       -0.67302356       1.53599397       0.66916801
H       -1.58820829       1.29143542      -0.82677690
H       -1.18191440      -1.85694216      -0.51335441
H       -0.60794157      -1.25960961       1.13540472
H        0.11801136      -0.11782977      -1.65527435
H        2.14330439       1.07140517      -0.20710159
H        1.63012501       0.10378850       1.29985564
13
Frame=12 idx=005901 GeodesicLength=1.0585605062919656 rxn_smarts="[C:1]([C:2]([C@@:3]1([H:11])[C:4]([H:12])([H:13])[O:5]1)([H:9])[H:10])([H:6])([H:7])[H:8]>>[C:1]([C:3](=[C:2]([H:9])[H:10])[H:11])([H:6])([H:7])[H:8].[C:4](=[O:5])([H:12])[H:13]"
C       -1.24166425       0.79791280       0.07442153
C       -0.72857419      -1.05432283       0.06587007
C        0.16073201      -0.19181967      -0.57539905
C        1.86227429       0.09249796       0.22801534
O        2.20221000      -1.01201535      -0.35282176
H       -2.11297086       0.60014798       0.70342442
H       -0.69436633       1.56074993       0.63445111
H       -1.64348583       1.26569401      -0.82639021
H       -1.16090456      -1.85620540      -0.52575899
H       -0.60454795      -1.26048763       1.12540216
H        0.11820182      -0.09629667      -1.65959618
H        2.18924289       1.05231494      -0.20388481
H        1.65385295       0.10182993       1.31226638
13
Frame=13 idx=005901 GeodesicLength=1.1469262331212264 rxn_smarts="[C:1]([C:2]([C@@:3]1([H:11])[C:4]([H:12])([H:13])[O:5]1)([H:9])[H:10])([H:6])([H:7])[H:8]>>[C:1]([C:3](=[C:2]([H:9])[H:10])[H:11])([H:6])([H:7])[H:8].[C:4](=[O:5])([H:12])[H:13]"
C       -1.26604789       0.79671489       0.07466340
C       -0.73086075      -1.04380082       0.05853157
C        0.16350553      -0.18245356      -0.58049845
C        1.89059258       0.08560651       0.24324451
O        2.18303844      -1.03011724      -0.34381940
H       -2.11503437       0.60893221       0.73619563
H       -0.71774263       1.58521753       0.59790114
H       -1.69950544       1.23822737      -0.82504387
H       -1.13967736      -1.85464697      -0.53775317
H       -0.60109658      -1.26071403       1.11533480
H        0.11823836      -0.07380701      -1.66365027
H        2.23598160       1.03195881      -0.19993200
H        1.67860852       0.09888229       1.32482611
13
Frame=14 idx=005901 GeodesicLength=1.2353244008951607 rxn_smarts="[C:1]([C:2]([C@@:3]1([H:11])[C:4]([H:12])([H:13])[O:5]1)([H:9])[H:10])([H:6])([H:7])[H:8]>>[C:1]([C:3](=[C:2]([H:9])[H:10])[H:11])([H:6])([H:7])[H:8].[C:4](=[O:5])([H:12])[H:13]"
C       -1.29108080       0.79541232       0.07483745
C       -0.73299824      -1.03286894       0.05125344
C        0.16626391      -0.17244875      -0.58549103
C        1.91986636       0.07774485       0.25858898
O        2.16359574      -1.04703995      -0.33527364
H       -2.11645756       0.61853387       0.76829349
H       -0.74338469       1.60922370       0.55961620
H       -1.75613129       1.20906326      -0.82266769
H       -1.11821000      -1.85224202      -0.54927891
H       -0.59757804      -1.26019826       1.10527537
H        0.11811489      -0.05033132      -1.66738376
H        2.28350487       1.01030522      -0.19529099
H        1.70449487       0.09484603       1.33752111
13
Frame=15 idx=005901 GeodesicLength=1.3237521949735527 rxn_smarts="[C:1]([C:2]([C@@:3]1([H:11])[C:4]([H:12])([H:13])[O:5]1)([H:9])[H:10])([H:6])([H:7])[H:8]>>[C:1]([C:3](=[C:2]([H:9])[H:10])[H:11])([H:6])([H:7])[H:8].[C:4](=[O:5])([H:12])[H:13]"
C       -1.31680377       0.79399522       0.07491467
C       -0.73495983      -1.02148142       0.04408321
C        0.16901518      -0.16174119      -0.59033186
C        1.95015801       0.06882770       0.27402768
O        2.14394657      -1.06272326      -0.32726932
H       -2.11738679       0.62903347       0.79950212
H       -0.77150291       1.63262027       0.51965870
H       -1.81325264       1.17820587      -0.81919240
H       -1.09647349      -1.84896407      -0.56028780
H       -0.59398780      -1.25884536       1.09529561
H        0.11782700      -0.02583050      -1.67073982
H        2.33181141       0.98730166      -0.18999762
H        1.73160906       0.08960162       1.35033685
13
Frame=16 idx=005901 GeodesicLength=1.4122099022768113 rxn_smarts="[C:1]([C:2]([C@@:3]1([H:11])[C:4]([H:12])([H:13])[O:5]1)([H:9])[H:10])([H:6])([H:7])[H:8]>>[C:1]([C:3](=[C:2]([H:9])[H:10])[H:11])([H:6])([H:7])[H:8].[C:4](=[O:5])([H:12])[H:13]"
C       -1.34326616       0.79244578       0.07486711
C       -0.73671841      -1.00958906       0.03705964
C        0.17176961      -0.15025072      -0.59496776
C        1.98153620       0.05875365       0.28953920
O        2.12414603      -1.07711104      -0.31987317
H       -2.11796174       0.64054431       0.82964349
H       -0.80232878       1.65526158       0.47805200
H       -1.87077910       1.14563367      -0.81455077
H       -1.07441790      -1.84477945      -0.57074510
H       -0.59032070      -1.25656866       1.08545998
H        0.11737899      -0.00024436      -1.67365646
H        2.38090968       0.96288961      -0.18409889
H        1.76005228       0.08301468       1.36327074
