11
Frame=0 idx=000899 GeodesicLength=0.0 rxn_smarts="[N:1](=[C:2]1/[C:3]([H:8])=[C:4]([H:9])[C:5]([H:10])([H:11])[O:6]1)\[H:7]>>[C:3](#[C:4][H:9])[H:8].[C:5](=[O:6])([H:10])[H:11].[N:1](=[C:2])[H:7]"
N        2.59239091      -0.25721189      -0.21631334
C        1.45307836      -0.01839181      -0.14473659
C       -0.09542480       1.45551281      -0.35204717
C       -1.21714412       1.01128498      -0.12689347
C       -1.13785131      -1.10252697       0.40039103
O        0.01613651      -1.53054651       0.38184076
H        3.44097332      -0.77875531      -0.18440548
H        0.65739995       2.16787907      -0.60535762
H       -2.27056994       1.17901780      -0.06175671
H       -1.81873582      -1.29143633      -0.44363677
H       -1.62025302      -0.83482579       1.35291531
11
Frame=1 idx=000899 GeodesicLength=0.05505170368509495 rxn_smarts="[N:1](=[C:2]1/[C:3]([H:8])=[C:4]([H:9])[C:5]([H:10])([H:11])[O:6]1)\[H:7]>>[C:3](#[C:4][H:9])[H:8].[C:5](=[O:6])([H:10])[H:11].[N:1](=[C:2])[H:7]"
N        2.59079231      -0.25094302      -0.22233653
C        1.44843099      -0.01188654      -0.27710913
C       -0.10055096       1.47100649      -0.31722897
C       -1.22543197       1.01628921      -0.11911409
C       -1.11108098      -1.09098997       0.40419432
O        0.05469641      -1.49965618       0.39991513
H        3.38110206      -0.85082274      -0.11214191
H        0.63352036       2.19353966      -0.59675417
H       -2.27994133       1.18413388      -0.06860202
H       -1.77748002      -1.30629989      -0.44485590
H       -1.61405689      -0.85437089       1.35403327
11
Frame=2 idx=000899 GeodesicLength=0.1127203754468458 rxn_smarts="[N:1](=[C:2]1/[C:3]([H:8])=[C:4]([H:9])[C:5]([H:10])([H:11])[O:6]1)\[H:7]>>[C:3](#[C:4][H:9])[H:8].[C:5](=[O:6])([H:10])[H:11].[N:1](=[C:2])[H:7]"
N        2.58238885      -0.24244924      -0.21976640
C        1.44673274      -0.00307862      -0.37467530
C       -0.10200388       1.47750923      -0.30267223
C       -1.22896890       1.02122408      -0.10713647
C       -1.08589438      -1.08188558       0.40173152
O        0.08929212      -1.47666984       0.39576315
H        3.31026266      -0.90400064      -0.04028715
H        0.61456817       2.20811680      -0.60679812
H       -2.28268321       1.19574391      -0.05623906
H       -1.74817124      -1.31597913      -0.44538316
H       -1.59552293      -0.87853097       1.35546322
11
Frame=3 idx=000899 GeodesicLength=0.17288929550051207 rxn_smarts="[N:1](=[C:2]1/[C:3]([H:8])=[C:4]([H:9])[C:5]([H:10])([H:11])[O:6]1)\[H:7]>>[C:3](#[C:4][H:9])[H:8].[C:5](=[O:6])([H:10])[H:11].[N:1](=[C:2])[H:7]"
N        2.56990710      -0.23390943      -0.21702971
C        1.44589423       0.00318711      -0.45731821
C       -0.10094934       1.47896735      -0.29743565
C       -1.23008093       1.02507772      -0.09609916
C       -1.06268990      -1.07351501       0.39917961
O        0.12102349      -1.45650478       0.39007582
H        3.23521898      -0.94289786       0.02323998
H        0.60204825       2.21822446      -0.61315486
H       -2.28237570       1.20916822      -0.04302457
H       -1.72163769      -1.32537068      -0.44526240
H       -1.57635848      -0.90242712       1.35682915
11
Frame=4 idx=000899 GeodesicLength=0.2347857455552252 rxn_smarts="[N:1](=[C:2]1/[C:3]([H:8])=[C:4]([H:9])[C:5]([H:10])([H:11])[O:6]1)\[H:7]>>[C:3](#[C:4][H:9])[H:8].[C:5](=[O:6])([H:10])[H:11].[N:1](=[C:2])[H:7]"
N        2.55558985      -0.22721847      -0.21988395
C        1.44535060       0.00713765      -0.53020768
C       -0.09804433       1.47746310      -0.29587785
C       -1.22967646       1.02800215      -0.08645486
C       -1.04129930      -1.06574894       0.39658723
O        0.15028813      -1.43856650       0.38324949
H        3.15775383      -0.96938879       0.08501694
H        0.59423527       2.22509742      -0.61642792
H       -2.27996091       1.22392316      -0.02955483
H       -1.69745831      -1.33487784      -0.44453838
H       -1.55677836      -0.92582292       1.35809180
11
Frame=5 idx=000899 GeodesicLength=0.29768832302724046 rxn_smarts="[N:1](=[C:2]1/[C:3]([H:8])=[C:4]([H:9])[C:5]([H:10])([H:11])[O:6]1)\[H:7]>>[C:3](#[C:4][H:9])[H:8].[C:5](=[O:6])([H:10])[H:11].[N:1](=[C:2])[H:7]"
N        2.54154404      -0.22260094      -0.22541952
C        1.44547552       0.01080696      -0.59222356
C       -0.09407935       1.47472417      -0.29374199
C       -1.22894536       1.02993012      -0.07989436
C       -1.02149476      -1.05812067       0.39478827
O        0.17765870      -1.42149264       0.37775435
H        3.07980059      -0.98918228       0.13839901
H        0.58910559       2.23038754      -0.61585769
H       -2.27697265       1.23861299      -0.02060724
H       -1.67436101      -1.34559713      -0.44268462
H       -1.53773129      -0.94746811       1.35948734
11
Frame=6 idx=000899 GeodesicLength=0.36122037053662126 rxn_smarts="[N:1](=[C:2]1/[C:3]([H:8])=[C:4]([H:9])[C:5]([H:10])([H:11])[O:6]1)\[H:7]>>[C:3](#[C:4][H:9])[H:8].[C:5](=[O:6])([H:10])[H:11].[N:1](=[C:2])[H:7]"
N        2.52739116      -0.21966889      -0.23337652
C        1.44509365       0.01236929      -0.64771668
C       -0.08911679       1.47057655      -0.29160323
C       -1.22765955       1.03160713      -0.07347006
C       -1.00355106      -1.05073408       0.39377107
O        0.20305389      -1.40496423       0.37520741
H        3.00357935      -1.00111482       0.18566163
H        0.58679042       2.23334209      -0.61317862
H       -2.27321911       1.25394896      -0.01420255
H       -1.65097203      -1.35631968      -0.44139381
H       -1.52138993      -0.96904232       1.36030135
11
Frame=7 idx=000899 GeodesicLength=0.425838133851288 rxn_smarts="[N:1](=[C:2]1/[C:3]([H:8])=[C:4]([H:9])[C:5]([H:10])([H:11])[O:6]1)\[H:7]>>[C:3](#[C:4][H:9])[H:8].[C:5](=[O:6])([H:10])[H:11].[N:1](=[C:2])[H:7]"
N        2.51364627      -0.21861693      -0.24398348
C        1.44414735       0.01204280      -0.69823073
C       -0.08320531       1.46536387      -0.28917172
C       -1.22554224       1.03355475      -0.06493307
C       -0.98720714      -1.04369254       0.39320615
O        0.22683423      -1.38878856       0.37520517
H        2.92835683      -1.00595168       0.22968638
H        0.58598511       2.23404970      -0.61154438
H       -2.26849555       1.27012797      -0.00867938
H       -1.62666180      -1.36610770      -0.44166418
H       -1.50785774      -0.99198168       1.36010922
11
Frame=8 idx=000899 GeodesicLength=0.49115723096195196 rxn_smarts="[N:1](=[C:2]1/[C:3]([H:8])=[C:4]([H:9])[C:5]([H:10])([H:11])[O:6]1)\[H:7]>>[C:3](#[C:4][H:9])[H:8].[C:5](=[O:6])([H:10])[H:11].[N:1](=[C:2])[H:7]"
N        2.50044198      -0.21874443      -0.25337033
C        1.44308100       0.01033716      -0.74260708
C       -0.07678424       1.45950372      -0.28687675
C       -1.22259720       1.03626403      -0.05265463
C       -0.97246723      -1.03692140       0.39280646
O        0.24912207      -1.37248549       0.37880955
H        2.85611540      -1.00662888       0.26834781
H        0.58448823       2.23261628      -0.61583761
H       -2.26269868       1.28769274      -0.00135879
H       -1.60020078      -1.37402403      -0.44506539
H       -1.49850054      -1.01760970       1.35780676
11
Frame=9 idx=000899 GeodesicLength=0.5572477913690623 rxn_smarts="[N:1](=[C:2]1/[C:3]([H:8])=[C:4]([H:9])[C:5]([H:10])([H:11])[O:6]1)\[H:7]>>[C:3](#[C:4][H:9])[H:8].[C:5](=[O:6])([H:10])[H:11].[N:1](=[C:2])[H:7]"
N        2.48750474      -0.22008599      -0.26267865
C        1.44139663       0.00645584      -0.78288035
C       -0.06986883       1.45280716      -0.28512211
C       -1.21868154       1.03967970      -0.03668640
C       -0.95930072      -1.03053515       0.39242059
O        0.26989555      -1.35621980       0.38550450
H        2.78676516      -1.00205251       0.30440722
H        0.58253100       2.22899218      -0.62529842
H       -2.25552537       1.30682732       0.00875069
H       -1.57183044      -1.37992025      -0.45157927
H       -1.49288617      -1.04594849       1.35316220
11
Frame=10 idx=000899 GeodesicLength=0.6238940099367217 rxn_smarts="[N:1](=[C:2]1/[C:3]([H:8])=[C:4]([H:9])[C:5]([H:10])([H:11])[O:6]1)\[H:7]>>[C:3](#[C:4][H:9])[H:8].[C:5](=[O:6])([H:10])[H:11].[N:1](=[C:2])[H:7]"
N        2.47495607      -0.22191869      -0.26954120
C        1.43975958       0.00116058      -0.81843612
C       -0.06290026       1.44555164      -0.28424675
C       -1.21405864       1.04365103      -0.01804346
C       -0.94755058      -1.02441664       0.39178387
O        0.28920979      -1.34001436       0.39447568
H        2.72093175      -0.99479023       0.33701087
H        0.57881496       2.22360644      -0.64103165
H       -2.24702904       1.32763250       0.02285731
H       -1.54197028      -1.38392226      -0.46081794
H       -1.49016335      -1.07654002       1.34598939
11
Frame=11 idx=000899 GeodesicLength=0.6909880926991563 rxn_smarts="[N:1](=[C:2]1/[C:3]([H:8])=[C:4]([H:9])[C:5]([H:10])([H:11])[O:6]1)\[H:7]>>[C:3](#[C:4][H:9])[H:8].[C:5](=[O:6])([H:10])[H:11].[N:1](=[C:2])[H:7]"
N        2.46274813      -0.22362163      -0.27305216
C        1.43851583      -0.00539293      -0.84959577
C       -0.05629572       1.43772166      -0.28516369
C       -1.20889672       1.04800564       0.00234961
C       -0.93710066      -1.01850750       0.39068608
O        0.30710526      -1.32387151       0.40518333
H        2.65875312      -0.98603844       0.36658609
H        0.57290853       2.21656216      -0.66287476
H       -2.23715118       1.35026398       0.04227174
H       -1.51087288      -1.38617644      -0.47247883
H       -1.48971371      -1.10894499       1.33608836
11
Frame=12 idx=000899 GeodesicLength=0.7585439786675545 rxn_smarts="[N:1](=[C:2]1/[C:3]([H:8])=[C:4]([H:9])[C:5]([H:10])([H:11])[O:6]1)\[H:7]>>[C:3](#[C:4][H:9])[H:8].[C:5](=[O:6])([H:10])[H:11].[N:1](=[C:2])[H:7]"
N        2.45079673      -0.22494906      -0.27350413
C        1.43775299      -0.01341026      -0.87720173
C       -0.05025548       1.42914121      -0.28851291
C       -1.20316036       1.05257073       0.02386521
C       -0.92789027      -1.01286095       0.38889147
O        0.32355485      -1.30799800       0.41690052
H        2.59977523      -0.97541822       0.39469623
H        0.56488582       2.20767659      -0.69020526
H       -2.22560038       1.37486747       0.06804073
H       -1.47893968      -1.38678500      -0.48628964
H       -1.49091946      -1.14283451       1.32331951
11
Frame=13 idx=000899 GeodesicLength=0.8264717663415935 rxn_smarts="[N:1](=[C:2]1/[C:3]([H:8])=[C:4]([H:9])[C:5]([H:10])([H:11])[O:6]1)\[H:7]>>[C:3](#[C:4][H:9])[H:8].[C:5](=[O:6])([H:10])[H:11].[N:1](=[C:2])[H:7]"
N        2.43904067      -0.22567109      -0.27104169
C        1.43755902      -0.02275432      -0.90165563
C       -0.04493111       1.41982317      -0.29419516
C       -1.19686368       1.05723992       0.04603713
C       -0.91983756      -1.00745595       0.38637482
O        0.33857440      -1.29251551       0.42910701
H        2.54374546      -0.96321970       0.42175102
H        0.55468833       2.19693060      -0.72217341
H       -2.21223190       1.40123256       0.09968236
H       -1.44658841      -1.38590796      -0.50172393
H       -1.49315523      -1.17770172       1.30783748
11
Frame=14 idx=000899 GeodesicLength=0.8946609642638321 rxn_smarts="[N:1](=[C:2]1/[C:3]([H:8])=[C:4]([H:9])[C:5]([H:10])([H:11])[O:6]1)\[H:7]>>[C:3](#[C:4][H:9])[H:8].[C:5](=[O:6])([H:10])[H:11].[N:1](=[C:2])[H:7]"
N        2.42743694      -0.22558773      -0.26584932
C        1.43800354      -0.03312342      -0.92321573
C       -0.04046193       1.40984478      -0.30188251
C       -1.19011370       1.06191124       0.06833637
C       -0.91285043      -1.00223855       0.38321698
O        0.35222253      -1.27746092       0.44143176
H        2.49046429      -0.95001544       0.44766626
H        0.54233691       2.18442428      -0.75764072
H       -2.19698852       1.42902646       0.13610566
H       -1.41420512      -1.38383009      -0.51815155
H       -1.49584451      -1.21295062       1.28998278
11
Frame=15 idx=000899 GeodesicLength=0.9629777487309735 rxn_smarts="[N:1](=[C:2]1/[C:3]([H:8])=[C:4]([H:9])[C:5]([H:10])([H:11])[O:6]1)\[H:7]>>[C:3](#[C:4][H:9])[H:8].[C:5](=[O:6])([H:10])[H:11].[N:1](=[C:2])[H:7]"
N        2.41592126      -0.22450943      -0.25817076
C        1.43909243      -0.04412179      -0.94208507
C       -0.03694181       1.39935172      -0.31104450
C       -1.18310228       1.06650956       0.09025568
C       -0.90682808      -0.99712773       0.37959641
O        0.36459664      -1.26279418       0.45365081
H        2.43984456      -0.93662301       0.47198385
H        0.52798179       2.17038091      -0.79525163
H       -2.17996044       1.45781983       0.17568550
H       -1.38213092      -1.38091246      -0.53488716
H       -1.49847314      -1.24797343       1.27026688
11
Frame=16 idx=000899 GeodesicLength=1.0313165975791767 rxn_smarts="[N:1](=[C:2]1/[C:3]([H:8])=[C:4]([H:9])[C:5]([H:10])([H:11])[O:6]1)\[H:7]>>[C:3](#[C:4][H:9])[H:8].[C:5](=[O:6])([H:10])[H:11].[N:1](=[C:2])[H:7]"
N        2.40444455      -0.22223396      -0.24802060
C        1.44091597      -0.05539092      -0.95834682
C       -0.03443264       1.38846381      -0.32135744
C       -1.17592842       1.07102695       0.11161663
C       -0.90168989      -0.99207457       0.37556305
O        0.37578279      -1.24849529       0.46559613
H        2.39180769      -0.92377125       0.49453539
H        0.51150528       2.15487007      -0.83457274
H       -2.16109033       1.48737809       0.21763576
H       -1.35055707      -1.37731959      -0.55161863
H       -1.50075793      -1.28245333       1.24896928
