11
Frame=0 idx=004699 GeodesicLength=0.0 rxn_smarts="[C:1]([O:2][C:3]([C:4]#[C:5][H:11])([H:9])[H:10])([H:6])([H:7])[H:8]>>[C:1]([O:2][C:5](=[C:4]=[C:3]([H:9])[H:10])[H:11])([H:6])([H:7])[H:8]"
C       -1.28002265       0.47933040      -0.27600700
O       -0.00239901       0.53691234       0.35156136
C        0.75447400      -0.92720805       0.79188561
C        1.80034262      -0.70208189      -0.17529676
C        1.24225455       0.40870323      -0.58993223
H       -1.32262278      -0.35028363      -0.98791374
H       -1.44816875       1.41977153      -0.80150275
H       -2.03755806       0.35711134       0.49787260
H        0.95616414      -0.78908816       1.85301921
H       -0.00677191      -1.68312328       0.59557090
H        1.34430790       1.24995616      -1.25925717
11
Frame=1 idx=004699 GeodesicLength=0.09247319617939118 rxn_smarts="[C:1]([O:2][C:3]([C:4]#[C:5][H:11])([H:9])[H:10])([H:6])([H:7])[H:8]>>[C:1]([O:2][C:5](=[C:4]=[C:3]([H:9])[H:10])[H:11])([H:6])([H:7])[H:8]"
C       -1.29239643       0.48461164      -0.27626572
O       -0.01328590       0.53806814       0.34573585
C        0.75816783      -0.93591418       0.79894479
C        1.80031411      -0.69006289      -0.16165352
C        1.26036209       0.41942300      -0.59201864
H       -1.34275161      -0.34472097      -0.98820719
H       -1.46082344       1.42510010      -0.80192678
H       -2.04809597       0.36607188       0.50029612
H        0.95776927      -0.80057693       1.86091473
H        0.01383172      -1.70628824       0.59416329
H        1.36690833       1.24428845      -1.27998295
11
Frame=2 idx=004699 GeodesicLength=0.18492843314397178 rxn_smarts="[C:1]([O:2][C:3]([C:4]#[C:5][H:11])([H:9])[H:10])([H:6])([H:7])[H:8]>>[C:1]([O:2][C:5](=[C:4]=[C:3]([H:9])[H:10])[H:11])([H:6])([H:7])[H:8]"
C       -1.30517059       0.49003186      -0.27654541
O       -0.02449665       0.53915883       0.33966954
C        0.76188027      -0.94482044       0.80601559
C        1.79990797      -0.67742095      -0.14776804
C        1.27898126       0.43082346      -0.59364487
H       -1.36354670      -0.33906498      -0.98837663
H       -1.47375767       1.43055050      -0.80244069
H       -2.05888387       0.37537975       0.50284986
H        0.95933454      -0.81248062       1.86885138
H        0.03549898      -1.72985670       0.59257736
H        1.39025247       1.23769929      -1.30118810
11
Frame=3 idx=004699 GeodesicLength=0.2773722592924004 rxn_smarts="[C:1]([O:2][C:3]([C:4]#[C:5][H:11])([H:9])[H:10])([H:6])([H:7])[H:8]>>[C:1]([O:2][C:5](=[C:4]=[C:3]([H:9])[H:10])[H:11])([H:6])([H:7])[H:8]"
C       -1.31838131       0.49558986      -0.27685096
O       -0.03604841       0.54018488       0.33330837
C        0.76561742      -0.95392590       0.81307082
C        1.79907227      -0.66414205      -0.13366283
C        1.29810379       0.44290204      -0.59484151
H       -1.38509968      -0.33334651      -0.98837782
H       -1.48700206       1.43610019      -0.80309225
H       -2.06992506       0.38508562       0.50556416
H        0.96087956      -0.82477918       1.87679416
H        0.05831258      -1.75383022       0.59080641
H        1.41447090       1.23016126      -1.32271854
11
Frame=4 idx=004699 GeodesicLength=0.36981171034244587 rxn_smarts="[C:1]([O:2][C:3]([C:4]#[C:5][H:11])([H:9])[H:10])([H:6])([H:7])[H:8]>>[C:1]([O:2][C:5](=[C:4]=[C:3]([H:9])[H:10])[H:11])([H:6])([H:7])[H:8]"
C       -1.33206906       0.50128439      -0.27718712
O       -0.04795613       0.54114204       0.32658181
C        0.76938167      -0.96323461       0.82007747
C        1.79775964      -0.65021350      -0.11935051
C        1.31771238       0.45562664      -0.59567149
H       -1.40752592      -0.32760853      -0.98814986
H       -1.50058999       1.44171896      -0.80394031
H       -2.08121942       0.39526258       0.50847867
H        0.96241524      -0.83745406       1.88470427
H        0.08237747      -1.77820489       0.58884427
H        1.43971414       1.22168096      -1.34438720
11
Frame=5 idx=004699 GeodesicLength=0.4622577102315623 rxn_smarts="[C:1]([O:2][C:3]([C:4]#[C:5][H:11])([H:9])[H:10])([H:6])([H:7])[H:8]>>[C:1]([O:2][C:5](=[C:4]=[C:3]([H:9])[H:10])[H:11])([H:6])([H:7])[H:8]"
C       -1.34627986       0.50710651      -0.27756270
O       -0.06023602       0.54202201       0.31940222
C        0.77318057      -0.97275134       0.82700090
C        1.79589535      -0.63566228      -0.10489038
C        1.33777388       0.46891578      -0.59624719
H       -1.43095576      -0.32191325      -0.98762337
H       -1.51456054       1.44736328      -0.80506368
H       -2.09276086       0.40598621       0.51163885
H        0.96398210      -0.85045029       1.89253412
H        0.10776986      -1.80297634       0.58672782
H        1.46619127       1.21235969      -1.36591659
11
Frame=6 idx=004699 GeodesicLength=0.5547109198946125 rxn_smarts="[C:1]([O:2][C:3]([C:4]#[C:5][H:11])([H:9])[H:10])([H:6])([H:7])[H:8]>>[C:1]([O:2][C:5](=[C:4]=[C:3]([H:9])[H:10])[H:11])([H:6])([H:7])[H:8]"
C       -1.36106640       0.51304391      -0.27798631
O       -0.07290064       0.54280608       0.31165462
C        0.77700977      -0.98248911       0.83380080
C        1.79341255      -0.62051874      -0.09032101
C        1.35825228       0.48265238      -0.59671181
H       -1.45555633      -0.31633834      -0.98667997
H       -1.52895591       1.45296646      -0.80656668
H       -2.10453131       0.41738842       0.51509781
H        0.96559753      -0.86373181       1.90023316
H        0.13461177      -1.82813656       0.58448302
H        1.49412670       1.20235731      -1.38700363
11
Frame=7 idx=004699 GeodesicLength=0.6471806247546977 rxn_smarts="[C:1]([O:2][C:3]([C:4]#[C:5][H:11])([H:9])[H:10])([H:6])([H:7])[H:8]>>[C:1]([O:2][C:5](=[C:4]=[C:3]([H:9])[H:10])[H:11])([H:6])([H:7])[H:8]"
C       -1.37648094       0.51908643      -0.27846835
O       -0.08596942       0.54347582       0.30322993
C        0.78086956      -0.99245837       0.84044306
C        1.79021746      -0.60484479      -0.07572506
C        1.37910662       0.49668953      -0.59722909
H       -1.48148526      -0.31095747      -0.98521721
H       -1.54382321       1.45846742      -0.80855030
H       -2.11651582       0.42957069       0.51890978
H        0.96730951      -0.87723199       1.90775093
H        0.16298964      -1.85367979       0.58217305
H        1.52378185       1.19188252      -1.40731673
11
Frame=8 idx=004699 GeodesicLength=0.73967434701827 rxn_smarts="[C:1]([O:2][C:3]([C:4]#[C:5][H:11])([H:9])[H:10])([H:6])([H:7])[H:8]>>[C:1]([O:2][C:5](=[C:4]=[C:3]([H:9])[H:10])[H:11])([H:6])([H:7])[H:8]"
C       -1.39256949       0.52522782      -0.27900388
O       -0.09946759       0.54399800       0.29404164
C        0.78474861      -1.00269570       0.84689166
C        1.78623801      -0.58866995      -0.06111599
C        1.40034144       0.51092730      -0.59787836
H       -1.50886530      -0.30580926      -0.98310735
H       -1.55920028       1.46380685      -0.81108503
H       -2.12869327       0.44265665       0.52309638
H        0.96909914      -0.89095212       1.91505206
H        0.19304592      -1.87957024       0.57981499
H        1.55532282       1.18108063      -1.42670612
11
Frame=9 idx=004699 GeodesicLength=0.8321699210202442 rxn_smarts="[C:1]([O:2][C:3]([C:4]#[C:5][H:11])([H:9])[H:10])([H:6])([H:7])[H:8]>>[C:1]([O:2][C:5](=[C:4]=[C:3]([H:9])[H:10])[H:11])([H:6])([H:7])[H:8]"
C       -1.40944542       0.53142819      -0.27963735
O       -0.11342125       0.54428426       0.28377233
C        0.78868218      -1.01324652       0.85303529
C        1.78130299      -0.57219642      -0.04682136
C        1.42191969       0.52508484      -0.59892458
H       -1.53806438      -0.30107805      -0.98006267
H       -1.57519765       1.46876055      -0.81450581
H       -2.14094548       0.45696088       0.52776773
H        0.97115947      -0.90471312       1.92197781
H        0.22480086      -1.90576793       0.57763027
H        1.58920899       1.17048332      -1.44423168
11
Frame=10 idx=004699 GeodesicLength=0.9246804360393834 rxn_smarts="[C:1]([O:2][C:3]([C:4]#[C:5][H:11])([H:9])[H:10])([H:6])([H:7])[H:8]>>[C:1]([O:2][C:5](=[C:4]=[C:3]([H:9])[H:10])[H:11])([H:6])([H:7])[H:8]"
C       -1.42708702       0.53773068      -0.28032094
O       -0.12787275       0.54437234       0.27257617
C        0.79262806      -1.02412814       0.85890596
C        1.77541339      -0.55526416      -0.03258478
C        1.44392219       0.53929692      -0.60013099
H       -1.56895865      -0.29663926      -0.97612397
H       -1.59179420       1.47344078      -0.81863873
H       -2.15332498       0.47240884       0.53286929
H        0.97328058      -0.91870121       1.92860954
H        0.25851089      -1.93225970       0.57541178
H        1.62528248       1.15974291      -1.46057333
11
Frame=11 idx=004699 GeodesicLength=1.0172076292350043 rxn_smarts="[C:1]([O:2][C:3]([C:4]#[C:5][H:11])([H:9])[H:10])([H:6])([H:7])[H:8]>>[C:1]([O:2][C:5](=[C:4]=[C:3]([H:9])[H:10])[H:11])([H:6])([H:7])[H:8]"
C       -1.44553686       0.54414727      -0.28105393
O       -0.14286181       0.54426384       0.26039524
C        0.79659736      -1.03535559       0.86446561
C        1.76847672      -0.53786998      -0.01845169
C        1.46638728       0.55351887      -0.60146824
H       -1.60164189      -0.29249283      -0.97121956
H       -1.60903878       1.47782701      -0.82354030
H       -2.16580683       0.48907035       0.53843101
H        0.97547114      -0.93291216       1.93490860
H        0.29430802      -1.95902552       0.57315020
H        1.66364565       1.14882874      -1.47561692
11
Frame=12 idx=004699 GeodesicLength=1.1097433258684066 rxn_smarts="[C:1]([O:2][C:3]([C:4]#[C:5][H:11])([H:9])[H:10])([H:6])([H:7])[H:8]>>[C:1]([O:2][C:5](=[C:4]=[C:3]([H:9])[H:10])[H:11])([H:6])([H:7])[H:8]"
C       -1.46485002       0.55068595      -0.28182924
O       -0.15843656       0.54393018       0.24714688
C        0.80059993      -1.04696511       0.86964605
C        1.76040250      -0.51999189      -0.00443765
C        1.48934967       0.56769988      -0.60291582
H       -1.63624866      -0.28865255      -0.96519463
H       -1.62698652       1.48185387      -0.82929757
H       -2.17835547       0.50709461       0.54447558
H        0.97770391      -0.94737598       1.94081400
H        0.33239080      -1.98598962       0.57080899
H        1.70443042       1.13771066      -1.48921659
11
Frame=13 idx=004699 GeodesicLength=1.2022801449128142 rxn_smarts="[C:1]([O:2][C:3]([C:4]#[C:5][H:11])([H:9])[H:10])([H:6])([H:7])[H:8]>>[C:1]([O:2][C:5](=[C:4]=[C:3]([H:9])[H:10])[H:11])([H:6])([H:7])[H:8]"
C       -1.48507622       0.55735774      -0.28265031
O       -0.17465467       0.54335365       0.23276266
C        0.80464836      -1.05898312       0.87439690
C        1.75105167      -0.50169437       0.00933303
C        1.51285184       0.58176322      -0.60443840
H       -1.67287417      -0.28511551      -0.95796369
H       -1.64569950       1.48549186      -0.83597578
H       -2.19094149       0.52655782       0.55101449
H        0.98003185      -0.96206008       1.94626486
H        0.37289122      -2.01308897       0.56844035
H        1.74777111       1.12641776      -1.50118412
11
Frame=14 idx=004699 GeodesicLength=1.2948139811843113 rxn_smarts="[C:1]([O:2][C:3]([C:4]#[C:5][H:11])([H:9])[H:10])([H:6])([H:7])[H:8]>>[C:1]([O:2][C:5](=[C:4]=[C:3]([H:9])[H:10])[H:11])([H:6])([H:7])[H:8]"
C       -1.50627872       0.56418350      -0.28349780
O       -0.19158220       0.54250382       0.21714323
C        0.80876281      -1.07145513       0.87861506
C        1.74035047      -0.48287680       0.02292437
C        1.53696260       0.59570346      -0.60592388
H       -1.71166504      -0.28188214      -0.94928850
H       -1.66526334       1.48864714      -0.84367714
H       -2.20349325       0.54767275       0.55805820
H        0.98234257      -0.97705345       1.95118659
H        0.41611653      -2.04019455       0.56589099
H        1.79374756       1.11475140      -1.51143111
11
Frame=15 idx=004699 GeodesicLength=1.3873238389837674 rxn_smarts="[C:1]([O:2][C:3]([C:4]#[C:5][H:11])([H:9])[H:10])([H:6])([H:7])[H:8]>>[C:1]([O:2][C:5](=[C:4]=[C:3]([H:9])[H:10])[H:11])([H:6])([H:7])[H:8]"
C       -1.52852379       0.57117557      -0.28436696
O       -0.20929281       0.54134120       0.20018099
C        0.81297251      -1.08441790       0.88220703
C        1.72815330      -0.46358732       0.03620931
C        1.56173202       0.60944097      -0.60730215
H       -1.75275811      -0.27895056      -0.93899314
H       -1.68577645       1.49124084      -0.85250181
H       -2.21594518       0.57057794       0.56561633
H        0.98466075      -0.99233791       1.95548214
H        0.46224640      -2.06717201       0.56317327
H        1.84253136       1.10268917      -1.51970501
11
Frame=16 idx=004699 GeodesicLength=1.4797981638334747 rxn_smarts="[C:1]([O:2][C:3]([C:4]#[C:5][H:11])([H:9])[H:10])([H:6])([H:7])[H:8]>>[C:1]([O:2][C:5](=[C:4]=[C:3]([H:9])[H:10])[H:11])([H:6])([H:7])[H:8]"
C       -1.55188073       0.57836206      -0.28523774
O       -0.22786704       0.53982738       0.18175172
C        0.81731498      -1.09792371       0.88503459
C        1.71437833      -0.44370940       0.04925042
C        1.58723178       0.62294742      -0.60843705
H       -1.79630802      -0.27630301      -0.92680978
H       -1.70735437       1.49317140      -0.86255859
H       -2.22819712       0.59550007       0.57369551
H        0.98683956      -1.00800815       1.95905168
H        0.51165134      -2.09382577       0.56012302
H        1.89419129       1.08996170      -1.52586378
