13
Frame=0 idx=004986 GeodesicLength=0.0 rxn_smarts="[C:1]1([H:7])([H:8])[C:2]([H:9])([H:10])[O:3][C:4]([H:11])=[N:5][C:6]1([H:12])[H:13]>>[C:1]([C:2]([O:3][C:4](=[N+:5]=[C-:6][H:12])[H:11])([H:9])[H:10])([H:7])([H:8])[H:13]"
C        0.60069779      -0.90464124       0.40828726
C       -0.78915292      -0.99829499      -0.15835190
O       -1.56870695       0.19600925      -0.10926820
C       -0.99702616       1.41568107      -0.19969373
N        0.22451547       1.70862549      -0.25012205
C        1.33364623       0.97055643      -0.35828509
H        0.64607685      -0.54538238       1.43011580
H        1.13130815      -1.85228612       0.31141562
H       -0.74778944      -1.32146590      -1.20306805
H       -1.37690433      -1.73472393       0.39273481
H       -1.75694862       2.18846722      -0.19163356
H        2.04211530       1.13942191       0.45481498
H        1.25816862      -0.26196676      -0.52694595
13
Frame=1 idx=004986 GeodesicLength=0.05747228171396723 rxn_smarts="[C:1]1([H:7])([H:8])[C:2]([H:9])([H:10])[O:3][C:4]([H:11])=[N:5][C:6]1([H:12])[H:13]>>[C:1]([C:2]([O:3][C:4](=[N+:5]=[C-:6][H:12])[H:11])([H:9])[H:10])([H:7])([H:8])[H:13]"
C        0.60100211      -0.90578971       0.41174572
C       -0.78891976      -0.99566556      -0.15715438
O       -1.56975940       0.19646743      -0.08304178
C       -0.99898189       1.41432645      -0.19626181
N        0.22156643       1.70443255      -0.27256693
C        1.33518614       0.97097164      -0.35978766
H        0.63877518      -0.55767563       1.43838886
H        1.12410984      -1.85851987       0.32167966
H       -0.74586608      -1.29722612      -1.20822203
H       -1.37574272      -1.74311712       0.37962891
H       -1.75744222       2.18865984      -0.19323730
H        2.04106526       1.16023916       0.45118607
H        1.27500711      -0.27710306      -0.53235732
13
Frame=2 idx=004986 GeodesicLength=0.1149251702286104 rxn_smarts="[C:1]1([H:7])([H:8])[C:2]([H:9])([H:10])[O:3][C:4]([H:11])=[N:5][C:6]1([H:12])[H:13]>>[C:1]([C:2]([O:3][C:4](=[N+:5]=[C-:6][H:12])[H:11])([H:9])[H:10])([H:7])([H:8])[H:13]"
C        0.60125094      -0.90688411       0.41531842
C       -0.78861474      -0.99301723      -0.15619993
O       -1.57020848       0.19693386      -0.05856142
C       -1.00076900       1.41291220      -0.19358735
N        0.21840639       1.69967062      -0.29573089
C        1.33662138       0.97145021      -0.36135917
H        0.63095885      -0.57017806       1.44669210
H        1.11680187      -1.86460164       0.33200609
H       -0.74358481      -1.27384222      -1.21289472
H       -1.37494650      -1.75050978       0.36658066
H       -1.75769842       2.18881422      -0.19215209
H        2.03958359       1.18172894       0.44709127
H        1.29219893      -0.29247702      -0.53720298
13
Frame=3 idx=004986 GeodesicLength=0.17235421751531838 rxn_smarts="[C:1]1([H:7])([H:8])[C:2]([H:9])([H:10])[O:3][C:4]([H:11])=[N:5][C:6]1([H:12])[H:13]>>[C:1]([C:2]([O:3][C:4](=[N+:5]=[C-:6][H:12])[H:11])([H:9])[H:10])([H:7])([H:8])[H:13]"
C        0.60150087      -0.90797375       0.41893927
C       -0.78826293      -0.99033706      -0.15536095
O       -1.57014638       0.19743105      -0.03540145
C       -1.00242246       1.41147638      -0.19127656
N        0.21501089       1.69441243      -0.31895424
C        1.33788150       0.97208734      -0.36286445
H        0.62283322      -0.58313324       1.45499879
H        1.10945919      -1.87055315       0.34206099
H       -0.74109725      -1.25116334      -1.21706003
H       -1.37443594      -1.75702435       0.35372198
H       -1.75776288       2.18898303      -0.18973822
H        2.03781765       1.20376449       0.44249483
H        1.30962453      -0.30796983      -0.54155994
13
Frame=4 idx=004986 GeodesicLength=0.22975986744574922 rxn_smarts="[C:1]1([H:7])([H:8])[C:2]([H:9])([H:10])[O:3][C:4]([H:11])=[N:5][C:6]1([H:12])[H:13]>>[C:1]([C:2]([O:3][C:4](=[N+:5]=[C-:6][H:12])[H:11])([H:9])[H:10])([H:7])([H:8])[H:13]"
C        0.60178672      -0.90908561       0.42257217
C       -0.78788647      -0.98761074      -0.15454620
O       -1.56964013       0.19797820      -0.01325957
C       -1.00397330       1.41005241      -0.18910483
N        0.21137664       1.68875162      -0.34171715
C        1.33893232       0.97294844      -0.36421285
H        0.61453596      -0.59670459       1.46329079
H        1.10214045      -1.87638776       0.35162367
H       -0.73851048      -1.22907926      -1.22070388
H       -1.37416696      -1.76274638       0.34114546
H       -1.75771472       2.18915730      -0.18694697
H        2.03593013       1.22622576       0.43736150
H        1.32718984      -0.32349940      -0.54550216
13
Frame=5 idx=004986 GeodesicLength=0.2870879775941412 rxn_smarts="[C:1]1([H:7])([H:8])[C:2]([H:9])([H:10])[O:3][C:4]([H:11])=[N:5][C:6]1([H:12])[H:13]>>[C:1]([C:2]([O:3][C:4](=[N+:5]=[C-:6][H:12])[H:11])([H:9])[H:10])([H:7])([H:8])[H:13]"
C        0.60209777      -0.91019359       0.42623996
C       -0.78746813      -0.98485969      -0.15377206
O       -1.56876564       0.19856523       0.00777752
C       -1.00542636       1.40861822      -0.18726374
N        0.20762139       1.68270788      -0.36392213
C        1.33974485       0.97404020      -0.36543060
H        0.60600028      -0.61082895       1.47156099
H        1.09481956      -1.88207573       0.36077248
H       -0.73573064      -1.20766375      -1.22386418
H       -1.37409846      -1.76771119       0.32886121
H       -1.75747252       2.18939702      -0.18350245
H        2.03380002       1.24908557       0.43156521
H        1.34487789      -0.33908123      -0.54902222
13
Frame=6 idx=004986 GeodesicLength=0.3444084647399071 rxn_smarts="[C:1]1([H:7])([H:8])[C:2]([H:9])([H:10])[O:3][C:4]([H:11])=[N:5][C:6]1([H:12])[H:13]>>[C:1]([C:2]([O:3][C:4](=[N+:5]=[C-:6][H:12])[H:11])([H:9])[H:10])([H:7])([H:8])[H:13]"
C        0.60247368      -0.91135031       0.42989319
C       -0.78704602      -0.98202928      -0.15289823
O       -1.56751538       0.19923739       0.02828117
C       -1.00681719       1.40725324      -0.18523856
N        0.20362287       1.67648067      -0.38497970
C        1.34033736       0.97541515      -0.36637907
H        0.59745118      -0.62577042       1.47977173
H        1.08757869      -1.88767606       0.36918675
H       -0.73298450      -1.18662334      -1.22649502
H       -1.37420680      -1.77203524       0.31693287
H       -1.75732100       2.18954504      -0.18099808
H        2.03186424       1.27218334       0.42517836
H        1.36256286      -0.35463018      -0.55225542
13
Frame=7 idx=004986 GeodesicLength=0.4016944716353335 rxn_smarts="[C:1]1([H:7])([H:8])[C:2]([H:9])([H:10])[O:3][C:4]([H:11])=[N:5][C:6]1([H:12])[H:13]>>[C:1]([C:2]([O:3][C:4](=[N+:5]=[C-:6][H:12])[H:11])([H:9])[H:10])([H:7])([H:8])[H:13]"
C        0.60290228      -0.91252090       0.43357265
C       -0.78660784      -0.97914379      -0.15197339
O       -1.56594759       0.19997281       0.04807581
C       -1.00815606       1.40592586      -0.18329603
N        0.19950195       1.67007543      -0.40493075
C        1.34071336       0.97706959      -0.36712166
H        0.58878769      -0.64141001       1.48793327
H        1.08039896      -1.89315788       0.37702825
H       -0.73016981      -1.16606448      -1.22865454
H       -1.37448464      -1.77572097       0.30533614
H       -1.75718445       2.18965557      -0.17887330
H        2.02997550       1.29550794       0.41809021
H        1.38027064      -0.37018916      -0.55518666
13
Frame=8 idx=004986 GeodesicLength=0.4589283532771899 rxn_smarts="[C:1]1([H:7])([H:8])[C:2]([H:9])([H:10])[O:3][C:4]([H:11])=[N:5][C:6]1([H:12])[H:13]>>[C:1]([C:2]([O:3][C:4](=[N+:5]=[C-:6][H:12])[H:11])([H:9])[H:10])([H:7])([H:8])[H:13]"
C        0.60337457      -0.91369816       0.43730306
C       -0.78615446      -0.97619261      -0.15097525
O       -1.56413109       0.20076677       0.06733275
C       -1.00946567       1.40466055      -0.18123242
N        0.19530553       1.66362016      -0.42377671
C        1.34090672       0.97897838      -0.36763156
H        0.58000306      -0.65775806       1.49603611
H        1.07327766      -1.89853247       0.38427515
H       -0.72728482      -1.14587623      -1.23037632
H       -1.37489729      -1.77886094       0.29403426
H       -1.75718631       2.18966589      -0.17743324
H        2.02829211       1.31900659       0.41028869
H        1.39795997      -0.38577986      -0.55784451
13
Frame=9 idx=004986 GeodesicLength=0.5161602857611197 rxn_smarts="[C:1]1([H:7])([H:8])[C:2]([H:9])([H:10])[O:3][C:4]([H:11])=[N:5][C:6]1([H:12])[H:13]>>[C:1]([C:2]([O:3][C:4](=[N+:5]=[C-:6][H:12])[H:11])([H:9])[H:10])([H:7])([H:8])[H:13]"
C        0.60389520      -0.91488569       0.44108796
C       -0.78568698      -0.97318017      -0.14990565
O       -1.56204830       0.20165102       0.08603186
C       -1.01074210       1.40345679      -0.17919802
N        0.19101761       1.65708009      -0.44135470
C        1.34091995       0.98116768      -0.36790436
H        0.57110381      -0.67480374       1.50404591
H        1.06622885      -1.90379474       0.39096720
H       -0.72433403      -1.12610045      -1.23167329
H       -1.37545830      -1.78145688       0.28304399
H       -1.75730371       2.18959609      -0.17661611
H        2.02677914       1.34269538       0.40174142
H        1.41562885      -0.40142540      -0.56026622
13
Frame=10 idx=004986 GeodesicLength=0.5733599530248898 rxn_smarts="[C:1]1([H:7])([H:8])[C:2]([H:9])([H:10])[O:3][C:4]([H:11])=[N:5][C:6]1([H:12])[H:13]>>[C:1]([C:2]([O:3][C:4](=[N+:5]=[C-:6][H:12])[H:11])([H:9])[H:10])([H:7])([H:8])[H:13]"
C        0.60440314      -0.91603022       0.44500005
C       -0.78518525      -0.97012386      -0.14881524
O       -1.55975861       0.20255311       0.10408041
C       -1.01201674       1.40228108      -0.17727079
N        0.18663418       1.65058182      -0.45802431
C        1.34077409       0.98357121      -0.36799890
H        0.56194637      -0.69244046       1.51198000
H        1.05920787      -1.90891187       0.39727036
H       -0.72118796      -1.10672348      -1.23260545
H       -1.37615042      -1.78358062       0.27226433
H       -1.75751046       2.18944916      -0.17589732
H        2.02554603       1.36657122       0.39240021
H        1.43329775      -0.41719708      -0.56238334
13
Frame=11 idx=004986 GeodesicLength=0.6304946714496755 rxn_smarts="[C:1]1([H:7])([H:8])[C:2]([H:9])([H:10])[O:3][C:4]([H:11])=[N:5][C:6]1([H:12])[H:13]>>[C:1]([C:2]([O:3][C:4](=[N+:5]=[C-:6][H:12])[H:11])([H:9])[H:10])([H:7])([H:8])[H:13]"
C        0.60494129      -0.91715523       0.44901003
C       -0.78464969      -0.96701222      -0.14768040
O       -1.55728327       0.20352222       0.12159983
C       -1.01328205       1.40114426      -0.17531149
N        0.18227582       1.64406920      -0.47355861
C        1.34050445       0.98622217      -0.36787641
H        0.55257661      -0.71065084       1.51978911
H        1.05224684      -1.91388483       0.40314110
H       -0.71791141      -1.08773267      -1.23320008
H       -1.37693061      -1.78523657       0.26173283
H       -1.75783136       2.18922293      -0.17561619
H        2.02441519       1.39058871       0.38226047
H        1.45092819      -0.43309715      -0.56429019
13
Frame=12 idx=004986 GeodesicLength=0.6876233989100857 rxn_smarts="[C:1]1([H:7])([H:8])[C:2]([H:9])([H:10])[O:3][C:4]([H:11])=[N:5][C:6]1([H:12])[H:13]>>[C:1]([C:2]([O:3][C:4](=[N+:5]=[C-:6][H:12])[H:11])([H:9])[H:10])([H:7])([H:8])[H:13]"
C        0.60547597      -0.91824428       0.45315934
C       -0.78408155      -0.96385248      -0.14650812
O       -1.55463349       0.20452350       0.13860515
C       -1.01455066       1.40006561      -0.17334517
N        0.17784914       1.63766054      -0.48811967
C        1.34011365       0.98910870      -0.36753467
H        0.54297530      -0.72944432       1.52746752
H        1.04532819      -1.91873502       0.40863085
H       -0.71446720      -1.06908019      -1.23345833
H       -1.37781627      -1.78648534       0.25138884
H       -1.75831851       2.18889778      -0.17566573
H        2.02358766       1.41476018       0.37132005
H        1.46853777      -0.44917467      -0.56594008
13
Frame=13 idx=004986 GeodesicLength=0.7447219044181601 rxn_smarts="[C:1]1([H:7])([H:8])[C:2]([H:9])([H:10])[O:3][C:4]([H:11])=[N:5][C:6]1([H:12])[H:13]>>[C:1]([C:2]([O:3][C:4](=[N+:5]=[C-:6][H:12])[H:11])([H:9])[H:10])([H:7])([H:8])[H:13]"
C        0.60598920      -0.91927233       0.45749359
C       -0.78346466      -0.96066999      -0.14535313
O       -1.55188051       0.20553341       0.15499387
C       -1.01584376       1.39900235      -0.17148968
N        0.17342416       1.63130348      -0.50190618
C        1.33960867       0.99220496      -0.36700571
H        0.53302397      -0.74869999       1.53501798
H        1.03843667      -1.92343086       0.41388431
H       -0.71076411      -1.05082478      -1.23346204
H       -1.37878058      -1.78736950       0.24115998
H       -1.75884032       2.18856500      -0.17553271
H        2.02293099       1.43915144       0.35948139
H        1.48616029      -0.46549318      -0.56728165
13
Frame=14 idx=004986 GeodesicLength=0.8018257609333025 rxn_smarts="[C:1]1([H:7])([H:8])[C:2]([H:9])([H:10])[O:3][C:4]([H:11])=[N:5][C:6]1([H:12])[H:13]>>[C:1]([C:2]([O:3][C:4](=[N+:5]=[C-:6][H:12])[H:11])([H:9])[H:10])([H:7])([H:8])[H:13]"
C        0.60647478      -0.92024535       0.46202857
C       -0.78279748      -0.95746525      -0.14421369
O       -1.54902592       0.20654764       0.17082382
C       -1.01716097       1.39796080      -0.16969739
N        0.16897691       1.62501586      -0.51493725
C        1.33900362       0.99552098      -0.36626538
H        0.52272237      -0.76842974       1.54242318
H        1.03156263      -1.92798607       0.41892065
H       -0.70680825      -1.03292543      -1.23322626
H       -1.37981629      -1.78792810       0.23101088
H       -1.75941454       2.18822813      -0.17527269
H        2.02248138       1.46378843       0.34671280
H        1.50380176      -0.48208190      -0.56830724
13
Frame=15 idx=004986 GeodesicLength=0.8589193247469987 rxn_smarts="[C:1]1([H:7])([H:8])[C:2]([H:9])([H:10])[O:3][C:4]([H:11])=[N:5][C:6]1([H:12])[H:13]>>[C:1]([C:2]([O:3][C:4](=[N+:5]=[C-:6][H:12])[H:11])([H:9])[H:10])([H:7])([H:8])[H:13]"
C        0.60691836      -0.92114890       0.46678919
C       -0.78206788      -0.95423909      -0.14310632
O       -1.54609701       0.20754620       0.18609590
C       -1.01850881       1.39692234      -0.16797270
N        0.16451606       1.61879824      -0.52727992
C        1.33829300       0.99904364      -0.36531117
H        0.51201724      -0.78859449       1.54966100
H        1.02469345      -1.93238261       0.42379436
H       -0.70254956      -1.01536432      -1.23277517
H       -1.38090352      -1.78818058       0.22088640
H       -1.76000359       2.18790244      -0.17474061
H        2.02221064       1.48868272       0.33293344
H        1.52148163      -0.49898557      -0.56897442
13
Frame=16 idx=004986 GeodesicLength=0.9159964477806608 rxn_smarts="[C:1]1([H:7])([H:8])[C:2]([H:9])([H:10])[O:3][C:4]([H:11])=[N:5][C:6]1([H:12])[H:13]>>[C:1]([C:2]([O:3][C:4](=[N+:5]=[C-:6][H:12])[H:11])([H:9])[H:10])([H:7])([H:8])[H:13]"
C        0.60734589      -0.92201471       0.47174556
C       -0.78128317      -0.95095681      -0.14197818
O       -1.54307489       0.20856994       0.20099006
C       -1.01986800       1.39593570      -0.16612416
N        0.16006064       1.61270008      -0.53878311
C        1.33750018       1.00280010      -0.36404843
H        0.50102354      -0.80925735       1.55668312
H        1.01784611      -1.93665847       0.42838624
H       -0.69807097      -0.99804093      -1.23207588
H       -1.38202725      -1.78811598       0.21083586
H       -1.76075501       2.18747957      -0.17447656
H        2.02215323       1.51376747       0.31820981
H        1.53914969      -0.51620861      -0.56936434
