19
Frame=0 idx=011857 GeodesicLength=0.0 rxn_smarts="[C:1]([C:2]([C@@:3]1([H:13])[C:4]([H:14])([H:15])[C@:5]1([C:6]([H:16])([H:17])[H:18])[O:7][H:19])([H:11])[H:12])([H:8])([H:9])[H:10]>>[C:1]([C:2]([C@@:3]1([H:13])[C:4]([H:14])=[C:5]1[C:6]([H:16])([H:17])[H:18])([H:11])[H:12])([H:8])([H:9])[H:10].[O:7]([H:15])[H:19]"
C        2.12062202      -0.18038008       0.96287018
C        1.43976979      -0.54952022      -0.35036814
C        0.33473115       0.40918834      -0.74512454
C       -0.82345052       0.02167891      -1.64296272
C       -1.03745786       0.12597195      -0.25780088
C       -1.59189530      -0.66312245       0.86880817
O       -1.99298030       1.62207467      -0.33124997
H        2.93134572      -0.87134562       1.20138105
H        1.41155915      -0.19790893       1.79426499
H        2.54604163       0.82495229       0.91380258
H        1.03590475      -1.56539451      -0.29383094
H        2.17883838      -0.56952063      -1.15720878
H        0.67659229       1.44534187      -0.79055931
H       -0.89849392      -0.88436238      -2.22881308
H       -1.68629785       1.30224200      -1.36070786
H       -2.63493178      -0.92093796       0.68584639
H       -1.51606541      -0.13614912       1.82036961
H       -1.02017618      -1.59086156       0.94382895
H       -1.47365578       2.37805344      -0.03254572
19
Frame=1 idx=011857 GeodesicLength=0.06501630417005687 rxn_smarts="[C:1]([C:2]([C@@:3]1([H:13])[C:4]([H:14])([H:15])[C@:5]1([C:6]([H:16])([H:17])[H:18])[O:7][H:19])([H:11])[H:12])([H:8])([H:9])[H:10]>>[C:1]([C:2]([C@@:3]1([H:13])[C:4]([H:14])=[C:5]1[C:6]([H:16])([H:17])[H:18])([H:11])[H:12])([H:8])([H:9])[H:10].[O:7]([H:15])[H:19]"
C        2.12642475      -0.18420553       0.96203274
C        1.44496334      -0.55049997      -0.35171148
C        0.33739021       0.40708729      -0.74076629
C       -0.82173116       0.01956379      -1.63630962
C       -1.03607561       0.12770828      -0.25207893
C       -1.59501733      -0.66343730       0.87081868
O       -2.00231086       1.63234876      -0.33831127
H        2.93902355      -0.87403651       1.19737419
H        1.41824625      -0.20585882       1.79406192
H        2.54941731       0.82230807       0.91601678
H        1.04311798      -1.56727281      -0.29782107
H        2.18343491      -0.56613151      -1.15925118
H        0.67666688       1.44399664      -0.78692183
H       -0.90254223      -0.88307775      -2.22624297
H       -1.68832852       1.30132235      -1.37890586
H       -2.63617650      -0.92532087       0.68272662
H       -1.52691526      -0.13111387       1.82017843
H       -1.02218374      -1.58971651       0.95337095
H       -1.48740397       2.38633626      -0.02825980
19
Frame=2 idx=011857 GeodesicLength=0.1300174503605423 rxn_smarts="[C:1]([C:2]([C@@:3]1([H:13])[C:4]([H:14])([H:15])[C@:5]1([C:6]([H:16])([H:17])[H:18])[O:7][H:19])([H:11])[H:12])([H:8])([H:9])[H:10]>>[C:1]([C:2]([C@@:3]1([H:13])[C:4]([H:14])=[C:5]1[C:6]([H:16])([H:17])[H:18])([H:11])[H:12])([H:8])([H:9])[H:10].[O:7]([H:15])[H:19]"
C        2.13227513      -0.18810730       0.96117446
C        1.45017730      -0.55147071      -0.35307814
C        0.34006494       0.40498615      -0.73633844
C       -0.82002454       0.01748928      -1.62956994
C       -1.03467180       0.12947073      -0.24627464
C       -1.59812628      -0.66369734       0.87290050
O       -2.01168319       1.64272607      -0.34554793
H        2.94675717      -0.87679425       1.19328237
H        1.42500906      -0.21395632       1.79383773
H        2.55282764       0.81957954       0.91828191
H        1.05035926      -1.56913678      -0.30190447
H        2.18802408      -0.56266780      -1.16131837
H        0.67673949       1.44265291      -0.78318388
H       -0.90657267      -0.88166208      -2.22363262
H       -1.69022390       1.30014584      -1.39749997
H       -2.63735028      -0.92968382       0.67965365
H       -1.53785497      -0.12599955       1.81995359
H       -1.02421727      -1.58846671       0.96308032
H       -1.50150918       2.39459213      -0.02381613
19
Frame=3 idx=011857 GeodesicLength=0.1950071425867988 rxn_smarts="[C:1]([C:2]([C@@:3]1([H:13])[C:4]([H:14])([H:15])[C@:5]1([C:6]([H:16])([H:17])[H:18])[O:7][H:19])([H:11])[H:12])([H:8])([H:9])[H:10]>>[C:1]([C:2]([C@@:3]1([H:13])[C:4]([H:14])=[C:5]1[C:6]([H:16])([H:17])[H:18])([H:11])[H:12])([H:8])([H:9])[H:10].[O:7]([H:15])[H:19]"
C        2.13817301      -0.19208679       0.96029404
C        1.45541122      -0.55243173      -0.35446921
C        0.34275571       0.40288543      -0.73184093
C       -0.81833216       0.01545884      -1.62274229
C       -1.03324506       0.13125986      -0.24038596
C       -1.60122193      -0.66390042       0.87505583
O       -2.02108999       1.65321345      -0.35296219
H        2.95454578      -0.87962013       1.18910362
H        1.43184746      -0.22220395       1.79358996
H        2.55627288       0.81676448       0.92059852
H        1.05762754      -1.57098497      -0.30608390
H        2.19260514      -0.55912791      -1.16341059
H        0.67681161       1.44131081      -0.77934527
H       -0.91058241      -0.88011227      -2.22097930
H       -1.69197439       1.29869896      -1.41650351
H       -2.63845242      -0.93402325       0.67663031
H       -1.54888400      -0.12080454       1.81969379
H       -1.02627904      -1.58710895       0.97295932
H       -1.51598897       2.40281306      -0.01920225
19
Frame=4 idx=011857 GeodesicLength=0.2599902461908853 rxn_smarts="[C:1]([C:2]([C@@:3]1([H:13])[C:4]([H:14])([H:15])[C@:5]1([C:6]([H:16])([H:17])[H:18])[O:7][H:19])([H:11])[H:12])([H:8])([H:9])[H:10]>>[C:1]([C:2]([C@@:3]1([H:13])[C:4]([H:14])=[C:5]1[C:6]([H:16])([H:17])[H:18])([H:11])[H:12])([H:8])([H:9])[H:10].[O:7]([H:15])[H:19]"
C        2.14411812      -0.19614526       0.95939009
C        1.46066451      -0.55338215      -0.35588584
C        0.34546276       0.40078581      -0.72727374
C       -0.81665528       0.01347579      -1.61582562
C       -1.03179420       0.13307659      -0.23441121
C       -1.60430455      -0.66404396       0.87728640
O       -2.03052386       1.66381849      -0.36055646
H        2.96238882      -0.88251514       1.18483558
H        1.43876132      -0.23060441       1.79331610
H        2.55975307       0.81386081       0.92296715
H        1.06492160      -1.57281573      -0.31036210
H        2.19717716      -0.55551017      -1.16552812
H        0.67688471       1.43997067      -0.77540599
H       -0.91456810      -0.87842664      -2.21827967
H       -1.69357023       1.29696678      -1.43593117
H       -2.63948247      -0.93833539       0.67365914
H       -1.56000164      -0.11552660       1.81939749
H       -1.02837166      -1.58563967       0.98300996
H       -1.53086007       2.41099018      -0.01440201
19
Frame=5 idx=011857 GeodesicLength=0.32497746777590025 rxn_smarts="[C:1]([C:2]([C@@:3]1([H:13])[C:4]([H:14])([H:15])[C@:5]1([C:6]([H:16])([H:17])[H:18])[O:7][H:19])([H:11])[H:12])([H:8])([H:9])[H:10]>>[C:1]([C:2]([C@@:3]1([H:13])[C:4]([H:14])=[C:5]1[C:6]([H:16])([H:17])[H:18])([H:11])[H:12])([H:8])([H:9])[H:10].[O:7]([H:15])[H:19]"
C        2.15010999      -0.20028403       0.95846120
C        1.46593631      -0.55432075      -0.35732928
C        0.34818598       0.39868817      -0.72263668
C       -0.81499584       0.01154320      -1.60881880
C       -1.03031839       0.13492191      -0.22834834
C       -1.60737431      -0.66412555       0.87959425
O       -2.03997838       1.67454909      -0.36833139
H        2.97028565      -0.88548012       1.18047561
H        1.44575045      -0.23916099       1.79301360
H        2.56326763       0.81086651       0.92538872
H        1.07224010      -1.57462706      -0.31474224
H        2.20173887      -0.55181229      -1.16767132
H        0.67695983       1.43863290      -0.77136611
H       -0.91852622      -0.87660329      -2.21552973
H       -1.69499926       1.29493383      -1.45579941
H       -2.64043982      -0.94261686       0.67074332
H       -1.57120730      -0.11016402       1.81906359
H       -1.03049767      -1.58405568       0.99323402
H       -1.54613760       2.41911504      -0.00940102
19
Frame=6 idx=011857 GeodesicLength=0.3899665921071334 rxn_smarts="[C:1]([C:2]([C@@:3]1([H:13])[C:4]([H:14])([H:15])[C@:5]1([C:6]([H:16])([H:17])[H:18])[O:7][H:19])([H:11])[H:12])([H:8])([H:9])[H:10]>>[C:1]([C:2]([C@@:3]1([H:13])[C:4]([H:14])=[C:5]1[C:6]([H:16])([H:17])[H:18])([H:11])[H:12])([H:8])([H:9])[H:10].[O:7]([H:15])[H:19]"
C        2.15614876      -0.20450523       0.95750572
C        1.47122603      -0.55524667      -0.35880081
C        0.35092594       0.39659364      -0.71792933
C       -0.81335528       0.00966604      -1.60172028
C       -1.02881605       0.13679722      -0.22219499
C       -1.61043103      -0.66414230       0.88198188
O       -2.04944462       1.68541413      -0.37628848
H        2.97823566      -0.88851739       1.17602073
H        1.45281515      -0.24787720       1.79267961
H        2.56681746       0.80777845       0.92786388
H        1.07958141      -1.57641715      -0.31922763
H        2.20628928      -0.54803240      -1.16984076
H        0.67703903       1.43729824      -0.76722447
H       -0.92245287      -0.87464010      -2.21272515
H       -1.69624906       1.29258449      -1.47612108
H       -2.64132394      -0.94686342       0.66788542
H       -1.58250011      -0.10471500       1.81869075
H       -1.03265962      -1.58235278       1.00363391
H       -1.56184614       2.42717743      -0.00418889
19
Frame=7 idx=011857 GeodesicLength=0.454962529483108 rxn_smarts="[C:1]([C:2]([C@@:3]1([H:13])[C:4]([H:14])([H:15])[C@:5]1([C:6]([H:16])([H:17])[H:18])[O:7][H:19])([H:11])[H:12])([H:8])([H:9])[H:10]>>[C:1]([C:2]([C@@:3]1([H:13])[C:4]([H:14])=[C:5]1[C:6]([H:16])([H:17])[H:18])([H:11])[H:12])([H:8])([H:9])[H:10].[O:7]([H:15])[H:19]"
C        2.16223442      -0.20881110       0.95652194
C        1.47653295      -0.55615863      -0.36030194
C        0.35368272       0.39450349      -0.71315093
C       -0.81173567       0.00784912      -1.59452825
C       -1.02728571       0.13870364      -0.21594804
C       -1.61347486      -0.66409152       0.88445208
O       -2.05891600       1.69642175      -0.38442932
H        2.98623861      -0.89162888       1.17146748
H        1.45995587      -0.25675754       1.79231126
H        2.57040287       0.80459338       0.93039380
H        1.08694414      -1.57818386      -0.32382223
H        2.21082697      -0.54416781      -1.17203706
H        0.67712369       1.43596758      -0.76297953
H       -0.92634427      -0.87253488      -2.20986060
H       -1.69730582       1.28990351      -1.49691307
H       -2.64213409      -0.95107174       0.66508861
H       -1.59387960      -0.09917773       1.81827806
H       -1.03485979      -1.58052699       1.01421251
H       -1.57800643       2.43516823       0.00124523
19
Frame=8 idx=011857 GeodesicLength=0.5199644638609789 rxn_smarts="[C:1]([C:2]([C@@:3]1([H:13])[C:4]([H:14])([H:15])[C@:5]1([C:6]([H:16])([H:17])[H:18])[O:7][H:19])([H:11])[H:12])([H:8])([H:9])[H:10]>>[C:1]([C:2]([C@@:3]1([H:13])[C:4]([H:14])=[C:5]1[C:6]([H:16])([H:17])[H:18])([H:11])[H:12])([H:8])([H:9])[H:10].[O:7]([H:15])[H:19]"
C        2.16836669      -0.21320375       0.95550805
C        1.48185618      -0.55705547      -0.36183420
C        0.35645671       0.39241909      -0.70830137
C       -0.81013861       0.00609695      -1.58724167
C       -1.02572627       0.14064316      -0.20960571
C       -1.61650566      -0.66396993       0.88700688
O       -2.06838209       1.70758325      -0.39275346
H        2.99429345      -0.89481687       1.16681260
H        1.46717237      -0.26580596       1.79190551
H        2.57402422       0.80130819       0.93297924
H        1.09432624      -1.57992495      -0.32852968
H        2.21535070      -0.54021641      -1.17426076
H        0.67721575       1.43464186      -0.75863071
H       -0.93019546      -0.87028607      -2.20693105
H       -1.69815392       1.28687267      -1.51818882
H       -2.64286989      -0.95523662       0.66235650
H       -1.60534398      -0.09354890       1.81782458
H       -1.03710092      -1.57857482       1.02497092
H       -1.59464551       2.44307457       0.00691316
19
Frame=9 idx=011857 GeodesicLength=0.5849619480582052 rxn_smarts="[C:1]([C:2]([C@@:3]1([H:13])[C:4]([H:14])([H:15])[C@:5]1([C:6]([H:16])([H:17])[H:18])[O:7][H:19])([H:11])[H:12])([H:8])([H:9])[H:10]>>[C:1]([C:2]([C@@:3]1([H:13])[C:4]([H:14])=[C:5]1[C:6]([H:16])([H:17])[H:18])([H:11])[H:12])([H:8])([H:9])[H:10].[O:7]([H:15])[H:19]"
C        2.17454563      -0.21768572       0.95446217
C        1.48719492      -0.55793587      -0.36339916
C        0.35924826       0.39034198      -0.70338000
C       -0.80856557       0.00441473      -1.57985928
C       -1.02413623       0.14261732      -0.20316549
C       -1.61952350      -0.66377420       0.88964887
O       -2.07783496       1.71890826      -0.40126371
H        3.00239979      -0.89808380       1.16205241
H        1.47446525      -0.27502681       1.79145902
H        2.57768225       0.79791914       0.93562109
H        1.10172591      -1.58163798      -0.33335410
H        2.21985911      -0.53617575      -1.17651255
H        0.67731705       1.43332212      -0.75417631
H       -0.93400151      -0.86789268      -2.20393034
H       -1.69878004       1.28347708      -1.53996175
H       -2.64353052      -0.95935391       0.65969206
H       -1.61689317      -0.08782648       1.81732892
H       -1.03938547      -1.57649123       1.03591222
H       -1.61178720       2.45088381       0.01282594
19
Frame=10 idx=011857 GeodesicLength=0.6499740113287424 rxn_smarts="[C:1]([C:2]([C@@:3]1([H:13])[C:4]([H:14])([H:15])[C@:5]1([C:6]([H:16])([H:17])[H:18])[O:7][H:19])([H:11])[H:12])([H:8])([H:9])[H:10]>>[C:1]([C:2]([C@@:3]1([H:13])[C:4]([H:14])=[C:5]1[C:6]([H:16])([H:17])[H:18])([H:11])[H:12])([H:8])([H:9])[H:10].[O:7]([H:15])[H:19]"
C        2.18077083      -0.22225939       0.95338197
C        1.49254765      -0.55879802      -0.36499866
C        0.36205710       0.38827438      -0.69838592
C       -0.80702007       0.00280969      -1.57237896
C       -1.02251451       0.14462875      -0.19662357
C       -1.62252837      -0.66350150       0.89238097
O       -2.08726558       1.73040904      -0.40995403
H        3.01055654      -0.90143209       1.15718231
H        1.48183449      -0.28442505       1.79096827
H        2.58137727       0.79442257       0.93832035
H        1.10914033      -1.58331999      -0.33830002
H        2.22434984      -0.53204252      -1.17879350
H        0.67742932       1.43201018      -0.74961456
H       -0.93775748      -0.86535437      -2.20085052
H       -1.69916025       1.27969442      -1.56225108
H       -2.64411568      -0.96341928       0.65709900
H       -1.62852511      -0.08200977       1.81679060
H       -1.04171672      -1.57427288       1.04703708
H       -1.62945960       2.45858581       0.01899026
19
Frame=11 idx=011857 GeodesicLength=0.714992388177845 rxn_smarts="[C:1]([C:2]([C@@:3]1([H:13])[C:4]([H:14])([H:15])[C@:5]1([C:6]([H:16])([H:17])[H:18])[O:7][H:19])([H:11])[H:12])([H:8])([H:9])[H:10]>>[C:1]([C:2]([C@@:3]1([H:13])[C:4]([H:14])=[C:5]1[C:6]([H:16])([H:17])[H:18])([H:11])[H:12])([H:8])([H:9])[H:10].[O:7]([H:15])[H:19]"
C        2.18704245      -0.22692756       0.95226492
C        1.49791333      -0.55964071      -0.36663462
C        0.36488384       0.38621819      -0.69331875
C       -0.80550381       0.00128828      -1.56479996
C       -1.02085936       0.14667993      -0.18997762
C       -1.62552039      -0.66314757       0.89520552
O       -2.09666053       1.74210076      -0.41882383
H        3.01876302      -0.90486483       1.15219810
H        1.48928062      -0.29400493       1.79042940
H        2.58511084       0.79081414       0.94107725
H        1.11656672      -1.58496838      -0.34337166
H        2.22882141      -0.52781475      -1.18110453
H        0.67755506       1.43070757      -0.74494380
H       -0.94145737      -0.86267202      -2.19768385
H       -1.69927337       1.27550692      -1.58506963
H       -2.64462555      -0.96742540       0.65458113
H       -1.64023760      -0.07609618       1.81620893
H       -1.04409817      -1.57191540       1.05834660
H       -1.64770115       2.46616196       0.02541641
19
Frame=12 idx=011857 GeodesicLength=0.7800112806131366 rxn_smarts="[C:1]([C:2]([C@@:3]1([H:13])[C:4]([H:14])([H:15])[C@:5]1([C:6]([H:16])([H:17])[H:18])[O:7][H:19])([H:11])[H:12])([H:8])([H:9])[H:10]>>[C:1]([C:2]([C@@:3]1([H:13])[C:4]([H:14])=[C:5]1[C:6]([H:16])([H:17])[H:18])([H:11])[H:12])([H:8])([H:9])[H:10].[O:7]([H:15])[H:19]"
C        2.19336052      -0.23169387       0.95110881
C        1.50329062      -0.56046181      -0.36830889
C        0.36772836       0.38417607      -0.68817654
C       -0.80401956      -0.00014171      -1.55711978
C       -1.01916942       0.14877331      -0.18322310
C       -1.62849926      -0.66270963       0.89812607
O       -2.10601378       1.75399434      -0.42786860
H        3.02701879      -0.90838576       1.14709439
H        1.49680431      -0.30377348       1.78983871
H        2.58888358       0.78708891       0.94389371
H        1.12400256      -1.58657969      -0.34857470
H        2.23327151      -0.52348823      -1.18344666
H        0.67769612       1.42941638      -0.74016015
H       -0.94509615      -0.85984568      -2.19442099
H       -1.69909898       1.27089882      -1.60843055
H       -2.64505906      -0.97136942       0.65214170
H       -1.65202859      -0.07008511       1.81558410
H       -1.04653199      -1.56941502       1.06984276
H       -1.66653957       2.47360157       0.03209972
19
Frame=13 idx=011857 GeodesicLength=0.845033092877634 rxn_smarts="[C:1]([C:2]([C@@:3]1([H:13])[C:4]([H:14])([H:15])[C@:5]1([C:6]([H:16])([H:17])[H:18])[O:7][H:19])([H:11])[H:12])([H:8])([H:9])[H:10]>>[C:1]([C:2]([C@@:3]1([H:13])[C:4]([H:14])=[C:5]1[C:6]([H:16])([H:17])[H:18])([H:11])[H:12])([H:8])([H:9])[H:10].[O:7]([H:15])[H:19]"
C        2.19972443      -0.23656073       0.94991064
C        1.50867764      -0.56125945      -0.37002365
C        0.37059049       0.38215042      -0.68295901
C       -0.80257083      -0.00147221      -1.54933732
C       -1.01744365       0.15091188      -0.17635707
C       -1.63146521      -0.66218409       0.90114504
O       -2.11531412       1.76610496      -0.43708391
H        3.03532221      -0.91199765       1.14186625
H        1.50440543      -0.31373488       1.78919172
H        2.59269622       0.78324276       0.94676982
H        1.13144415      -1.58815052      -0.35391386
H        2.23769758      -0.51906014      -1.18582116
H        0.67785447       1.42813859      -0.73526202
H       -0.94866709      -0.85687662      -2.19105237
H       -1.69860930       1.26584738      -1.63235112
H       -2.64541631      -0.97524505       0.64978480
H       -1.66389607      -0.06397458       1.81491562
H       -1.04902167      -1.56676728       1.08152642
H       -1.68600836       2.48088719       0.03905117
19
Frame=14 idx=011857 GeodesicLength=0.9100516987880868 rxn_smarts="[C:1]([C:2]([C@@:3]1([H:13])[C:4]([H:14])([H:15])[C@:5]1([C:6]([H:16])([H:17])[H:18])[O:7][H:19])([H:11])[H:12])([H:8])([H:9])[H:10]>>[C:1]([C:2]([C@@:3]1([H:13])[C:4]([H:14])=[C:5]1[C:6]([H:16])([H:17])[H:18])([H:11])[H:12])([H:8])([H:9])[H:10].[O:7]([H:15])[H:19]"
C        2.20613469      -0.24153264       0.94866740
C        1.51407290      -0.56203179      -0.37178122
C        0.37347064       0.38014446      -0.67766426
C       -0.80116031      -0.00269282      -1.54144987
C       -1.01567999       0.15309921      -0.16937468
C       -1.63441780      -0.66156707       0.90426612
O       -2.12454968       1.77844862      -0.44646321
H        3.04367258      -0.91570567       1.13650744
H        1.51208507      -0.32389588       1.78848400
H        2.59655140       0.77926929       0.94970647
H        1.13888775      -1.58967734      -0.35939499
H        2.24209709      -0.51452712      -1.18822953
H        0.67803304       1.42687704      -0.73024428
H       -0.95216403      -0.85376515      -2.18756673
H       -1.69777574       1.26033380      -1.65684446
H       -2.64569720      -0.97904567       0.64751540
H       -1.67583575      -0.05776328       1.81420457
H       -1.05157057      -1.56396881       1.09339790
H       -1.70615410       2.48800082       0.04626393
19
Frame=15 idx=011857 GeodesicLength=0.9750576436592977 rxn_smarts="[C:1]([C:2]([C@@:3]1([H:13])[C:4]([H:14])([H:15])[C@:5]1([C:6]([H:16])([H:17])[H:18])[O:7][H:19])([H:11])[H:12])([H:8])([H:9])[H:10]>>[C:1]([C:2]([C@@:3]1([H:13])[C:4]([H:14])=[C:5]1[C:6]([H:16])([H:17])[H:18])([H:11])[H:12])([H:8])([H:9])[H:10].[O:7]([H:15])[H:19]"
C        2.21259088      -0.24661314       0.94737587
C        1.51947443      -0.56277645      -0.37358399
C        0.37636867       0.37816137      -0.67229113
C       -0.79979152      -0.00379416      -1.53345584
C       -1.01387729       0.15533892      -0.16227212
C       -1.63735664      -0.66085436       0.90749267
O       -2.13371008       1.79104197      -0.45599890
H        3.05206853      -0.91951378       1.13101189
H        1.51984342      -0.33426289       1.78771063
H        2.60045004       0.77516305       0.95270451
H        1.14632934      -1.59115605      -0.36502407
H        2.24646729      -0.50988522      -1.19067308
H        0.67823404       1.42563436      -0.72510356
H       -0.95558028      -0.85051422      -2.18395190
H       -1.69656839       1.25433882      -1.68192295
H       -2.64590127      -0.98276522       0.64533809
H       -1.68784483      -0.05145116       1.81345123
H       -1.05418178      -1.56101548       1.10545756
H       -1.72701455       2.49492362       0.05373509
19
Frame=16 idx=011857 GeodesicLength=1.040043866387946 rxn_smarts="[C:1]([C:2]([C@@:3]1([H:13])[C:4]([H:14])([H:15])[C@:5]1([C:6]([H:16])([H:17])[H:18])[O:7][H:19])([H:11])[H:12])([H:8])([H:9])[H:10]>>[C:1]([C:2]([C@@:3]1([H:13])[C:4]([H:14])=[C:5]1[C:6]([H:16])([H:17])[H:18])([H:11])[H:12])([H:8])([H:9])[H:10].[O:7]([H:15])[H:19]"
C        2.21909299      -0.25180674       0.94603238
C        1.52488014      -0.56349106      -0.37543471
C        0.37928466       0.37620488      -0.66683797
C       -0.79846771      -0.00476508      -1.52535346
C       -1.01203404       0.15763531      -0.15504516
C       -1.64028140      -0.66004135       0.91082814
O       -2.14278386       1.80390318      -0.46568237
H        3.06050887      -0.92342718       1.12537238
H        1.52768122      -0.34484318       1.78686631
H        2.60439422       0.77091739       0.95576472
H        1.15376431      -1.59258235      -0.37080764
H        2.25080509      -0.50513052      -1.19315361
H        0.67846028       1.42441387      -0.71983497
H       -0.95890855      -0.84712724      -2.18019418
H       -1.69495280       1.24784171      -1.70760043
H       -2.64602851      -0.98639629       0.64325767
H       -1.69991932      -0.04503584       1.81265667
H       -1.05685841      -1.55790283       1.11770587
H       -1.74863718       2.50163331       0.06146034
