14
Frame=0 idx=009163 GeodesicLength=0.0 rxn_smarts="[C:1]([n:2]1[c:3]([H:11])[c:4]([H:12])[c:5]([H:13])[c:6]1[O:7][H:14])([H:8])([H:9])[H:10]>>[C:1]([C@:6]1([O:7][H:14])[N:2]=[C:3]([H:11])[C:4]([H:12])=[C:5]1[H:13])([H:8])([H:9])[H:10]"
C       -1.25687668       0.28004473       0.84228985
N       -0.61528892      -0.16822004      -0.89205046
C        0.02306922      -1.35429354      -0.78116518
C        1.26403343      -1.19343461      -0.16653595
C        1.42252303       0.15120268       0.14566249
C        0.24417746       0.76406646      -0.29484503
O        0.09710123       2.08770600      -0.53226928
H       -1.20632736       1.27450222       1.28516108
H       -0.83521555      -0.49792437       1.46873369
H       -2.26894834       0.06136558       0.52219332
H       -0.45798732      -2.26441939      -1.10554520
H        1.97613798      -1.98155564       0.03375983
H        2.26566555       0.64393020       0.60057905
H       -0.65206375       2.19702970      -1.12596818
14
Frame=1 idx=009163 GeodesicLength=0.07508152868136014 rxn_smarts="[C:1]([n:2]1[c:3]([H:11])[c:4]([H:12])[c:5]([H:13])[c:6]1[O:7][H:14])([H:8])([H:9])[H:10]>>[C:1]([C@:6]1([O:7][H:14])[N:2]=[C:3]([H:11])[C:4]([H:12])=[C:5]1[H:13])([H:8])([H:9])[H:10]"
C       -1.27237943       0.28278037       0.84722957
N       -0.61825666      -0.16619425      -0.87448872
C        0.01975619      -1.35193521      -0.78114028
C        1.26904101      -1.19691719      -0.17853377
C        1.42761878       0.14402412       0.14532695
C        0.24005468       0.76208986      -0.26987700
O        0.10223935       2.08880503      -0.50158457
H       -1.29088580       1.29343381       1.25405518
H       -0.83140148      -0.44421379       1.52050353
H       -2.27333530      -0.00659971       0.54684970
H       -0.46316369      -2.25865404      -1.11274808
H        1.99322246      -1.98263062      -0.01617732
H        2.27902733       0.63335472       0.58876003
H       -0.58153745       2.20265691      -1.16817522
14
Frame=2 idx=009163 GeodesicLength=0.14797839033440216 rxn_smarts="[C:1]([n:2]1[c:3]([H:11])[c:4]([H:12])[c:5]([H:13])[c:6]1[O:7][H:14])([H:8])([H:9])[H:10]>>[C:1]([C@:6]1([O:7][H:14])[N:2]=[C:3]([H:11])[C:4]([H:12])=[C:5]1[H:13])([H:8])([H:9])[H:10]"
C       -1.28740480       0.28465229       0.85260937
N       -0.62198209      -0.16441255      -0.85718766
C        0.01646270      -1.34924790      -0.78265670
C        1.27327461      -1.19991150      -0.19079406
C        1.43207799       0.13740317       0.14398950
C        0.23542362       0.75992384      -0.24562638
O        0.10446872       2.08938455      -0.47192187
H       -1.37548191       1.30728631       1.21793657
H       -0.82859563      -0.38571195       1.57180152
H       -2.27271193      -0.07529531       0.57544848
H       -0.46837234      -2.25263933      -1.12101997
H        2.00746860      -1.98268939      -0.06355220
H        2.29099736       0.62384589       0.57636672
H       -0.50562490       2.20741188      -1.20539331
14
Frame=3 idx=009163 GeodesicLength=0.21873640760754057 rxn_smarts="[C:1]([n:2]1[c:3]([H:11])[c:4]([H:12])[c:5]([H:13])[c:6]1[O:7][H:14])([H:8])([H:9])[H:10]>>[C:1]([C@:6]1([O:7][H:14])[N:2]=[C:3]([H:11])[C:4]([H:12])=[C:5]1[H:13])([H:8])([H:9])[H:10]"
C       -1.30180123       0.28529826       0.85777390
N       -0.62604673      -0.16255339      -0.84095254
C        0.01367913      -1.34582831      -0.78695303
C        1.27709538      -1.20217442      -0.20411838
C        1.43600984       0.13144302       0.14156465
C        0.23051927       0.75774791      -0.22242494
O        0.10397598       2.08970419      -0.44331449
H       -1.45950610       1.31487526       1.17704157
H       -0.82736891      -0.32300112       1.62125386
H       -2.26672507      -0.14425994       0.60690468
H       -0.47545394      -2.24685469      -1.12600139
H        2.01920754      -1.98187808      -0.10845458
H        2.30154544       0.61539350       0.56380982
H       -0.42513061       2.21208781      -1.23612913
14
Frame=4 idx=009163 GeodesicLength=0.28764150001356864 rxn_smarts="[C:1]([n:2]1[c:3]([H:11])[c:4]([H:12])[c:5]([H:13])[c:6]1[O:7][H:14])([H:8])([H:9])[H:10]>>[C:1]([C@:6]1([O:7][H:14])[N:2]=[C:3]([H:11])[C:4]([H:12])=[C:5]1[H:13])([H:8])([H:9])[H:10]"
C       -1.31546700       0.28532090       0.86323371
N       -0.63078496      -0.16116643      -0.82519749
C        0.01093795      -1.34217969      -0.79294297
C        1.28028627      -1.20402892      -0.21791263
C        1.43921063       0.12590138       0.13832880
C        0.22524392       0.75529715      -0.20043637
O        0.10089111       2.08939199      -0.41685625
H       -1.54198629       1.31645742       1.13192825
H       -0.82823118      -0.25520352       1.66906085
H       -2.25538520      -0.21210237       0.64200417
H       -0.48259841      -2.24122137      -1.13145927
H        2.02883140      -1.98048222      -0.15097839
H        2.31045945       0.60781681       0.55142795
H       -0.34140769       2.21619887      -1.26020035
14
Frame=5 idx=009163 GeodesicLength=0.35492503923779434 rxn_smarts="[C:1]([n:2]1[c:3]([H:11])[c:4]([H:12])[c:5]([H:13])[c:6]1[O:7][H:14])([H:8])([H:9])[H:10]>>[C:1]([C@:6]1([O:7][H:14])[N:2]=[C:3]([H:11])[C:4]([H:12])=[C:5]1[H:13])([H:8])([H:9])[H:10]"
C       -1.32834666       0.28459980       0.86846092
N       -0.63580645      -0.16003531      -0.81046902
C        0.00854576      -1.33806248      -0.80134327
C        1.28317770      -1.20535178      -0.23282690
C        1.44179064       0.12071365       0.13442949
C        0.21983819       0.75267547      -0.17982460
O        0.09565611       2.08862788      -0.39242541
H       -1.62248142       1.31133237       1.08308625
H       -0.83190123      -0.18281078       1.71399621
H       -2.23857172      -0.27836155       0.67974617
H       -0.49101013      -2.23615883      -1.13412789
H        2.03665983      -1.97870866      -0.19130075
H        2.31803620       0.60098464       0.53915734
H       -0.25558681       2.22055558      -1.27655853
14
Frame=6 idx=009163 GeodesicLength=0.4208355747085495 rxn_smarts="[C:1]([n:2]1[c:3]([H:11])[c:4]([H:12])[c:5]([H:13])[c:6]1[O:7][H:14])([H:8])([H:9])[H:10]>>[C:1]([C@:6]1([O:7][H:14])[N:2]=[C:3]([H:11])[C:4]([H:12])=[C:5]1[H:13])([H:8])([H:9])[H:10]"
C       -1.34041929       0.28394170       0.87409615
N       -0.64145061      -0.15985666      -0.79591520
C        0.00596058      -1.33419138      -0.81053138
C        1.28565939      -1.20652364      -0.24824694
C        1.44356307       0.11553793       0.13033226
C        0.21420032       0.74958159      -0.16061234
O        0.08854043       2.08698845      -0.37110523
H       -1.70005925       1.30017949       1.03146478
H       -0.83891795      -0.10501039       1.75616196
H       -2.21658567      -0.34145845       0.72112446
H       -0.49866583      -2.23149304      -1.13844240
H        2.04338913      -1.97654318      -0.23041527
H        2.32391035       0.59452916       0.52797209
H       -0.16912466       2.22431842      -1.28588292
14
Frame=7 idx=009163 GeodesicLength=0.4856189692631169 rxn_smarts="[C:1]([n:2]1[c:3]([H:11])[c:4]([H:12])[c:5]([H:13])[c:6]1[O:7][H:14])([H:8])([H:9])[H:10]>>[C:1]([C@:6]1([O:7][H:14])[N:2]=[C:3]([H:11])[C:4]([H:12])=[C:5]1[H:13])([H:8])([H:9])[H:10]"
C       -1.35170970       0.28327604       0.87964187
N       -0.64732480      -0.16038780      -0.78198286
C        0.00342885      -1.33035910      -0.82102795
C        1.28815820      -1.20733732      -0.26507444
C        1.44469168       0.11028229       0.12619211
C        0.20855949       0.74613107      -0.14282255
O        0.08003001       2.08467232      -0.35249383
H       -1.77448750       1.28259000       0.97776983
H       -0.84996992      -0.02262122       1.79425433
H       -2.18947510      -0.40103923       0.76513585
H       -0.50673379      -2.22762228      -1.14111959
H        2.04925973      -1.97412585      -0.26857992
H        2.32845451       0.58826159       0.51777956
H       -0.08288165       2.22827948      -1.28767240
14
Frame=8 idx=009163 GeodesicLength=0.5494630202232621 rxn_smarts="[C:1]([n:2]1[c:3]([H:11])[c:4]([H:12])[c:5]([H:13])[c:6]1[O:7][H:14])([H:8])([H:9])[H:10]>>[C:1]([C@:6]1([O:7][H:14])[N:2]=[C:3]([H:11])[C:4]([H:12])=[C:5]1[H:13])([H:8])([H:9])[H:10]"
C       -1.36234252       0.28320250       0.88544802
N       -0.65356390      -0.16209400      -0.76805009
C        0.00062394      -1.32711071      -0.83155515
C        1.29086077      -1.20789529      -0.28335877
C        1.44510062       0.10467091       0.12247506
C        0.20286948       0.74213890      -0.12631805
O        0.07045422       2.08141899      -0.33719648
H       -1.84518393       1.25924479       0.92306060
H       -0.86557629       0.06437509       1.82789909
H       -2.15777758      -0.45580176       0.81225061
H       -0.51418066      -2.22458835      -1.14429557
H        2.05504275      -1.97113939      -0.30726139
H        2.33139780       0.58179667       0.50970050
H        0.00227530       2.23178164      -1.28279839
14
Frame=9 idx=009163 GeodesicLength=0.6125659586007162 rxn_smarts="[C:1]([n:2]1[c:3]([H:11])[c:4]([H:12])[c:5]([H:13])[c:6]1[O:7][H:14])([H:8])([H:9])[H:10]>>[C:1]([C@:6]1([O:7][H:14])[N:2]=[C:3]([H:11])[C:4]([H:12])=[C:5]1[H:13])([H:8])([H:9])[H:10]"
C       -1.37247453       0.28385598       0.89128599
N       -0.65996383      -0.16493249      -0.75416150
C       -0.00242605      -1.32450921      -0.84193454
C        1.29414336      -1.20796079      -0.30389620
C        1.44489618       0.09856303       0.11940020
C        0.19723624       0.73762479      -0.11095414
O        0.06021277       2.07727252      -0.32501087
H       -1.91202930       1.23032829       0.86814290
H       -0.88624489       0.15511788       1.85615402
H       -2.12188858      -0.50517609       0.86191822
H       -0.52144503      -2.22271030      -1.14632561
H        2.06109511      -1.96744020      -0.34720153
H        2.33294282       0.57488658       0.50394716
H        0.08594572       2.23508002      -1.27136410
14
Frame=10 idx=009163 GeodesicLength=0.6751004701906127 rxn_smarts="[C:1]([n:2]1[c:3]([H:11])[c:4]([H:12])[c:5]([H:13])[c:6]1[O:7][H:14])([H:8])([H:9])[H:10]>>[C:1]([C@:6]1([O:7][H:14])[N:2]=[C:3]([H:11])[C:4]([H:12])=[C:5]1[H:13])([H:8])([H:9])[H:10]"
C       -1.38258062       0.28579334       0.89720428
N       -0.66648458      -0.16927543      -0.73979000
C       -0.00588395      -1.32314227      -0.85086885
C        1.29839574      -1.20743320      -0.32709001
C        1.44398850       0.09157835       0.11780594
C        0.19163323       0.73239609      -0.09632421
O        0.04974334       2.07198475      -0.31632042
H       -1.97487386       1.19684183       0.81372799
H       -0.91267120       0.24894767       1.87849574
H       -2.08293114      -0.54790730       0.91404231
H       -0.52826866      -2.22252780      -1.14668386
H        2.06880727      -1.96170974      -0.39198820
H        2.33283932       0.56702048       0.50194108
H        0.16828660       2.23743323      -1.25415182
14
Frame=11 idx=009163 GeodesicLength=0.7370746796976043 rxn_smarts="[C:1]([n:2]1[c:3]([H:11])[c:4]([H:12])[c:5]([H:13])[c:6]1[O:7][H:14])([H:8])([H:9])[H:10]>>[C:1]([C@:6]1([O:7][H:14])[N:2]=[C:3]([H:11])[C:4]([H:12])=[C:5]1[H:13])([H:8])([H:9])[H:10]"
C       -1.39177079       0.28793461       0.90227111
N       -0.67270781      -0.17374512      -0.72671002
C       -0.00931093      -1.32151474      -0.86165084
C        1.30377271      -1.20507724      -0.35581475
C        1.44314852       0.08448350       0.11503078
C        0.18644138       0.72719806      -0.08329687
O        0.03909496       2.06658605      -0.30935188
H       -2.03395077       1.15726082       0.76079376
H       -0.94345663       0.34340907       1.89336764
H       -2.03905109      -0.58578158       0.96715998
H       -0.53630616      -2.22362500      -1.14150348
H        2.07441136      -1.95787432      -0.43178481
H        2.33217138       0.55850964       0.50087228
H        0.24751387       2.24223624      -1.22938290
14
Frame=12 idx=009163 GeodesicLength=0.798825659624524 rxn_smarts="[C:1]([n:2]1[c:3]([H:11])[c:4]([H:12])[c:5]([H:13])[c:6]1[O:7][H:14])([H:8])([H:9])[H:10]>>[C:1]([C@:6]1([O:7][H:14])[N:2]=[C:3]([H:11])[C:4]([H:12])=[C:5]1[H:13])([H:8])([H:9])[H:10]"
C       -1.40142464       0.29197265       0.90793152
N       -0.67925037      -0.18032261      -0.71183161
C       -0.01349504      -1.32186042      -0.86869132
C        1.30997174      -1.20185010      -0.38665235
C        1.44147967       0.07607934       0.11465318
C        0.18111172       0.72098968      -0.07012337
O        0.02859520       2.05945804      -0.30639143
H       -2.08906046       1.11425822       0.70946339
H       -0.98022852       0.44052386       1.90191690
H       -1.99351694      -0.61530761       1.02356229
H       -0.54218604      -2.22615985      -1.13887376
H        2.08227549      -1.95099319      -0.47821315
H        2.33025433       0.54880488       0.50301942
H        0.32547387       2.24440712      -1.19976972
14
Frame=13 idx=009163 GeodesicLength=0.8606328809863882 rxn_smarts="[C:1]([n:2]1[c:3]([H:11])[c:4]([H:12])[c:5]([H:13])[c:6]1[O:7][H:14])([H:8])([H:9])[H:10]>>[C:1]([C@:6]1([O:7][H:14])[N:2]=[C:3]([H:11])[C:4]([H:12])=[C:5]1[H:13])([H:8])([H:9])[H:10]"
C       -1.41058693       0.29671875       0.91332240
N       -0.68567706      -0.18749943      -0.69722632
C       -0.01787723      -1.32263661      -0.87582008
C        1.31697501      -1.19652100      -0.42263764
C        1.43976592       0.06719289       0.11356017
C        0.17602218       0.71466558      -0.05788820
O        0.01800890       2.05193714      -0.30575684
H       -2.14075563       1.06594437       0.66059161
H       -1.02159787       0.53787181       1.90288306
H       -1.94387421      -0.63859893       1.08196054
H       -0.54775764      -2.22976616      -1.13469458
H        2.08835748      -1.94563264      -0.52059139
H        2.32805484       0.53819951       0.50547840
H        0.40094223       2.24812471      -1.16318115
14
Frame=14 idx=009163 GeodesicLength=0.9222023008181042 rxn_smarts="[C:1]([n:2]1[c:3]([H:11])[c:4]([H:12])[c:5]([H:13])[c:6]1[O:7][H:14])([H:8])([H:9])[H:10]>>[C:1]([C@:6]1([O:7][H:14])[N:2]=[C:3]([H:11])[C:4]([H:12])=[C:5]1[H:13])([H:8])([H:9])[H:10]"
C       -1.41916012       0.30200377       0.91786154
N       -0.69181748      -0.19493952      -0.68341152
C       -0.02233314      -1.32350214      -0.88352828
C        1.32499461      -1.18799956      -0.46571727
C        1.43827285       0.05801073       0.11073733
C        0.17132387       0.70836373      -0.04683389
O        0.00762294       2.04416431      -0.30699309
H       -2.18869767       1.01273632       0.61498811
H       -1.06684901       0.63305995       1.89572557
H       -1.89050363      -0.65521703       1.14083001
H       -0.55322895      -2.23476673      -1.12608246
H        2.09161596      -1.94261808      -0.55682511
H        2.32564893       0.52639869       0.50819300
H        0.47311083       2.25430556      -1.11894394
14
Frame=15 idx=009163 GeodesicLength=0.983406904776171 rxn_smarts="[C:1]([n:2]1[c:3]([H:11])[c:4]([H:12])[c:5]([H:13])[c:6]1[O:7][H:14])([H:8])([H:9])[H:10]>>[C:1]([C@:6]1([O:7][H:14])[N:2]=[C:3]([H:11])[C:4]([H:12])=[C:5]1[H:13])([H:8])([H:9])[H:10]"
C       -1.42879087       0.30937474       0.92123027
N       -0.69740690      -0.20402703      -0.66883947
C       -0.02700613      -1.32663607      -0.88761376
C        1.33236917      -1.17938171      -0.50793576
C        1.43651953       0.04698072       0.10961617
C        0.16704470       0.70108959      -0.03560454
O       -0.00106617       2.03486409      -0.31112901
H       -2.23334179       0.95692160       0.57083127
H       -1.11815204       0.72773278       1.88021299
H       -1.83688709      -0.66235047       1.20021819
H       -0.55808555      -2.24294382      -1.11078886
H        2.09838808      -1.93353100      -0.60669486
H        2.32266206       0.51188658       0.51420188
H        0.54375299       2.26001997      -1.06770451
14
Frame=16 idx=009163 GeodesicLength=1.0441075043245467 rxn_smarts="[C:1]([n:2]1[c:3]([H:11])[c:4]([H:12])[c:5]([H:13])[c:6]1[O:7][H:14])([H:8])([H:9])[H:10]>>[C:1]([C@:6]1([O:7][H:14])[N:2]=[C:3]([H:11])[C:4]([H:12])=[C:5]1[H:13])([H:8])([H:9])[H:10]"
C       -1.43868466       0.31819859       0.92358410
N       -0.70252499      -0.21420971      -0.65394839
C       -0.03173831      -1.33127728      -0.88956240
C        1.33861150      -1.17076816      -0.54903219
C        1.43499440       0.03498581       0.10815360
C        0.16324026       0.69329450      -0.02467076
O       -0.00842876       2.02454241      -0.31780779
H       -2.27440105       0.89785128       0.52946019
H       -1.17368443       0.82051400       1.85624348
H       -1.78220832      -0.66050691       1.26006906
H       -0.56190931      -2.25297264      -1.09258326
H        2.10576986      -1.92170174      -0.66184503
H        2.31989397       0.49550291       0.52072684
H        0.61106985       2.26654693      -1.00878745
