16
Frame=0 idx=004478 GeodesicLength=0.0 rxn_smarts="[C:1]1([H:7])([H:8])[C@:2]2([H:9])[C:3]([H:10])([H:11])[C:4]([H:12])([H:13])[C:5]([H:14])([H:15])[C@:6]12[H:16]>>[C:1]([C:2]([C:3](=[C:4]([H:12])[H:13])[H:10])([H:9])[H:11])([C:6](=[C:5]([H:14])[H:15])[H:16])([H:7])[H:8]"
C       -1.38645241       0.43082755       0.38899374
C       -0.37918391       1.11527410      -0.46642940
C        1.04880748       0.87808088      -0.34009024
C        1.59134194      -0.06531017       0.54531800
C       -0.22974548      -1.73174018      -0.01882317
C       -1.14882076      -0.80764757      -0.41204431
H       -1.11247147       0.31987660       1.43838886
H       -2.37864882       0.86885444       0.31075998
H       -0.70726619       1.75445978      -1.27650142
H        1.61487362       1.09584526      -1.24229154
H        0.79427857       1.92010096       0.18173314
H        1.16193258      -0.20362795       1.52573661
H        2.63872229      -0.32127181       0.45401692
H       -0.03204205      -1.91302088       1.02694965
H        0.08825983      -2.51054678      -0.70228325
H       -1.56358521      -0.83015430      -1.41343352
16
Frame=1 idx=004478 GeodesicLength=0.06044145209085078 rxn_smarts="[C:1]1([H:7])([H:8])[C@:2]2([H:9])[C:3]([H:10])([H:11])[C:4]([H:12])([H:13])[C:5]([H:14])([H:15])[C@:6]12[H:16]>>[C:1]([C:2]([C:3](=[C:4]([H:12])[H:13])[H:10])([H:9])[H:11])([C:6](=[C:5]([H:14])[H:15])[H:16])([H:7])[H:8]"
C       -1.38290236       0.43465035       0.39304771
C       -0.37733018       1.11530074      -0.46895467
C        1.05428714       0.88593294      -0.33707855
C        1.58587187      -0.07549606       0.53733476
C       -0.22014820      -1.72784468      -0.01623216
C       -1.13917604      -0.79989582      -0.41209913
H       -1.10614092       0.32570398       1.44169829
H       -2.37663513       0.86843700       0.31195797
H       -0.70808190       1.73846725      -1.29058637
H        1.62382545       1.10908109      -1.23583822
H        0.77326155       1.93461619       0.18654077
H        1.16381068      -0.20551184       1.52260690
H        2.63297553      -0.33409655       0.44627596
H       -0.04954024      -1.92928501       1.03120593
H        0.09184164      -2.50757449      -0.70179030
H       -1.56591887      -0.83248510      -1.40808889
16
Frame=2 idx=004478 GeodesicLength=0.1208183750748468 rxn_smarts="[C:1]1([H:7])([H:8])[C@:2]2([H:9])[C:3]([H:10])([H:11])[C:4]([H:12])([H:13])[C:5]([H:14])([H:15])[C@:6]12[H:16]>>[C:1]([C:2]([C:3](=[C:4]([H:12])[H:13])[H:10])([H:9])[H:11])([C:6](=[C:5]([H:14])[H:15])[H:16])([H:7])[H:8]"
C       -1.37932638       0.43845574       0.39711390
C       -0.37540323       1.11527640      -0.47139009
C        1.05978305       0.89375491      -0.33366744
C        1.58043615      -0.08538177       0.52954119
C       -0.21072286      -1.72405331      -0.01348618
C       -1.12963341      -0.79218337      -0.41210967
H       -1.09980798       0.33150380       1.44501784
H       -2.37455823       0.86803336       0.31319891
H       -0.70855394       1.72235379      -1.30426683
H        1.63263043       1.12161920      -1.22921778
H        0.75202487       1.94943086       0.19046684
H        1.16580542      -0.20746741       1.51951766
H        2.62724283      -0.34664670       0.43862003
H       -0.06722501      -1.94552060       1.03457075
H        0.09557320      -2.50428832      -0.70143399
H       -1.56826493      -0.83488658      -1.40247513
16
Frame=3 idx=004478 GeodesicLength=0.18112648181418767 rxn_smarts="[C:1]1([H:7])([H:8])[C@:2]2([H:9])[C:3]([H:10])([H:11])[C:4]([H:12])([H:13])[C:5]([H:14])([H:15])[C@:6]12[H:16]>>[C:1]([C:2]([C:3](=[C:4]([H:12])[H:13])[H:10])([H:9])[H:11])([C:6](=[C:5]([H:14])[H:15])[H:16])([H:7])[H:8]"
C       -1.37572565       0.44223958       0.40119294
C       -0.37340471       1.11520219      -0.47373191
C        1.06528989       0.90153197      -0.32987464
C        1.57503887      -0.09498460       0.52192564
C       -0.20147150      -1.72036915      -0.01058083
C       -1.12019282      -0.78451456      -0.41207784
H       -1.09347292       0.33727199       1.44834801
H       -2.37242117       0.86763719       0.31448380
H       -0.70869313       1.70616421      -1.31751567
H        1.64128556       1.13348214      -1.22245203
H        0.73057141       1.96453174       0.19349827
H        1.16791438      -0.20949333       1.51646586
H        2.62153928      -0.35890254       0.43105965
H       -0.08509976      -1.96173109       1.03705666
H        0.09943425      -2.50072091      -0.70118973
H       -1.57059197      -0.83734483      -1.39660818
16
Frame=4 idx=004478 GeodesicLength=0.24136008063910386 rxn_smarts="[C:1]1([H:7])([H:8])[C@:2]2([H:9])[C:3]([H:10])([H:11])[C:4]([H:12])([H:13])[C:5]([H:14])([H:15])[C@:6]12[H:16]>>[C:1]([C:2]([C:3](=[C:4]([H:12])[H:13])[H:10])([H:9])[H:11])([C:6](=[C:5]([H:14])[H:15])[H:16])([H:7])[H:8]"
C       -1.37210144       0.44599809       0.40528585
C       -0.37133659       1.11507930      -0.47597636
C        1.07080230       0.90924867      -0.32571904
C        1.56968354      -0.10432029       0.51447783
C       -0.19239584      -1.71679492      -0.00751113
C       -1.11085418      -0.77689355      -0.41200446
H       -1.08713608       0.34300535       1.45168965
H       -2.37022703       0.86724227       0.31581395
H       -0.70851261       1.68994229      -1.33030927
H        1.64978766       1.14469120      -1.21556152
H        0.70890469       1.97990057       0.19562480
H        1.17013480      -0.21158770       1.51344883
H        2.61587804      -0.37084876       0.42360556
H       -0.10316414      -1.97791575       1.03867419
H        0.10340677      -2.49690070      -0.70103430
H       -1.57286988      -0.83984608      -1.39050458
16
Frame=5 idx=004478 GeodesicLength=0.3015126990649445 rxn_smarts="[C:1]1([H:7])([H:8])[C@:2]2([H:9])[C:3]([H:10])([H:11])[C:4]([H:12])([H:13])[C:5]([H:14])([H:15])[C@:6]12[H:16]>>[C:1]([C:2]([C:3](=[C:4]([H:12])[H:13])[H:10])([H:9])[H:11])([C:6](=[C:5]([H:14])[H:15])[H:16])([H:7])[H:8]"
C       -1.36845498       0.44972910       0.40939508
C       -0.36920109       1.11490926      -0.47811981
C        1.07631520       0.91688883      -0.32122040
C        1.56437308      -0.11340246       0.50719078
C       -0.18349731      -1.71333166      -0.00427306
C       -1.10161917      -0.76932366      -0.41188782
H       -1.08079756       0.34870210       1.45504493
H       -2.36797848       0.86684489       0.31719228
H       -0.70802809       1.67372343      -1.34263251
H        1.65813420       1.15526458      -1.20856594
H        0.68702941       1.99551503       0.19683768
H        1.17246222      -0.21374837       1.51046566
H        2.61027089      -0.38247288       0.41627268
H       -0.12141120      -1.99407495       1.03942921
H        0.10747683      -2.49284769      -0.70095001
H       -1.57507396      -0.84237555      -1.38417875
16
Frame=6 idx=004478 GeodesicLength=0.3615771397273336 rxn_smarts="[C:1]1([H:7])([H:8])[C@:2]2([H:9])[C:3]([H:10])([H:11])[C:4]([H:12])([H:13])[C:5]([H:14])([H:15])[C@:6]12[H:16]>>[C:1]([C:2]([C:3](=[C:4]([H:12])[H:13])[H:10])([H:9])[H:11])([C:6](=[C:5]([H:14])[H:15])[H:16])([H:7])[H:8]"
C       -1.36478828       0.45342933       0.41352255
C       -0.36700124       1.11469387      -0.48015820
C        1.08182344       0.92443529      -0.31640122
C        1.55911032      -0.12224461       0.50005705
C       -0.17477701      -1.70998158      -0.00086104
C       -1.09248776      -0.76180856      -0.41172752
H       -1.07445805       0.35436007       1.45841562
H       -2.36567968       0.86643872       0.31862135
H       -0.70725772       1.65755225      -1.35446585
H        1.66632125       1.16521861      -1.20148687
H        0.66495109       2.01134767       0.19713184
H        1.17489300      -0.21597192       1.50751492
H        2.60472884      -0.39376556       0.40907341
H       -0.13983418      -2.01020057       1.03933018
H        0.11163035      -2.48858457      -0.70091547
H       -1.57717437      -0.84491843      -1.37765074
16
Frame=7 idx=004478 GeodesicLength=0.42154617386492055 rxn_smarts="[C:1]1([H:7])([H:8])[C@:2]2([H:9])[C:3]([H:10])([H:11])[C:4]([H:12])([H:13])[C:5]([H:14])([H:15])[C@:6]12[H:16]>>[C:1]([C:2]([C:3](=[C:4]([H:12])[H:13])[H:10])([H:9])[H:11])([C:6](=[C:5]([H:14])[H:15])[H:16])([H:7])[H:8]"
C       -1.36110304       0.45709755       0.41767180
C       -0.36474019       1.11443556      -0.48208737
C        1.08732229       0.93187019      -0.31128484
C        1.55389721      -0.13085811       0.49307321
C       -0.16623546      -1.70674470       0.00272846
C       -1.08346184      -0.75435059      -0.41152066
H       -1.06811789       0.35997857       1.46180496
H       -2.36333390       0.86602065       0.32010560
H       -0.70622218       1.64146279      -1.36579846
H        1.67434514       1.17456463      -1.19434618
H        0.64267646       2.02736814       0.19650372
H        1.17742085      -0.21825405       1.50459764
H        2.59926122      -0.40471973       0.40202595
H       -0.15841835      -2.02628720       1.03838036
H        0.11585729      -2.48412513      -0.70091632
H       -1.57914760      -0.84745858      -1.37093785
16
Frame=8 idx=004478 GeodesicLength=0.4814319038058721 rxn_smarts="[C:1]1([H:7])([H:8])[C@:2]2([H:9])[C:3]([H:10])([H:11])[C:4]([H:12])([H:13])[C:5]([H:14])([H:15])[C@:6]12[H:16]>>[C:1]([C:2]([C:3](=[C:4]([H:12])[H:13])[H:10])([H:9])[H:11])([C:6](=[C:5]([H:14])[H:15])[H:16])([H:7])[H:8]"
C       -1.35739658       0.46073775       0.42184411
C       -0.36241886       1.11413123      -0.48391719
C        1.09280910       0.93919529      -0.30587749
C        1.54873542      -0.13925340       0.48622864
C       -0.15787353      -1.70362200       0.00650763
C       -1.07454196      -0.74695331      -0.41125760
H       -1.06176990       0.36557329       1.46521410
H       -2.36093836       0.86559667       0.32164914
H       -0.70492715       1.62543590      -1.37666745
H        1.68223616       1.18339550      -1.18710852
H        0.62018252       2.04355375       0.19496355
H        1.18004952      -0.22060296       1.50170935
H        2.59385873      -0.41537963       0.39509127
H       -0.17717283      -2.04233563       1.03658827
H        0.12016790      -2.47947210      -0.70093379
H       -1.58100019      -0.85000034      -1.36403403
16
Frame=9 idx=004478 GeodesicLength=0.5412282132556926 rxn_smarts="[C:1]1([H:7])([H:8])[C@:2]2([H:9])[C:3]([H:10])([H:11])[C:4]([H:12])([H:13])[C:5]([H:14])([H:15])[C@:6]12[H:16]>>[C:1]([C:2]([C:3](=[C:4]([H:12])[H:13])[H:10])([H:9])[H:11])([C:6](=[C:5]([H:14])[H:15])[H:16])([H:7])[H:8]"
C       -1.35367106       0.46435048       0.42604320
C       -0.36004079       1.11378368      -0.48564403
C        1.09827951       0.94639229      -0.30020385
C        1.54362564      -0.14744085       0.47952197
C       -0.14969152      -1.70061312       0.01048158
C       -1.06572995      -0.73961842      -0.41093385
H       -1.05541449       0.37114399       1.46864617
H       -2.35849750       0.86516356       0.32325443
H       -0.70339353       1.60950448      -1.38706352
H        1.68999085       1.19171951      -1.17979422
H        0.59747538       2.05986792       0.19251280
H        1.18277365      -0.22301074       1.49885318
H        2.58852743      -0.42574283       0.38828332
H       -0.19607810      -2.05833693       1.03395596
H        0.12455296      -2.47463448      -0.70095562
H       -1.58270849      -0.85252854      -1.35695753
16
Frame=10 idx=004478 GeodesicLength=0.6009468038496538 rxn_smarts="[C:1]1([H:7])([H:8])[C@:2]2([H:9])[C:3]([H:10])([H:11])[C:4]([H:12])([H:13])[C:5]([H:14])([H:15])[C@:6]12[H:16]>>[C:1]([C:2]([C:3](=[C:4]([H:12])[H:13])[H:10])([H:9])[H:11])([C:6](=[C:5]([H:14])[H:15])[H:16])([H:7])[H:8]"
C       -1.34992344       0.46794106       0.43027126
C       -0.35760675       1.11339091      -0.48727654
C        1.10373108       0.95346372      -0.29426811
C        1.53856868      -0.15542833       0.47294634
C       -0.14168963      -1.69771710       0.01466289
C       -1.05702640      -0.73234821      -0.41053866
H       -1.04904439       0.37670527       1.47210294
H       -2.35600831       0.86472753       0.32492401
H       -0.70162669       1.59364518      -1.39702315
H        1.69763726       1.19961864      -1.17236708
H        0.57453202       2.07628623       0.18916043
H        1.18559809      -0.22548012       1.49602813
H        2.58325599      -0.43585175       0.38156093
H       -0.21513733      -2.07429433       1.03048530
H        0.12901628      -2.46961242      -0.70096485
H       -1.58427646      -0.85504629      -1.34970384
16
Frame=11 idx=004478 GeodesicLength=0.660603027840632 rxn_smarts="[C:1]1([H:7])([H:8])[C@:2]2([H:9])[C:3]([H:10])([H:11])[C:4]([H:12])([H:13])[C:5]([H:14])([H:15])[C@:6]12[H:16]>>[C:1]([C:2]([C:3](=[C:4]([H:12])[H:13])[H:10])([H:9])[H:11])([C:6](=[C:5]([H:14])[H:15])[H:16])([H:7])[H:8]"
C       -1.34615230       0.47151588       0.43453085
C       -0.35511830       1.11295080      -0.48882373
C        1.10916078       0.96040869      -0.28807708
C        1.53356439      -0.16322572       0.46649476
C       -0.13386958      -1.69493480       0.01906616
C       -1.04843229      -0.72514465      -0.41006156
H       -1.04265321       0.38227224       1.47558657
H       -2.35347117       0.86429381       0.32666100
H       -0.69963264       1.57784230      -1.40657673
H        1.70520486       1.20717358      -1.16479038
H        0.55132965       2.09278223       0.18490879
H        1.18852687      -0.22801583       1.49323318
H        2.57803272      -0.44575028       0.37488237
H       -0.23435215      -2.09020812       1.02617927
H        0.13356755      -2.46440484      -0.70094325
H       -1.58570516      -0.85755529      -1.34227022
16
Frame=12 idx=004478 GeodesicLength=0.7202047301571473 rxn_smarts="[C:1]1([H:7])([H:8])[C@:2]2([H:9])[C:3]([H:10])([H:11])[C:4]([H:12])([H:13])[C:5]([H:14])([H:15])[C@:6]12[H:16]>>[C:1]([C:2]([C:3](=[C:4]([H:12])[H:13])[H:10])([H:9])[H:11])([C:6](=[C:5]([H:14])[H:15])[H:16])([H:7])[H:8]"
C       -1.34235374       0.47508027       0.43882279
C       -0.35257534       1.11246063      -0.49029267
C        1.11456455       0.96722780      -0.28163376
C        1.52861071      -0.17084167       0.46015769
C       -0.12623508      -1.69226660       0.02370634
C       -1.03994710      -0.71801058      -0.40949273
H       -1.03623349       0.38786180       1.47909665
H       -2.35088135       0.86386593       0.32846454
H       -0.69740979       1.56207348      -1.41575369
H        1.71271879       1.21446316      -1.15702335
H        0.52784430       2.10932539       0.17976824
H        1.19156699      -0.23062227       1.49046397
H        2.57284233      -0.45547617       0.36820067
H       -0.25372543      -2.10607063       1.02103851
H        0.13821232      -2.45900994      -0.70087179
H       -1.58699868      -0.86006062      -1.33465140
16
Frame=13 idx=004478 GeodesicLength=0.7797464989603174 rxn_smarts="[C:1]1([H:7])([H:8])[C@:2]2([H:9])[C:3]([H:10])([H:11])[C:4]([H:12])([H:13])[C:5]([H:14])([H:15])[C@:6]12[H:16]>>[C:1]([C:2]([C:3](=[C:4]([H:12])[H:13])[H:10])([H:9])[H:11])([C:6](=[C:5]([H:14])[H:15])[H:16])([H:7])[H:8]"
C       -1.33853106       0.47863514       0.44315228
C       -0.34998131       1.11192624      -0.49167791
C        1.11994112       0.97390210      -0.27496433
C        1.52370863      -0.17828672       0.45393681
C       -0.11878466      -1.68971132       0.02857881
C       -1.03157437      -0.71094502      -0.40883048
H       -1.02978521       0.39347574       1.48263830
H       -2.34824349       0.86344874       0.33034607
H       -0.69498287       1.54636461      -1.42454503
H        1.72016743       1.22147044      -1.14910010
H        0.50408343       2.12587427       0.17374127
H        1.19471208      -0.23329545       1.48772528
H        2.56770023      -0.46500654       0.36156069
H       -0.27322315      -2.12186889       1.01505078
H        0.14293396      -2.45344209      -0.70074332
H       -1.58814077      -0.86254126      -1.32686912
16
Frame=14 idx=004478 GeodesicLength=0.8392423226898389 rxn_smarts="[C:1]1([H:7])([H:8])[C@:2]2([H:9])[C:3]([H:10])([H:11])[C:4]([H:12])([H:13])[C:5]([H:14])([H:15])[C@:6]12[H:16]>>[C:1]([C:2]([C:3](=[C:4]([H:12])[H:13])[H:10])([H:9])[H:11])([C:6](=[C:5]([H:14])[H:15])[H:16])([H:7])[H:8]"
C       -1.33468264       0.48218929       0.44752295
C       -0.34733682       1.11134655      -0.49298642
C        1.12528882       0.98042978      -0.26807425
C        1.51885669      -0.18557016       0.44782804
C       -0.11152083      -1.68726877       0.03369497
C       -1.02331679      -0.70394828      -0.40806268
H       -1.02330300       0.39912893       1.48621448
H       -2.34555597       0.86305378       0.33230971
H       -0.69235372       1.53069354      -1.43297967
H        1.72757271       1.22825231      -1.14099304
H        0.48002533       2.14240032       0.16682735
H        1.19796362      -0.23604185       1.48501705
H        2.56259725      -0.47437247       0.35493753
H       -0.29283909      -2.13760572       1.00820756
H        0.14774900      -2.44768901      -0.70054943
H       -1.58914455      -0.86499823      -1.31891415
16
Frame=15 idx=004478 GeodesicLength=0.8986968582958716 rxn_smarts="[C:1]1([H:7])([H:8])[C@:2]2([H:9])[C:3]([H:10])([H:11])[C:4]([H:12])([H:13])[C:5]([H:14])([H:15])[C@:6]12[H:16]>>[C:1]([C:2]([C:3](=[C:4]([H:12])[H:13])[H:10])([H:9])[H:11])([C:6](=[C:5]([H:14])[H:15])[H:16])([H:7])[H:8]"
C       -1.33080368       0.48574560       0.45193610
C       -0.34464131       1.11071839      -0.49422192
C        1.13060534       0.98681009      -0.26096471
C        1.51405206      -0.19269890       0.44182573
C       -0.10444676      -1.68493824       0.03906630
C       -1.01517233      -0.69702137      -0.40718248
H       -1.01677837       0.40483163       1.48982411
H       -2.34281351       0.86268234       0.33435740
H       -0.68952340       1.51503856      -1.44107687
H        1.73495704       1.23487161      -1.13266384
H        0.45564782       2.15887364       0.15902516
H        1.20132755      -0.23886502       1.48233625
H        2.55751835      -0.48360580       0.34829070
H       -0.31257430      -2.15326112       1.00050325
H        0.15265968      -2.44174798      -0.70027186
H       -1.59001421      -0.86743341      -1.31078333
16
Frame=16 idx=004478 GeodesicLength=0.9581250938870154 rxn_smarts="[C:1]1([H:7])([H:8])[C@:2]2([H:9])[C:3]([H:10])([H:11])[C:4]([H:12])([H:13])[C:5]([H:14])([H:15])[C@:6]12[H:16]>>[C:1]([C:2]([C:3](=[C:4]([H:12])[H:13])[H:10])([H:9])[H:11])([C:6](=[C:5]([H:14])[H:15])[H:16])([H:7])[H:8]"
C       -1.32689251       0.48931600       0.45639714
C       -0.34189415       1.11004187      -0.49539038
C        1.13588966       0.99304232      -0.25363705
C        1.50929105      -0.19967955       0.43593326
C       -0.09756435      -1.68271775       0.04470058
C       -1.00714599      -0.69016345      -0.40617548
H       -1.01020785       0.41060031       1.49347229
H       -2.34001482       0.86234840       0.33649473
H       -0.68648870       1.49937152      -1.44886498
H        1.74234114       1.24136634      -1.12408729
H        0.43092800       2.17526916       0.15032314
H        1.20480080      -0.24176772       1.47968912
H        2.55245158      -0.49273424       0.34160033
H       -0.33240387      -2.16884769       0.99191710
H        0.15767908      -2.43560140      -0.69991063
H       -1.59076908      -0.86984412      -1.30246188
