14
Frame=0 idx=006948 GeodesicLength=0.0 rxn_smarts="[O:1]=[C:2]([N:3]([C:4]([C:5]([C:6]#[C:7][H:14])([H:12])[H:13])([H:10])[H:11])[H:9])[H:8]>>[O+:1](=[C:2]([N:3]([C-:4]([H:10])[H:11])[H:9])[H:8])[C:7](=[C:6]=[C:5]([H:12])[H:13])[H:14]"
O       -0.40039784       1.63040319      -0.89627844
C       -0.79705118       1.36499902       0.34134074
N       -0.97132639       0.21238521       0.93052996
C       -0.75963837      -1.10788806       0.55828966
C        1.33275575      -1.08312847      -0.13092433
C        1.32968031      -0.06199550      -1.00524634
C        0.75895665       1.02222687      -1.44286557
H       -1.19828872       2.22607055       0.86218759
H       -1.27727349       0.33653101       1.88486376
H       -1.04997750      -1.32035140      -0.46165392
H       -1.16158171      -1.78880077       1.30052817
H        1.85298475      -0.97151808       0.81671795
H        1.26488689      -2.10442307      -0.48769524
H        1.07627090       1.64548954      -2.26979397
14
Frame=1 idx=006948 GeodesicLength=0.1266467985358383 rxn_smarts="[O:1]=[C:2]([N:3]([C:4]([C:5]([C:6]#[C:7][H:14])([H:12])[H:13])([H:10])[H:11])[H:9])[H:8]>>[O+:1](=[C:2]([N:3]([C-:4]([H:10])[H:11])[H:9])[H:8])[C:7](=[C:6]=[C:5]([H:12])[H:13])[H:14]"
O       -0.45159350       1.59492073      -0.92490581
C       -0.84624863       1.36833433       0.31794481
N       -0.97183368       0.22593970       0.94239889
C       -0.75753246      -1.09681808       0.58111048
C        1.33350852      -1.10591664      -0.15005624
C        1.34538452      -0.05961339      -0.99678336
C        0.78549789       1.02633018      -1.43463830
H       -1.26847071       2.23252459       0.81703814
H       -1.24278444       0.36442539       1.90519427
H       -1.06892471      -1.32227955      -0.42988218
H       -1.14113135      -1.77112361       1.33909045
H        1.88064021      -1.03597094       0.78644272
H        1.25627827      -2.11294948      -0.54487218
H        1.14721007       1.69219679      -2.20808170
14
Frame=2 idx=006948 GeodesicLength=0.25219941239222055 rxn_smarts="[O:1]=[C:2]([N:3]([C:4]([C:5]([C:6]#[C:7][H:14])([H:12])[H:13])([H:10])[H:11])[H:9])[H:8]>>[O+:1](=[C:2]([N:3]([C-:4]([H:10])[H:11])[H:9])[H:8])[C:7](=[C:6]=[C:5]([H:12])[H:13])[H:14]"
O       -0.49871733       1.55871437      -0.95232212
C       -0.89613302       1.36970392       0.29285727
N       -0.97397253       0.24043822       0.95184491
C       -0.75448936      -1.08496872       0.60407856
C        1.33398615      -1.12856934      -0.16976233
C        1.36248182      -0.05707390      -0.98697093
C        0.81205951       1.02975686      -1.42532573
H       -1.33631424       2.23673974       0.77149674
H       -1.20882452       0.39567056       1.92140555
H       -1.08676186      -1.32558745      -0.39681340
H       -1.11834186      -1.75140174       1.37869478
H        1.90621929      -1.10186060       0.75396935
H        1.24694646      -2.11928606      -0.60323725
H        1.21186147       1.73772413      -2.13991540
14
Frame=3 idx=006948 GeodesicLength=0.3770534863307855 rxn_smarts="[O:1]=[C:2]([N:3]([C:4]([C:5]([C:6]#[C:7][H:14])([H:12])[H:13])([H:10])[H:11])[H:9])[H:8]>>[O+:1](=[C:2]([N:3]([C-:4]([H:10])[H:11])[H:9])[H:8])[C:7](=[C:6]=[C:5]([H:12])[H:13])[H:14]"
O       -0.54247994       1.52173071      -0.97872853
C       -0.94658691       1.36898995       0.26628279
N       -0.97770043       0.25572404       0.95923477
C       -0.75046862      -1.07235982       0.62731982
C        1.33415368      -1.15111597      -0.19015827
C        1.38107780      -0.05418055      -0.97535594
C        0.83945058       1.03322348      -1.41424938
H       -1.40179212       2.23901531       0.72553904
H       -1.17593757       0.43012759       1.93355560
H       -1.10350035      -1.33020735      -0.36221692
H       -1.09297222      -1.72961784       1.41943669
H        1.92957609      -1.16964768       0.71911056
H        1.23675793      -2.12310905      -0.66325512
H        1.27042209       1.78142717      -2.06651511
14
Frame=4 idx=006948 GeodesicLength=0.5012261738434174 rxn_smarts="[O:1]=[C:2]([N:3]([C:4]([C:5]([C:6]#[C:7][H:14])([H:12])[H:13])([H:10])[H:11])[H:9])[H:8]>>[O+:1](=[C:2]([N:3]([C-:4]([H:10])[H:11])[H:9])[H:8])[C:7](=[C:6]=[C:5]([H:12])[H:13])[H:14]"
O       -0.58321696       1.48395459      -1.00396877
C       -0.99681529       1.36622725       0.23880105
N       -0.98302960       0.27158542       0.96490112
C       -0.74547556      -1.05898680       0.65077626
C        1.33397416      -1.17341480      -0.21130613
C        1.40105448      -0.05109847      -0.96200581
C        0.86799878       1.03695837      -1.40109826
H       -1.46459863       2.23953405       0.67936810
H       -1.14507626       0.46729537       1.94170931
H       -1.11915400      -1.33593147      -0.32605286
H       -1.06493685      -1.70582163       1.46101677
H        1.95041283      -1.23884966       0.68176186
H        1.22582768      -2.12416494      -0.72471553
H        1.32303522       1.82271272      -1.98918711
14
Frame=5 idx=006948 GeodesicLength=0.6247665351058662 rxn_smarts="[O:1]=[C:2]([N:3]([C:4]([C:5]([C:6]#[C:7][H:14])([H:12])[H:13])([H:10])[H:11])[H:9])[H:8]>>[O+:1](=[C:2]([N:3]([C-:4]([H:10])[H:11])[H:9])[H:8])[C:7](=[C:6]=[C:5]([H:12])[H:13])[H:14]"
O       -0.62168909       1.44474249      -1.02871000
C       -1.04711651       1.36106389       0.20997395
N       -0.98989365       0.28794518       0.96894589
C       -0.73945128      -1.04479608       0.67470992
C        1.33310964      -1.19556526      -0.23365546
C        1.42188274      -0.04826868      -0.94737245
C        0.89764995       1.04088581      -1.38587753
H       -1.52548811       2.23815236       0.63195556
H       -1.11485557       0.50757146       1.94596490
H       -1.13393933      -1.34299143      -0.28771604
H       -1.03365719      -1.67954843       1.50395069
H        1.96847304      -1.30939324       0.64125409
H        1.21363796      -2.12235993      -0.78783278
H        1.37133741       1.86256184      -1.90559075
14
Frame=6 idx=006948 GeodesicLength=0.747748781506163 rxn_smarts="[O:1]=[C:2]([N:3]([C:4]([C:5]([C:6]#[C:7][H:14])([H:12])[H:13])([H:10])[H:11])[H:9])[H:8]>>[O+:1](=[C:2]([N:3]([C-:4]([H:10])[H:11])[H:9])[H:8])[C:7](=[C:6]=[C:5]([H:12])[H:13])[H:14]"
O       -0.65771102       1.40453041      -1.05224516
C       -1.09622254       1.35393960       0.18087010
N       -0.99820095       0.30460906       0.97184573
C       -0.73241255      -1.02971711       0.69883644
C        1.33168508      -1.21733432      -0.25709075
C        1.44366045      -0.04592795      -0.93172034
C        0.92878385       1.04522284      -1.36812578
H       -1.58411606       2.23499867       0.58404034
H       -1.08732517       0.54991162       1.94652627
H       -1.14769247      -1.35078630      -0.24750213
H       -0.99937763      -1.65101345       1.54735686
H        1.98354432      -1.38039080       0.59781483
H        1.20065730      -2.11758456      -0.85197023
H        1.41472740       1.89954228      -1.81863621
14
Frame=7 idx=006948 GeodesicLength=0.8702209464197538 rxn_smarts="[O:1]=[C:2]([N:3]([C:4]([C:5]([C:6]#[C:7][H:14])([H:12])[H:13])([H:10])[H:11])[H:9])[H:8]>>[O+:1](=[C:2]([N:3]([C-:4]([H:10])[H:11])[H:9])[H:8])[C:7](=[C:6]=[C:5]([H:12])[H:13])[H:14]"
O       -0.69159166       1.36315159      -1.07468964
C       -1.14392880       1.34489712       0.15158427
N       -1.00770766       0.32155019       0.97386675
C       -0.72422197      -1.01360766       0.72322934
C        1.32955027      -1.23871897      -0.28188285
C        1.46617107      -0.04447500      -0.91556341
C        0.96146503       1.04995055      -1.34764438
H       -1.64097716       2.22994886       0.53528455
H       -1.06292439       0.59409586       1.94364588
H       -1.16036692      -1.35913936      -0.20510859
H       -0.96170428      -1.61990534       1.59122156
H        1.99550476      -1.45153879       0.55109660
H        1.18667509      -2.10981017      -0.91706190
H        1.45405662       1.93360113      -1.72797818
14
Frame=8 idx=006948 GeodesicLength=0.9923216919984322 rxn_smarts="[O:1]=[C:2]([N:3]([C:4]([C:5]([C:6]#[C:7][H:14])([H:12])[H:13])([H:10])[H:11])[H:9])[H:8]>>[O+:1](=[C:2]([N:3]([C-:4]([H:10])[H:11])[H:9])[H:8])[C:7](=[C:6]=[C:5]([H:12])[H:13])[H:14]"
O       -0.72372889       1.32054698      -1.09612756
C       -1.19015314       1.33404247       0.12221619
N       -1.01846852       0.33866267       0.97512034
C       -0.71497492      -0.99639352       0.74771469
C        1.32656296      -1.25964628      -0.30806647
C        1.48920621      -0.04425744      -0.89947602
C        0.99559310       1.05493391      -1.32431221
H       -1.69645262       2.22284925       0.48558464
H       -1.04071115       0.63991777       1.93754616
H       -1.17194173      -1.36785016      -0.16056807
H       -0.92071194      -1.58605237       1.63511988
H        2.00409527      -1.52218798       0.50121443
H        1.17180614      -2.09919311      -0.98266672
H        1.48987924       1.96462780      -1.63329928
14
Frame=9 idx=006948 GeodesicLength=1.1141381015596854 rxn_smarts="[O:1]=[C:2]([N:3]([C:4]([C:5]([C:6]#[C:7][H:14])([H:12])[H:13])([H:10])[H:11])[H:9])[H:8]>>[O+:1](=[C:2]([N:3]([C-:4]([H:10])[H:11])[H:9])[H:8])[C:7](=[C:6]=[C:5]([H:12])[H:13])[H:14]"
O       -0.75459653       1.27651918      -1.11680171
C       -1.23493940       1.32136884       0.09268857
N       -1.03032475       0.35593759       0.97567242
C       -0.70459287      -0.97792495       0.77220096
C        1.32258052      -1.28008358      -0.33580767
C        1.51242718      -0.04569210      -0.88433150
C        1.03099007       1.05997142      -1.29820742
H       -1.75071776       2.21364495       0.43480416
H       -1.02035010       0.68730995       1.92823612
H       -1.18230053      -1.37673835      -0.11373071
H       -0.87615407      -1.54908295       1.67880806
H        2.00926279      -1.59171024       0.44811797
H        1.15599349      -2.08600638      -1.04842954
H        1.52272198       1.99248662      -1.53321971
14
Frame=10 idx=006948 GeodesicLength=1.2357623930182933 rxn_smarts="[O:1]=[C:2]([N:3]([C:4]([C:5]([C:6]#[C:7][H:14])([H:12])[H:13])([H:10])[H:11])[H:9])[H:8]>>[O+:1](=[C:2]([N:3]([C-:4]([H:10])[H:11])[H:9])[H:8])[C:7](=[C:6]=[C:5]([H:12])[H:13])[H:14]"
O       -0.78451479       1.23113931      -1.13657561
C       -1.27806717       1.30714007       0.06335488
N       -1.04308183       0.37336050       0.97573570
C       -0.69299875      -0.95806166       0.79651043
C        1.31764145      -1.29990845      -0.36506559
C        1.53598149      -0.04882884      -0.87033982
C        1.06762585       1.06497060      -1.26912839
H       -1.80358922       2.20246374       0.38332047
H       -1.00289998       0.73570753       1.91604630
H       -1.19116165      -1.38542495      -0.06471399
H       -0.82802411      -1.50885354       1.72172965
H        2.01095507      -1.65979620       0.39206313
H        1.13947848      -2.07026611      -1.11416215
H        1.55265515       2.01635802      -1.42877502
14
Frame=11 idx=006948 GeodesicLength=1.3572753361319765 rxn_smarts="[O:1]=[C:2]([N:3]([C:4]([C:5]([C:6]#[C:7][H:14])([H:12])[H:13])([H:10])[H:11])[H:9])[H:8]>>[O+:1](=[C:2]([N:3]([C-:4]([H:10])[H:11])[H:9])[H:8])[C:7](=[C:6]=[C:5]([H:12])[H:13])[H:14]"
O       -0.81399776       1.18436392      -1.15544743
C       -1.31953319       1.29153779       0.03442532
N       -1.05664202       0.39086524       0.97539831
C       -0.68025556      -0.93673550       0.82038956
C        1.31175804      -1.31896373      -0.39571001
C        1.55983028      -0.05367046      -0.85775262
C        1.10533393       1.06971856      -1.23704441
H       -1.85481223       2.18948686       0.33151894
H       -0.98836475       0.78467802       1.90124325
H       -1.19831774      -1.39359570      -0.01375889
H       -0.77657474      -1.46528594       1.76325629
H        2.00913625      -1.72595049       0.33348370
H        1.12262878      -2.05208395      -1.17953136
H        1.57981071       2.03563539      -1.32047062
14
Frame=12 idx=006948 GeodesicLength=1.4787745084062391 rxn_smarts="[O:1]=[C:2]([N:3]([C:4]([C:5]([C:6]#[C:7][H:14])([H:12])[H:13])([H:10])[H:11])[H:9])[H:8]>>[O+:1](=[C:2]([N:3]([C-:4]([H:10])[H:11])[H:9])[H:8])[C:7](=[C:6]=[C:5]([H:12])[H:13])[H:14]"
O       -0.84362709       1.13604665      -1.17348109
C       -1.35944261       1.27470249       0.00602836
N       -1.07086636       0.40842853       0.97470361
C       -0.66642003      -0.91388061       0.84362555
C        1.30493860      -1.33711994      -0.42764534
C        1.58389775      -0.06017414      -0.84678933
C        1.14395593       1.07397041      -1.20197839
H       -1.90425859       2.17489269       0.27967380
H       -0.97652779       0.83395128       1.88402226
H       -1.20358049      -1.40098506       0.03894471
H       -0.72204088      -1.41826148       1.80285510
H        2.00382858      -1.78978920       0.27276825
H        1.10578100      -2.03159730      -1.24431446
H        1.60436199       2.04981569      -1.20841303
14
Frame=13 idx=006948 GeodesicLength=1.6003587275234377 rxn_smarts="[O:1]=[C:2]([N:3]([C:4]([C:5]([C:6]#[C:7][H:14])([H:12])[H:13])([H:10])[H:11])[H:9])[H:8]>>[O+:1](=[C:2]([N:3]([C-:4]([H:10])[H:11])[H:9])[H:8])[C:7](=[C:6]=[C:5]([H:12])[H:13])[H:14]"
O       -0.87410206       1.08595196      -1.19081901
C       -1.39800495       1.25670820      -0.02181283
N       -1.08555105       0.42607937       0.97360263
C       -0.65149900      -0.88941098       0.86599449
C        1.29720382      -1.35426362      -0.46084334
C        1.60795088      -0.06835190      -0.83797786
C        1.18330500       1.07750906      -1.16407733
H       -1.95177761       2.15895173       0.22799908
H       -0.96709001       0.88340195       1.86446420
H       -1.20677380      -1.40736539       0.09324326
H       -0.66450415      -1.36754498       1.84003701
H        1.99521323      -1.85077666       0.21029241
H        1.08918975      -2.00913575      -1.30825672
H        1.62643996       2.05824702      -1.09184600
14
Frame=14 idx=006948 GeodesicLength=1.7221233065040604 rxn_smarts="[O:1]=[C:2]([N:3]([C:4]([C:5]([C:6]#[C:7][H:14])([H:12])[H:13])([H:10])[H:11])[H:9])[H:8]>>[O+:1](=[C:2]([N:3]([C-:4]([H:10])[H:11])[H:9])[H:8])[C:7](=[C:6]=[C:5]([H:12])[H:13])[H:14]"
O       -0.90598432       1.03386178      -1.20736151
C       -1.43525490       1.23777098      -0.04884067
N       -1.10053045       0.44379105       0.97217435
C       -0.63561800      -0.86333442       0.88734093
C        1.28863084      -1.37020284      -0.49511944
C        1.63209878      -0.07785495      -0.83088922
C        1.22341111       1.08011158      -1.12320860
H       -1.99719276       2.14190901       0.17685756
H       -0.96021866       0.93265195       1.84290289
H       -1.20772359      -1.41246971       0.14887998
H       -0.60444053      -1.31319944       1.87429296
H        1.98332660      -1.90886913       0.14644907
H        1.07332619      -1.98452778      -1.37137958
H        1.64616971       2.06036192      -0.97209872
14
Frame=15 idx=006948 GeodesicLength=1.8441736854344684 rxn_smarts="[O:1]=[C:2]([N:3]([C:4]([C:5]([C:6]#[C:7][H:14])([H:12])[H:13])([H:10])[H:11])[H:9])[H:8]>>[O+:1](=[C:2]([N:3]([C-:4]([H:10])[H:11])[H:9])[H:8])[C:7](=[C:6]=[C:5]([H:12])[H:13])[H:14]"
O       -0.93994376       0.97937080      -1.22312749
C       -1.47136784       1.21796407      -0.07500675
N       -1.11562384       0.46159112       0.97037827
C       -0.61883746      -0.83561374       0.90753986
C        1.27924510      -1.38478554      -0.53042027
C        1.65622347      -0.08848304      -0.82550806
C        1.26429250       1.08155981      -1.07930533
H       -2.04041749       2.12399040       0.12636666
H       -0.95567226       0.98160642       1.81944307
H       -1.20628714      -1.41610696       0.20574380
H       -0.54207616      -1.25508694       1.90524173
H        1.96830116      -1.96385959       0.08148543
H        1.05847204      -1.95779446      -1.43366969
H        1.66369168       2.05564765      -0.84916123
14
Frame=16 idx=006948 GeodesicLength=1.9666601015955947 rxn_smarts="[O:1]=[C:2]([N:3]([C:4]([C:5]([C:6]#[C:7][H:14])([H:12])[H:13])([H:10])[H:11])[H:9])[H:8]>>[O+:1](=[C:2]([N:3]([C-:4]([H:10])[H:11])[H:9])[H:8])[C:7](=[C:6]=[C:5]([H:12])[H:13])[H:14]"
O       -0.97669750       0.92197435      -1.23807902
C       -1.50653494       1.19734310      -0.10028564
N       -1.13066787       0.47953120       0.96816627
C       -0.60122460      -0.80621690       0.92649440
C        1.26907283      -1.39787047      -0.56671392
C        1.68021609      -0.10001945      -0.82175664
C        1.30603248       1.08165674      -1.03219341
H       -2.08145687       2.10538474       0.07654942
H       -0.95304151       1.03028825       1.79409297
H       -1.20234676      -1.41810379       0.26375449
H       -0.47765750      -1.19307915       1.93253306
H        1.95028559      -2.01561132       0.01557863
H        1.04488430      -1.92893547      -1.49517143
H        1.67913626       2.04365818      -0.72296919
