10
Frame=0 idx=001598 GeodesicLength=0.0 rxn_smarts="[O:1]([C:2]([C:3]#[C:4][C:5](=[O:6])[H:10])([H:8])[H:9])[H:7]>>[O:1]([C:2]([C:3](=[C:4]=[C:5]=[O:6])[H:10])([H:8])[H:9])[H:7]"
O       -1.34899640      -0.85130099       1.05554345
C       -1.09850705       0.31661034       0.32883988
C        0.11709322       0.24761425      -0.51993957
C        0.82253675       0.22448008      -1.61617598
C        1.78286759       0.03717638      -0.54201751
O        2.95282566      -0.13101248      -0.37006806
H       -1.48979951      -1.58165199       0.44775911
H       -1.01554007       1.13266965       1.04674812
H       -1.89767615       0.56908288      -0.38236971
H        1.17519596       0.03633188       0.55168026
10
Frame=1 idx=001598 GeodesicLength=0.1033876519213076 rxn_smarts="[O:1]([C:2]([C:3]#[C:4][C:5](=[O:6])[H:10])([H:8])[H:9])[H:7]>>[O:1]([C:2]([C:3](=[C:4]=[C:5]=[O:6])[H:10])([H:8])[H:9])[H:7]"
O       -1.37070900      -0.84792439       1.06197577
C       -1.11241173       0.31341381       0.32636707
C        0.11503383       0.23402533      -0.50251484
C        0.83078808       0.26384131      -1.58887109
C        1.80814636       0.00722678      -0.55148596
O        2.98533076      -0.12727138      -0.40861194
H       -1.50995361      -1.58284875       0.45948565
H       -1.03888958       1.13658338       1.03739637
H       -1.90431821       0.55859174      -0.39516633
H        1.19698311       0.04436218       0.56142532
10
Frame=2 idx=001598 GeodesicLength=0.20666830326191374 rxn_smarts="[O:1]([C:2]([C:3]#[C:4][C:5](=[O:6])[H:10])([H:8])[H:9])[H:7]>>[O:1]([C:2]([C:3](=[C:4]=[C:5]=[O:6])[H:10])([H:8])[H:9])[H:7]"
O       -1.39227547      -0.84455713       1.06815065
C       -1.12682210       0.31021283       0.32366645
C        0.11298700       0.22214092      -0.48412541
C        0.83964546       0.30226879      -1.55780837
C        1.83436855      -0.01614622      -0.56104908
O        3.01617507      -0.13041542      -0.44964485
H       -1.52822379      -1.58438661       0.47106008
H       -1.06431361       1.14064421       1.02751169
H       -1.91103311       0.54683744      -0.40875787
H        1.21949200       0.05340120       0.57099672
10
Frame=3 idx=001598 GeodesicLength=0.309904972666323 rxn_smarts="[O:1]([C:2]([C:3]#[C:4][C:5](=[O:6])[H:10])([H:8])[H:9])[H:7]>>[O:1]([C:2]([C:3](=[C:4]=[C:5]=[O:6])[H:10])([H:8])[H:9])[H:7]"
O       -1.41474421      -0.84093003       1.07384676
C       -1.14152366       0.30728863       0.32094125
C        0.11117667       0.21153491      -0.46437437
C        0.84840451       0.33648039      -1.52381436
C        1.86176429      -0.03360079      -0.57080994
O        3.04655989      -0.13495768      -0.49317276
H       -1.54607542      -1.58571563       0.48203265
H       -1.09084193       1.14483502       1.01751488
H       -1.91728915       0.53508989      -0.42290354
H        1.24256900       0.05997529       0.58073942
10
Frame=4 idx=001598 GeodesicLength=0.41310390760820515 rxn_smarts="[O:1]([C:2]([C:3]#[C:4][C:5](=[O:6])[H:10])([H:8])[H:9])[H:7]>>[O:1]([C:2]([C:3](=[C:4]=[C:5]=[O:6])[H:10])([H:8])[H:9])[H:7]"
O       -1.43872646      -0.83679918       1.07901643
C       -1.15637973       0.30477227       0.31828490
C        0.10975685       0.20172385      -0.44293248
C        0.85688574       0.36536098      -1.48750661
C        1.89033464      -0.04711319      -0.58090849
O        3.07698220      -0.13706741      -0.53924868
H       -1.56441581      -1.58649950       0.49233080
H       -1.11792703       1.14922071       1.00751482
H       -1.92270667       0.52396136      -0.43753927
H        1.26619627       0.06244011       0.59098858
10
Frame=5 idx=001598 GeodesicLength=0.5163150726000707 rxn_smarts="[O:1]([C:2]([C:3]#[C:4][C:5](=[O:6])[H:10])([H:8])[H:9])[H:7]>>[O:1]([C:2]([C:3](=[C:4]=[C:5]=[O:6])[H:10])([H:8])[H:9])[H:7]"
O       -1.46434114      -0.83207142       1.08369934
C       -1.17136629       0.30267070       0.31568463
C        0.10873993       0.19251661      -0.41954378
C        0.86513692       0.38914089      -1.44918946
C        1.92005196      -0.05774640      -0.59140626
O        3.10739509      -0.13576052      -0.58794134
H       -1.58347720      -1.58666362       0.50209123
H       -1.14549714       1.15389085       0.99737269
H       -1.92716645       0.51343448      -0.45276168
H        1.29052431       0.06058843       0.60199463
10
Frame=6 idx=001598 GeodesicLength=0.6195700786144205 rxn_smarts="[O:1]([C:2]([C:3]#[C:4][C:5](=[O:6])[H:10])([H:8])[H:9])[H:7]>>[O:1]([C:2]([C:3](=[C:4]=[C:5]=[O:6])[H:10])([H:8])[H:9])[H:7]"
O       -1.49150489      -0.82674340       1.08796173
C       -1.18653059       0.30096639       0.31308423
C        0.10816302       0.18409439      -0.39399058
C        0.87334102       0.40868984      -1.40891795
C        1.95085404      -0.06584069      -0.60227829
O        3.13748957      -0.13177756      -0.63947789
H       -1.60294174      -1.58637055       0.51152410
H       -1.17388471       1.15898346       0.98686109
H       -1.93061462       0.50316017      -0.46875417
H        1.31562890       0.05483795       0.61398772
10
Frame=7 idx=001598 GeodesicLength=0.7225556485845492 rxn_smarts="[O:1]([C:2]([C:3]#[C:4][C:5](=[O:6])[H:10])([H:8])[H:9])[H:7]>>[O:1]([C:2]([C:3](=[C:4]=[C:5]=[O:6])[H:10])([H:8])[H:9])[H:7]"
O       -1.52006071      -0.82064788       1.09175337
C       -1.20186410       0.29965131       0.31041355
C        0.10809678       0.17672247      -0.36594595
C        0.88172666       0.42489704      -1.36646032
C        1.98249030      -0.07175153      -0.61349185
O        3.16670131      -0.12584911      -0.69413455
H       -1.62212992      -1.58564942       0.52080538
H       -1.20353774       1.16459484       0.97567952
H       -1.93280954       0.49269523      -0.48567474
H        1.34138695       0.04533705       0.62705559
10
Frame=8 idx=001598 GeodesicLength=0.825763605277063 rxn_smarts="[O:1]([C:2]([C:3]#[C:4][C:5](=[O:6])[H:10])([H:8])[H:9])[H:7]>>[O:1]([C:2]([C:3](=[C:4]=[C:5]=[O:6])[H:10])([H:8])[H:9])[H:7]"
O       -1.55036312      -0.81375076       1.09515488
C       -1.21725399       0.29869900       0.30769055
C        0.10839361       0.16973856      -0.33529714
C        0.89031362       0.43681630      -1.32217272
C        2.01523126      -0.07588766      -0.62519984
O        3.19508016      -0.11580240      -0.75162683
H       -1.64222157      -1.58423543       0.53006646
H       -1.23378065       1.17070905       0.96373632
H       -1.93361515       0.48239142      -0.50345568
H        1.36821583       0.03132190       0.64110399
10
Frame=9 idx=001598 GeodesicLength=0.9287300759811905 rxn_smarts="[O:1]([C:2]([C:3]#[C:4][C:5](=[O:6])[H:10])([H:8])[H:9])[H:7]>>[O:1]([C:2]([C:3](=[C:4]=[C:5]=[O:6])[H:10])([H:8])[H:9])[H:7]"
O       -1.58196946      -0.80605789       1.09803549
C       -1.23271493       0.29813385       0.30478124
C        0.10917847       0.16400868      -0.30170185
C        0.89924215       0.44573083      -1.27559066
C        2.04873976      -0.07769348      -0.63706820
O        3.22179381      -0.10401931      -0.81252329
H       -1.66196421      -1.58245575       0.53940226
H       -1.26533490       1.17748678       0.95064419
H       -1.93288839       0.47157285      -0.52238165
H        1.39591770       0.01329344       0.65640247
10
Frame=10 idx=001598 GeodesicLength=1.0313731226680054 rxn_smarts="[O:1]([C:2]([C:3]#[C:4][C:5](=[O:6])[H:10])([H:8])[H:9])[H:7]>>[O:1]([C:2]([C:3](=[C:4]=[C:5]=[O:6])[H:10])([H:8])[H:9])[H:7]"
O       -1.61482514      -0.79740676       1.10027494
C       -1.24819483       0.29798236       0.30163164
C        0.11048324       0.16002286      -0.26465262
C        0.90880126       0.45205220      -1.22639435
C        2.08279862      -0.07724800      -0.64907503
O        3.24610753      -0.09088054      -0.87709012
H       -1.68065351      -1.58023071       0.54895618
H       -1.29866334       1.18495800       0.93608590
H       -1.93015531       0.45987304      -0.54259962
H        1.42430148      -0.00912247       0.67286307
10
Frame=11 idx=001598 GeodesicLength=1.1340032570986596 rxn_smarts="[O:1]([C:2]([C:3]#[C:4][C:5](=[O:6])[H:10])([H:8])[H:9])[H:7]>>[O:1]([C:2]([C:3](=[C:4]=[C:5]=[O:6])[H:10])([H:8])[H:9])[H:7]"
O       -1.64895707      -0.78773637       1.10183869
C       -1.26372486       0.29835725       0.29814689
C        0.11226732       0.15820579      -0.22373344
C        0.91908451       0.45598614      -1.17432641
C        2.11751386      -0.07432448      -0.66111517
O        3.26768033      -0.07634527      -0.94552696
H       -1.69801485      -1.57769626       0.55905542
H       -1.33402268       1.19343731       0.91958821
H       -1.92534096       0.44706949      -0.56427841
H        1.45351440      -0.03695358       0.69035117
10
Frame=12 idx=001598 GeodesicLength=1.2369814626617277 rxn_smarts="[O:1]([C:2]([C:3]#[C:4][C:5](=[O:6])[H:10])([H:8])[H:9])[H:7]>>[O:1]([C:2]([C:3](=[C:4]=[C:5]=[O:6])[H:10])([H:8])[H:9])[H:7]"
O       -1.68482357      -0.77667065       1.10284751
C       -1.27903325       0.29927826       0.29430282
C        0.11453908       0.15784865      -0.17893071
C        0.93021367       0.45592579      -1.11975363
C        2.15331962      -0.06829065      -0.67304404
O        3.28630006      -0.05788614      -1.01752128
H       -1.71520469      -1.57452227       0.57021809
H       -1.37056743       1.20312774       0.90069915
H       -1.91804048       0.43329249      -0.58715127
H        1.48329699      -0.07210323       0.70833337
10
Frame=13 idx=001598 GeodesicLength=1.3388422872021786 rxn_smarts="[O:1]([C:2]([C:3]#[C:4][C:5](=[O:6])[H:10])([H:8])[H:9])[H:7]>>[O:1]([C:2]([C:3](=[C:4]=[C:5]=[O:6])[H:10])([H:8])[H:9])[H:7]"
O       -1.72163263      -0.76356215       1.10312418
C       -1.29316982       0.30077940       0.28997443
C        0.11712399       0.15896548      -0.13001355
C        0.94149217       0.44949911      -1.06344773
C        2.18926825      -0.05896516      -0.68452582
O        3.29971678      -0.03293312      -1.09139829
H       -1.73162663      -1.56954422       0.58259533
H       -1.40696709       1.21358318       0.87894453
H       -1.90685826       0.41869816      -0.61120080
H        1.51265323      -0.11652067       0.72594772
10
Frame=14 idx=001598 GeodesicLength=1.4408980037687185 rxn_smarts="[O:1]([C:2]([C:3]#[C:4][C:5](=[O:6])[H:10])([H:8])[H:9])[H:7]>>[O:1]([C:2]([C:3](=[C:4]=[C:5]=[O:6])[H:10])([H:8])[H:9])[H:7]"
O       -1.75949431      -0.74862358       1.10271689
C       -1.30667158       0.30305082       0.28510869
C        0.12010054       0.16290742      -0.07673984
C        0.95353157       0.43820632      -1.00478952
C        2.22648902      -0.04312638      -0.69427284
O        3.30875413      -0.00501405      -1.16868029
H       -1.74650506      -1.56378804       0.59689800
H       -1.44455965       1.22566408       0.85366559
H       -1.89253118       0.40239258      -0.63634888
H        1.54088652      -0.17166916       0.74244221
10
Frame=15 idx=001598 GeodesicLength=1.5428759585476706 rxn_smarts="[O:1]([C:2]([C:3]#[C:4][C:5](=[O:6])[H:10])([H:8])[H:9])[H:7]>>[O:1]([C:2]([C:3](=[C:4]=[C:5]=[O:6])[H:10])([H:8])[H:9])[H:7]"
O       -1.79953152      -0.72726977       1.10474341
C       -1.31778600       0.30644756       0.27959443
C        0.12304055       0.16290736      -0.02241038
C        0.96448736       0.40829733      -0.94984854
C        2.26585117      -0.02061025      -0.70319480
O        3.31559024       0.04849010      -1.23986621
H       -1.76638319      -1.55353506       0.61828639
H       -1.47575939       1.24133668       0.82277031
H       -1.87500229       0.38524425      -0.66117310
H        1.56549307      -0.25130817       0.75109850
10
Frame=16 idx=001598 GeodesicLength=1.6441182970219692 rxn_smarts="[O:1]([C:2]([C:3]#[C:4][C:5](=[O:6])[H:10])([H:8])[H:9])[H:7]>>[O:1]([C:2]([C:3](=[C:4]=[C:5]=[O:6])[H:10])([H:8])[H:9])[H:7]"
O       -1.83856638      -0.70318971       1.10614298
C       -1.32701224       0.31077642       0.27333066
C        0.12643893       0.16749761       0.03523327
C        0.97528373       0.36774632      -0.89499946
C        2.30729206       0.02421216      -0.70252225
O        3.31432107       0.09934225      -1.31322870
H       -1.78228432      -1.54136760       0.64298812
H       -1.50649715       1.25845474       0.78718583
H       -1.85370823       0.36562583      -0.68628953
H        1.58473253      -0.34909801       0.75215908
