10
Frame=0 idx=000839 GeodesicLength=0.0 rxn_smarts="[O:1]=[C:2]1[C:3]([H:7])([H:8])[N:4]=[C:5]([H:9])[N:6]1[H:10]>>[O:1]([c:2]1[c:3]([H:8])[n:4][c:5]([H:9])[n:6]1[H:10])[H:7]"
O       -1.43974425       1.42213963       0.53756342
C       -0.55357039       0.64175450       0.01511909
C       -0.84136110      -0.72248895      -0.21019751
N        0.37665579      -1.41765430      -0.31222636
C        1.29375490      -0.52679625      -0.20289820
N        0.79707586       0.76435253      -0.02436251
H       -1.55886693       0.07803674       0.81746814
H       -1.73990967      -1.09021583      -0.68567355
H        2.35785774      -0.71109814      -0.24665015
H        1.30810805       1.56197008       0.31185764
10
Frame=1 idx=000839 GeodesicLength=0.050012014990194226 rxn_smarts="[O:1]=[C:2]1[C:3]([H:7])([H:8])[N:4]=[C:5]([H:9])[N:6]1[H:10]>>[O:1]([c:2]1[c:3]([H:8])[n:4][c:5]([H:9])[n:6]1[H:10])[H:7]"
O       -1.43563699       1.42177118       0.54064032
C       -0.55323897       0.64557615       0.00728466
C       -0.84228069      -0.72295430      -0.20435357
N        0.37657786      -1.41878756      -0.30067178
C        1.29401923      -0.52687232      -0.20294985
N        0.79881934       0.76343612      -0.02273298
H       -1.57267268       0.07486192       0.82441281
H       -1.73277969      -1.08868768      -0.69673406
H        2.35782741      -0.71082249      -0.25543076
H        1.30936517       1.56247898       0.31053521
10
Frame=2 idx=000839 GeodesicLength=0.10002128690902018 rxn_smarts="[O:1]=[C:2]1[C:3]([H:7])([H:8])[N:4]=[C:5]([H:9])[N:6]1[H:10]>>[O:1]([c:2]1[c:3]([H:8])[n:4][c:5]([H:9])[n:6]1[H:10])[H:7]"
O       -1.43119753       1.42103073       0.54444994
C       -0.55285017       0.64956011      -0.00084713
C       -0.84324801      -0.72314459      -0.19880530
N        0.37642356      -1.41968953      -0.28933713
C        1.29423015      -0.52688289      -0.20324310
N        0.80056629       0.76262471      -0.02141745
H       -1.58682400       0.07137458       0.83129871
H       -1.72549230      -1.08721387      -0.70752921
H        2.35768595      -0.71076341      -0.26328308
H        1.31070606       1.56310417       0.30871374
10
Frame=3 idx=000839 GeodesicLength=0.15002626809087455 rxn_smarts="[O:1]=[C:2]1[C:3]([H:7])([H:8])[N:4]=[C:5]([H:9])[N:6]1[H:10]>>[O:1]([c:2]1[c:3]([H:8])[n:4][c:5]([H:9])[n:6]1[H:10])[H:7]"
O       -1.42643789       1.41992155       0.54890917
C       -0.55238204       0.65371086      -0.00923470
C       -0.84425165      -0.72305847      -0.19350809
N        0.37619711      -1.42039628      -0.27795704
C        1.29440296      -0.52688133      -0.20348248
N        0.80234260       0.76189538      -0.02029764
H       -1.60148036       0.06761334       0.83800728
H       -1.71799103      -1.08578506      -0.71815533
H        2.35744681      -0.71086245      -0.27075000
H        1.31215349       1.56384245       0.30646882
10
Frame=4 idx=000839 GeodesicLength=0.20002325942988397 rxn_smarts="[O:1]=[C:2]1[C:3]([H:7])([H:8])[N:4]=[C:5]([H:9])[N:6]1[H:10]>>[O:1]([c:2]1[c:3]([H:8])[n:4][c:5]([H:9])[n:6]1[H:10])[H:7]"
O       -1.42126802       1.41831835       0.55432040
C       -0.55187152       0.65803801      -0.01787935
C       -0.84531580      -0.72267944      -0.18852284
N        0.37587857      -1.42080992      -0.26715169
C        1.29450273      -0.52675434      -0.20431904
N        0.80410411       0.76131684      -0.01975408
H       -1.61643232       0.06342824       0.84476965
H       -1.71045934      -1.08434042      -0.72844989
H        2.35716600      -0.71123824      -0.27647364
H        1.31369560       1.56472092       0.30346049
10
Frame=5 idx=000839 GeodesicLength=0.2500247618821472 rxn_smarts="[O:1]=[C:2]1[C:3]([H:7])([H:8])[N:4]=[C:5]([H:9])[N:6]1[H:10]>>[O:1]([c:2]1[c:3]([H:8])[n:4][c:5]([H:9])[n:6]1[H:10])[H:7]"
O       -1.41577211       1.41632936       0.56024468
C       -0.55125996       0.66254586      -0.02675917
C       -0.84640185      -0.72202865      -0.18370025
N        0.37549397      -1.42104825      -0.25611944
C        1.29458192      -0.52664252      -0.20491573
N        0.80592156       0.76081813      -0.01936007
H       -1.63204983       0.05901825       0.85125470
H       -1.70268043      -1.08294384      -0.73858623
H        2.35680841      -0.71171536      -0.28225510
H        1.31535832       1.56566704       0.30019661
10
Frame=6 idx=000839 GeodesicLength=0.3000265430030869 rxn_smarts="[O:1]=[C:2]1[C:3]([H:7])([H:8])[N:4]=[C:5]([H:9])[N:6]1[H:10]>>[O:1]([c:2]1[c:3]([H:8])[n:4][c:5]([H:9])[n:6]1[H:10])[H:7]"
O       -1.40995914       1.41395233       0.56661600
C       -0.55051760       0.66723294      -0.03582778
C       -0.84749490      -0.72110428      -0.17898770
N        0.37504769      -1.42113988      -0.24457652
C        1.29466397      -0.52659870      -0.20494967
N        0.80781912       0.76037696      -0.01900535
H       -1.64850630       0.05442443       0.85732035
H       -1.69454835      -1.08157857      -0.74866155
H        2.35633719      -0.71224299      -0.28867254
H        1.31715833       1.56667776       0.29674475
10
Frame=7 idx=000839 GeodesicLength=0.3500385234500674 rxn_smarts="[O:1]=[C:2]1[C:3]([H:7])([H:8])[N:4]=[C:5]([H:9])[N:6]1[H:10]>>[O:1]([c:2]1[c:3]([H:8])[n:4][c:5]([H:9])[n:6]1[H:10])[H:7]"
O       -1.40380102       1.41113581       0.57351173
C       -0.54963026       0.67210279      -0.04502717
C       -0.84859039      -0.71989877      -0.17436582
N        0.37453744      -1.42107550      -0.23242429
C        1.29476034      -0.52662788      -0.20433202
N        0.80980915       0.76000146      -0.01869342
H       -1.66591247       0.04962695       0.86289008
H       -1.68600570      -1.08021213      -0.75874408
H        2.35571607      -0.71283875      -0.29582660
H        1.31911683       1.56778601       0.29301158
10
Frame=8 idx=000839 GeodesicLength=0.40005728484631786 rxn_smarts="[O:1]=[C:2]1[C:3]([H:7])([H:8])[N:4]=[C:5]([H:9])[N:6]1[H:10]>>[O:1]([c:2]1[c:3]([H:8])[n:4][c:5]([H:9])[n:6]1[H:10])[H:7]"
O       -1.39720659       1.40772833       0.58123678
C       -0.54863808       0.67717885      -0.05434482
C       -0.84971720      -0.71838864      -0.16990232
N        0.37394080      -1.42076008      -0.22025304
C        1.29482611      -0.52660722      -0.20376859
N        0.81185440       0.75976730      -0.01881071
H       -1.68406871       0.04448946       0.86817999
H       -1.67725124      -1.07879690      -0.76866951
H        2.35502802      -0.71363111      -0.30234116
H        1.32123249       1.56902002       0.28867338
10
Frame=9 idx=000839 GeodesicLength=0.45007970640171036 rxn_smarts="[O:1]=[C:2]1[C:3]([H:7])([H:8])[N:4]=[C:5]([H:9])[N:6]1[H:10]>>[O:1]([c:2]1[c:3]([H:8])[n:4][c:5]([H:9])[n:6]1[H:10])[H:7]"
O       -1.39020319       1.40373523       0.58967206
C       -0.54750979       0.68246482      -0.06373946
C       -0.85085704      -0.71657757      -0.16552292
N        0.37326653      -1.42022684      -0.20773435
C        1.29488856      -0.52658971      -0.20294213
N        0.81398868       0.75965388      -0.01921331
H       -1.70316759       0.03908177       0.87300681
H       -1.66816725      -1.07734195      -0.77850074
H        2.35423195      -0.71456930      -0.30890649
H        1.32352915       1.57036968       0.28388053
10
Frame=10 idx=000839 GeodesicLength=0.5001250588426944 rxn_smarts="[O:1]=[C:2]1[C:3]([H:7])([H:8])[N:4]=[C:5]([H:9])[N:6]1[H:10]>>[O:1]([c:2]1[c:3]([H:8])[n:4][c:5]([H:9])[n:6]1[H:10])[H:7]"
O       -1.38279956       1.39913792       0.59876318
C       -0.54621900       0.68796333      -0.07317198
C       -0.85199261      -0.71446579      -0.16117504
N        0.37252423      -1.41947268      -0.19464754
C        1.29496969      -0.52659683      -0.20163028
N        0.81623910       0.75964970      -0.01980865
H       -1.72336144       0.03345589       0.87722919
H       -1.65865796      -1.07585788      -0.78828002
H        2.35327480      -0.71563211      -0.31598257
H        1.32602276       1.57181845       0.27870371
10
Frame=11 idx=000839 GeodesicLength=0.5501853810354557 rxn_smarts="[O:1]=[C:2]1[C:3]([H:7])([H:8])[N:4]=[C:5]([H:9])[N:6]1[H:10]>>[O:1]([c:2]1[c:3]([H:8])[n:4][c:5]([H:9])[n:6]1[H:10])[H:7]"
O       -1.37497229       1.39386118       0.60850280
C       -0.54474556       0.69369027      -0.08259930
C       -0.85311095      -0.71205028      -0.15678825
N        0.37172162      -1.41848680      -0.18081246
C        1.29508336      -0.52662407      -0.19977953
N        0.81862843       0.75976245      -0.02057852
H       -1.74479702       0.02766953       0.88068100
H       -1.64863909      -1.07435438      -0.79800028
H        2.35210466      -0.71682068      -0.32384354
H        1.32872685       1.57335280       0.27321809
10
Frame=12 idx=000839 GeodesicLength=0.6002696025156382 rxn_smarts="[O:1]=[C:2]1[C:3]([H:7])([H:8])[N:4]=[C:5]([H:9])[N:6]1[H:10]>>[O:1]([c:2]1[c:3]([H:8])[n:4][c:5]([H:9])[n:6]1[H:10])[H:7]"
O       -1.36670559       1.38780310       0.61898984
C       -0.54312980       0.69966495      -0.09200728
C       -0.85423671      -0.70932233      -0.15240626
N        0.37085292      -1.41723748      -0.16671942
C        1.29519025      -0.52660437      -0.19799232
N        0.82113007       0.76005298      -0.02179599
H       -1.76725713       0.02166170       0.88358620
H       -1.63830912      -1.07280359      -0.80749733
H        2.35082516      -0.71822258      -0.33145307
H        1.33163994       1.57500762       0.26729563
10
Frame=13 idx=000839 GeodesicLength=0.6503544068026043 rxn_smarts="[O:1]=[C:2]1[C:3]([H:7])([H:8])[N:4]=[C:5]([H:9])[N:6]1[H:10]>>[O:1]([c:2]1[c:3]([H:8])[n:4][c:5]([H:9])[n:6]1[H:10])[H:7]"
O       -1.35799324       1.38093553       0.63020472
C       -0.54135198       0.70587555      -0.10137669
C       -0.85535285      -0.70628170      -0.14794494
N        0.36992295      -1.41562786      -0.15218055
C        1.29530376      -0.52650400      -0.19612898
N        0.82377021       0.76048346      -0.02343555
H       -1.79088513       0.01548453       0.88572211
H       -1.62757669      -1.07122688      -0.81671838
H        2.34939371      -0.71980050      -0.33918261
H        1.33476927       1.57666185       0.26104088
10
Frame=14 idx=000839 GeodesicLength=0.7004636675331339 rxn_smarts="[O:1]=[C:2]1[C:3]([H:7])([H:8])[N:4]=[C:5]([H:9])[N:6]1[H:10]>>[O:1]([c:2]1[c:3]([H:8])[n:4][c:5]([H:9])[n:6]1[H:10])[H:7]"
O       -1.34890017       1.37323192       0.64196915
C       -0.53942455       0.71233991      -0.11071530
C       -0.85646172      -0.70294220      -0.14339571
N        0.36895552      -1.41370064      -0.13745022
C        1.29541756      -0.52632624      -0.19445062
N        0.82654157       0.76108935      -0.02554185
H       -1.81551302       0.00920619       0.88724229
H       -1.61657589      -1.06965689      -0.82552508
H        2.34786733      -0.72158184      -0.34673826
H        1.33809336       1.57834044       0.25460559
10
Frame=15 idx=000839 GeodesicLength=0.7505924425744803 rxn_smarts="[O:1]=[C:2]1[C:3]([H:7])([H:8])[N:4]=[C:5]([H:9])[N:6]1[H:10]>>[O:1]([c:2]1[c:3]([H:8])[n:4][c:5]([H:9])[n:6]1[H:10])[H:7]"
O       -1.33951737       1.36471079       0.65403995
C       -0.53734462       0.71904546      -0.12005102
C       -0.85756126      -0.69931771      -0.13872539
N        0.36796277      -1.41143799      -0.12266745
C        1.29552989      -0.52605485      -0.19306413
N        0.82944853       0.76185567      -0.02809312
H       -1.84099200       0.00288416       0.88823005
H       -1.60539292      -1.06812050      -0.83377489
H        2.34627430      -0.72354402      -0.35409409
H        1.34159267       1.57997898       0.24820009
10
Frame=16 idx=000839 GeodesicLength=0.8007361454368568 rxn_smarts="[O:1]=[C:2]1[C:3]([H:7])([H:8])[N:4]=[C:5]([H:9])[N:6]1[H:10]>>[O:1]([c:2]1[c:3]([H:8])[n:4][c:5]([H:9])[n:6]1[H:10])[H:7]"
O       -1.32997471       1.35543069       0.66609572
C       -0.53510637       0.72597335      -0.12942442
C       -0.85864776      -0.69542865      -0.13391276
N        0.36696236      -1.40884360      -0.10798439
C        1.29564398      -0.52568844      -0.19203367
N        0.83249167       0.76276104      -0.03101790
H       -1.86711630      -0.00341753       0.88882952
H       -1.59413006      -1.06664948      -0.84134089
H        2.34463895      -0.72565906      -0.36128219
H        1.34523825       1.58152167       0.24207098
