11
Frame=0 idx=007336 GeodesicLength=0.0 rxn_smarts="[N:1]([c:2]1[c:3]([H:10])[o:4][c:5](=[O:6])[n:7]1[H:11])([H:8])[H:9]>>[N:1]([C@@:2]1([H:10])[C-:3]=[O+:4][C:5](=[O:6])[N:7]1[H:11])([H:8])[H:9]"
N       -1.76505921      -0.33994190       0.23557829
C       -0.47505975       0.13753973       0.01824977
C        0.04117987       1.39644147       0.45857365
O        1.39525631       1.21484225       0.40589661
C        1.76625260      -0.08992369       0.10251579
O        2.88887778      -0.47858129       0.05981183
N        0.59299134      -0.75093703      -0.13950022
H       -2.20809936      -0.74931808      -0.57258983
H       -2.35145084       0.36460726       0.65828742
H       -0.43375602       1.02245849      -0.86344250
H        0.54886723      -1.72718716      -0.36338078
11
Frame=1 idx=007336 GeodesicLength=0.04323669291115597 rxn_smarts="[N:1]([c:2]1[c:3]([H:10])[o:4][c:5](=[O:6])[n:7]1[H:11])([H:8])[H:9]>>[N:1]([C@@:2]1([H:10])[C-:3]=[O+:4][C:5](=[O:6])[N:7]1[H:11])([H:8])[H:9]"
N       -1.76216428      -0.34637263       0.23312206
C       -0.47546562       0.13756670       0.00379706
C        0.04212786       1.39414596       0.44720739
O        1.39505146       1.21419970       0.40696067
C        1.76680296      -0.09246008       0.10679265
O        2.88992956      -0.48044057       0.06994714
N        0.59486481      -0.75108159      -0.14434944
H       -2.21779506      -0.73389155      -0.57892489
H       -2.34247791       0.34749606       0.68112125
H       -0.44219222       1.04217514      -0.87528157
H        0.55131843      -1.73133714      -0.35039232
11
Frame=2 idx=007336 GeodesicLength=0.08644846073388539 rxn_smarts="[N:1]([c:2]1[c:3]([H:10])[o:4][c:5](=[O:6])[n:7]1[H:11])([H:8])[H:9]>>[N:1]([C@@:2]1([H:10])[C-:3]=[O+:4][C:5](=[O:6])[N:7]1[H:11])([H:8])[H:9]"
N       -1.75935980      -0.35259445       0.23019331
C       -0.47583736       0.13742619      -0.01061246
C        0.04300587       1.39174522       0.43583737
O        1.39465736       1.21331474       0.40884556
C        1.76716591      -0.09539178       0.11260644
O        2.89104969      -0.48147496       0.07714497
N        0.59668427      -0.75162847      -0.14794008
H       -2.22743602      -0.71838197      -0.58495605
H       -2.33315537       0.33048160       0.70249959
H       -0.45035887       1.06193419      -0.88685061
H        0.55358431      -1.73543031      -0.33676804
11
Frame=3 idx=007336 GeodesicLength=0.12970405140256308 rxn_smarts="[N:1]([c:2]1[c:3]([H:10])[o:4][c:5](=[O:6])[n:7]1[H:11])([H:8])[H:9]>>[N:1]([C@@:2]1([H:10])[C-:3]=[O+:4][C:5](=[O:6])[N:7]1[H:11])([H:8])[H:9]"
N       -1.75621373      -0.35895612       0.22756472
C       -0.47615155       0.13724812      -0.02547286
C        0.04396496       1.38935449       0.42390105
O        1.39424809       1.21271528       0.40939885
C        1.76754324      -0.09798855       0.11696396
O        2.89184812      -0.48361573       0.08869323
N        0.59857696      -0.75206644      -0.15235959
H       -2.23744843      -0.70284617      -0.58956095
H       -2.32268093       0.31281072       0.72429354
H       -0.45952433       1.08224609      -0.89827110
H        0.55583761      -1.73890168      -0.32515085
11
Frame=4 idx=007336 GeodesicLength=0.17296103923304842 rxn_smarts="[N:1]([c:2]1[c:3]([H:10])[o:4][c:5](=[O:6])[n:7]1[H:11])([H:8])[H:9]>>[N:1]([C@@:2]1([H:10])[C-:3]=[O+:4][C:5](=[O:6])[N:7]1[H:11])([H:8])[H:9]"
N       -1.75300910      -0.36521931       0.22477186
C       -0.47642003       0.13694125      -0.04045148
C        0.04492024       1.38690531       0.41174030
O        1.39372457       1.21207651       0.40997931
C        1.76781133      -0.10070034       0.12176645
O        2.89256766      -0.48564633       0.09999180
N        0.60045628      -0.75271449      -0.15624128
H       -2.24751766      -0.68731641      -0.59341919
H       -2.31159570       0.29505520       0.74525130
H       -0.46892817       1.10277857      -0.90942470
H        0.55799059      -1.74215997      -0.31396437
11
Frame=5 idx=007336 GeodesicLength=0.21618243997342862 rxn_smarts="[N:1]([c:2]1[c:3]([H:10])[o:4][c:5](=[O:6])[n:7]1[H:11])([H:8])[H:9]>>[N:1]([C@@:2]1([H:10])[C-:3]=[O+:4][C:5](=[O:6])[N:7]1[H:11])([H:8])[H:9]"
N       -1.74985646      -0.37130007       0.22164366
C       -0.47663170       0.13646444      -0.05541309
C        0.04585779       1.38435780       0.39952926
O        1.39304834       1.21126928       0.41110287
C        1.76793320      -0.10367386       0.12758315
O        2.89331596      -0.48710716       0.10932624
N        0.60228570      -0.75368738      -0.15911084
H       -2.25747367      -0.67183096      -0.59683877
H       -2.30018833       0.27746715       0.76489411
H       -0.47829018       1.12344479      -0.92021284
H        0.55999934      -1.74540404      -0.30250375
11
Frame=6 idx=007336 GeodesicLength=0.2594065902455764 rxn_smarts="[N:1]([c:2]1[c:3]([H:10])[o:4][c:5](=[O:6])[n:7]1[H:11])([H:8])[H:9]>>[N:1]([C@@:2]1([H:10])[C-:3]=[O+:4][C:5](=[O:6])[N:7]1[H:11])([H:8])[H:9]"
N       -1.74663003      -0.37729780       0.21838402
C       -0.47678235       0.13585604      -0.07052585
C        0.04681596       1.38174777       0.38705152
O        1.39227050       1.21045715       0.41211080
C        1.76795170      -0.10671386       0.13366180
O        2.89399719      -0.48857056       0.11882483
N        0.60410441      -0.75482180      -0.16160788
H       -2.26747248      -0.65633724      -0.59950929
H       -2.28817697       0.25977571       0.78383262
H       -0.48800784       1.14438141      -0.93069175
H        0.56192989      -1.74847682      -0.29153083
11
Frame=7 idx=007336 GeodesicLength=0.3026125400874154 rxn_smarts="[N:1]([c:2]1[c:3]([H:10])[o:4][c:5](=[O:6])[n:7]1[H:11])([H:8])[H:9]>>[N:1]([C@@:2]1([H:10])[C-:3]=[O+:4][C:5](=[O:6])[N:7]1[H:11])([H:8])[H:9]"
N       -1.74339939      -0.38315648       0.21487119
C       -0.47685493       0.13508075      -0.08567862
C        0.04779133       1.37903386       0.37445545
O        1.39135946       1.20953437       0.41338066
C        1.76784716      -0.10991320       0.14032600
O        2.89466899      -0.48969855       0.12724704
N        0.60588153      -0.75620149      -0.16339916
H       -2.27734794      -0.64087226      -0.60167361
H       -2.27579847       0.24218199       0.80168959
H       -0.49788940       1.16554785      -0.94074846
H        0.56374165      -1.75153683      -0.28047008
11
Frame=8 idx=007336 GeodesicLength=0.3458228100757425 rxn_smarts="[N:1]([c:2]1[c:3]([H:10])[o:4][c:5](=[O:6])[n:7]1[H:11])([H:8])[H:9]>>[N:1]([C@@:2]1([H:10])[C-:3]=[O+:4][C:5](=[O:6])[N:7]1[H:11])([H:8])[H:9]"
N       -1.74008474      -0.38894052       0.21124156
C       -0.47685111       0.13416326      -0.10099596
C        0.04881349       1.37625145       0.36159240
O        1.39036200       1.20861331       0.41449886
C        1.76765696      -0.11314327       0.14710185
O        2.89525610      -0.49088558       0.13599114
N        0.60765053      -0.75771018      -0.16494424
H       -2.28720643      -0.62545117      -0.60311868
H       -2.26286278       0.22455082       0.81885157
H       -0.50821840       1.18703915      -0.95040065
H        0.56548438      -1.75448727      -0.26981785
11
Frame=9 idx=007336 GeodesicLength=0.38905081602892255 rxn_smarts="[N:1]([c:2]1[c:3]([H:10])[o:4][c:5](=[O:6])[n:7]1[H:11])([H:8])[H:9]>>[N:1]([C@@:2]1([H:10])[C-:3]=[O+:4][C:5](=[O:6])[N:7]1[H:11])([H:8])[H:9]"
N       -1.73661220      -0.39469828       0.20755227
C       -0.47676862       0.13312338      -0.11658008
C        0.04989378       1.37341454       0.34832580
O        1.38929210       1.20775739       0.41515102
C        1.76738229      -0.11634127       0.15370271
O        2.89565768      -0.49234998       0.14599858
N        0.60943122      -0.75927270      -0.16658524
H       -2.29710152      -0.60994620      -0.60371522
H       -2.24917302       0.20667884       0.83562021
H       -0.51917901       1.20891935      -0.95965203
H        0.56717732      -1.75728508      -0.25981803
11
Frame=10 idx=007336 GeodesicLength=0.4323466163541029 rxn_smarts="[N:1]([c:2]1[c:3]([H:10])[o:4][c:5](=[O:6])[n:7]1[H:11])([H:8])[H:9]>>[N:1]([C@@:2]1([H:10])[C-:3]=[O+:4][C:5](=[O:6])[N:7]1[H:11])([H:8])[H:9]"
N       -1.73306656      -0.40036551       0.20370220
C       -0.47659889       0.13192331      -0.13231688
C        0.05101939       1.37051486       0.33480528
O        1.38812418       1.20688411       0.41575026
C        1.76701319      -0.11961111       0.16052815
O        2.89599574      -0.49379156       0.15598733
N        0.61120848      -0.76098939      -0.16797078
H       -2.30690222      -0.59448321      -0.60370608
H       -2.23499595       0.18885127       0.85161517
H       -0.53060754       1.23114742      -0.96841840
H        0.56881018      -1.76008018      -0.24997625
11
Frame=11 idx=007336 GeodesicLength=0.4755445864647609 rxn_smarts="[N:1]([c:2]1[c:3]([H:10])[o:4][c:5](=[O:6])[n:7]1[H:11])([H:8])[H:9]>>[N:1]([C@@:2]1([H:10])[C-:3]=[O+:4][C:5](=[O:6])[N:7]1[H:11])([H:8])[H:9]"
N       -1.72938401      -0.40598762       0.19973689
C       -0.47633843       0.13058094      -0.14830855
C        0.05223686       1.36751306       0.32082508
O        1.38689570       1.20603120       0.41590741
C        1.76653157      -0.12286141       0.16729164
O        2.89611992      -0.49541450       0.16702067
N        0.61298069      -0.76273634      -0.16942518
H       -2.31668717      -0.57887271      -0.60288194
H       -2.22007689       0.17076144       0.86713063
H       -0.54263715       1.25369745      -0.97667028
H        0.57035892      -1.76271151      -0.24062636
11
Frame=12 idx=007336 GeodesicLength=0.518891984352629 rxn_smarts="[N:1]([c:2]1[c:3]([H:10])[o:4][c:5](=[O:6])[n:7]1[H:11])([H:8])[H:9]>>[N:1]([C@@:2]1([H:10])[C-:3]=[O+:4][C:5](=[O:6])[N:7]1[H:11])([H:8])[H:9]"
N       -1.72561222      -0.41152921       0.19562576
C       -0.47599059       0.12907794      -0.16449710
C        0.05350308       1.36449253       0.30649408
O        1.38557199       1.20519880       0.41593365
C        1.76596231      -0.12618058       0.17422758
O        2.89616494      -0.49709467       0.17832471
N        0.61477315      -0.76463527      -0.17076426
H       -2.32637015      -0.56324999      -0.60144138
H       -2.20462121       0.15268488       0.88198776
H       -0.55526205       1.27662470      -0.98440724
H        0.57188075      -1.76538914      -0.23148356
11
Frame=13 idx=007336 GeodesicLength=0.5621153551784068 rxn_smarts="[N:1]([c:2]1[c:3]([H:10])[o:4][c:5](=[O:6])[n:7]1[H:11])([H:8])[H:9]>>[N:1]([C@@:2]1([H:10])[C-:3]=[O+:4][C:5](=[O:6])[N:7]1[H:11])([H:8])[H:9]"
N       -1.72176458      -0.41696072       0.19137528
C       -0.47552679       0.12738861      -0.18082127
C        0.05489333       1.36133582       0.29178994
O        1.38416678       1.20427801       0.41590179
C        1.76525097      -0.12954320       0.18138194
O        2.89606996      -0.49870419       0.18961256
N        0.61652708      -0.76661383      -0.17189162
H       -2.33581736      -0.54772494      -0.59934360
H       -2.18873960       0.13472030       0.89594865
H       -0.56834272       1.29980818      -0.99147225
H        0.57328293      -1.76798405      -0.22248142
11
Frame=14 idx=007336 GeodesicLength=0.605440130294036 rxn_smarts="[N:1]([c:2]1[c:3]([H:10])[o:4][c:5](=[O:6])[n:7]1[H:11])([H:8])[H:9]>>[N:1]([C@@:2]1([H:10])[C-:3]=[O+:4][C:5](=[O:6])[N:7]1[H:11])([H:8])[H:9]"
N       -1.71778358      -0.42232724       0.18703766
C       -0.47496964       0.12554308      -0.19741848
C        0.05637692       1.35816944       0.27656670
O        1.38269058       1.20341282       0.41553319
C        1.76442876      -0.13293783       0.18860633
O        2.89579671      -0.50050949       0.20180093
N        0.61831537      -0.76867644      -0.17316705
H       -2.34516219      -0.53217957      -0.59649656
H       -2.17220035       0.11670658       0.90940300
H       -0.58214882       1.32336774      -0.99794993
H        0.57465624      -1.77056909      -0.21391580
11
Frame=15 idx=007336 GeodesicLength=0.6487962890187833 rxn_smarts="[N:1]([c:2]1[c:3]([H:10])[o:4][c:5](=[O:6])[n:7]1[H:11])([H:8])[H:9]>>[N:1]([C@@:2]1([H:10])[C-:3]=[O+:4][C:5](=[O:6])[N:7]1[H:11])([H:8])[H:9]"
N       -1.71364492      -0.42763498       0.18256793
C       -0.47431803       0.12351734      -0.21432216
C        0.05795880       1.35491818       0.26073411
O        1.38113243       1.20255296       0.41473267
C        1.76346798      -0.13634991       0.19585504
O        2.89528647      -0.50249168       0.21504785
N        0.62014057      -0.77077682      -0.17466802
H       -2.35440538      -0.51640853      -0.59288575
H       -2.15488958       0.09848619       0.92240099
H       -0.59671540       1.34725997      -1.00377203
H        0.57598705      -1.77307273      -0.20569063
11
Frame=16 idx=007336 GeodesicLength=0.6922077768137206 rxn_smarts="[N:1]([c:2]1[c:3]([H:10])[o:4][c:5](=[O:6])[n:7]1[H:11])([H:8])[H:9]>>[N:1]([C@@:2]1([H:10])[C-:3]=[O+:4][C:5](=[O:6])[N:7]1[H:11])([H:8])[H:9]"
N       -1.70936646      -0.43286189       0.17803623
C       -0.47356423       0.12131015      -0.23149715
C        0.05967673       1.35163884       0.24426551
O        1.37949796       1.20171981       0.41360784
C        1.76234843      -0.13979427       0.20323838
O        2.89452629      -0.50462866       0.22919792
N        0.62199508      -0.77294310      -0.17634432
H       -2.36346134      -0.50064441      -0.58847658
H       -2.13692301       0.08028742       0.93482976
H       -0.61200543       1.37146354      -1.00890280
H        0.57727600      -1.77554741      -0.19795480
