14
Frame=0 idx=000578 GeodesicLength=0.0 rxn_smarts="[C:1]1([H:7])([H:8])[C@@:2]2([H:9])[C:3]([H:10])([H:11])[C:4]([H:12])([H:13])[O:5][C@@:6]12[H:14]>>[C:1]1([H:7])([H:8])[C@@:2]2([H:9])[C:3][C:4]([H:12])([H:13])[O:5][C@@:6]12[H:14].[H:10][H:11]"
C        1.48599511       0.15045439      -0.28893155
C        0.50614514       0.02403679       0.88041231
C       -0.87921196       0.48836884       0.76232375
C       -1.46983041      -0.37145996      -0.29290533
O       -0.45014075      -1.13898661      -0.95892605
C        0.69178535      -1.08018145      -0.17036984
H        1.23437010       0.83793122      -1.08533973
H        2.52983940       0.12375066      -0.00386598
H        0.95714428      -0.01947928       1.86331808
H       -0.59577020       2.03809475      -0.36587510
H       -0.94620896       1.91776308       0.35097715
H       -2.09146593       0.14121296      -1.02555221
H       -2.11026180      -1.07522249       0.25913391
H        1.13761066      -2.03628294       0.07560061
14
Frame=1 idx=000578 GeodesicLength=0.05791963211202361 rxn_smarts="[C:1]1([H:7])([H:8])[C@@:2]2([H:9])[C:3]([H:10])([H:11])[C:4]([H:12])([H:13])[O:5][C@@:6]12[H:14]>>[C:1]1([H:7])([H:8])[C@@:2]2([H:9])[C:3][C:4]([H:12])([H:13])[O:5][C@@:6]12[H:14].[H:10][H:11]"
C        1.48724700       0.14416473      -0.29466543
C        0.50904787       0.02431335       0.87703652
C       -0.87280182       0.49574849       0.74780744
C       -1.46592250      -0.37299186      -0.29929291
O       -0.44827269      -1.15254281      -0.95316550
C        0.69398692      -1.08648833      -0.16573750
H        1.23360010       0.82584661      -1.09550175
H        2.53164015       0.12018437      -0.01148483
H        0.95923325      -0.01253906       1.86046027
H       -0.60787808       2.04783197      -0.34525011
H       -0.96692970       1.93591445       0.38107430
H       -2.07873895       0.13806861      -1.04088029
H       -2.11547296      -1.06702494       0.25398776
H        1.14126141      -2.04048557       0.08561203
14
Frame=2 idx=000578 GeodesicLength=0.11582571854487089 rxn_smarts="[C:1]1([H:7])([H:8])[C@@:2]2([H:9])[C:3]([H:10])([H:11])[C:4]([H:12])([H:13])[O:5][C@@:6]12[H:14]>>[C:1]1([H:7])([H:8])[C@@:2]2([H:9])[C:3][C:4]([H:12])([H:13])[O:5][C@@:6]12[H:14].[H:10][H:11]"
C        1.48859043       0.13769176      -0.30057110
C        0.51200348       0.02481698       0.87346793
C       -0.86617812       0.50345610       0.73282779
C       -1.46190817      -0.37439514      -0.30582171
O       -0.44648084      -1.16618106      -0.94712402
C        0.69616430      -1.09278386      -0.16097634
H        1.23302306       0.81337444      -1.10596900
H        2.53351729       0.11637817      -0.01926221
H        0.96135123      -0.00520582       1.85738105
H       -0.62037980       2.05811186      -0.32389032
H       -0.98821139       1.95285475       0.41179997
H       -2.06561145       0.13487647      -1.05649883
H       -2.12067552      -1.05837148       0.24866144
H        1.14479549      -2.04462317       0.09597535
14
Frame=3 idx=000578 GeodesicLength=0.17370013123717606 rxn_smarts="[C:1]1([H:7])([H:8])[C@@:2]2([H:9])[C:3]([H:10])([H:11])[C:4]([H:12])([H:13])[O:5][C@@:6]12[H:14]>>[C:1]1([H:7])([H:8])[C@@:2]2([H:9])[C:3][C:4]([H:12])([H:13])[O:5][C@@:6]12[H:14].[H:10][H:11]"
C        1.49004614       0.13103609      -0.30663200
C        0.51501282       0.02556508       0.86970005
C       -0.85932522       0.51152289       0.71736485
C       -1.45779294      -0.37565139      -0.31247577
O       -0.44477506      -1.17983585      -0.94081427
C        0.69830598      -1.09904151      -0.15609473
H        1.23268972       0.80051794      -1.11672546
H        2.53548609       0.11231265      -0.02715992
H        0.96348306       0.00250360       1.85407692
H       -0.63329516       2.06889153      -0.30188225
H       -1.01004372       1.96849619       0.44315554
H       -2.05213944       0.13162259      -1.07235621
H       -2.12583434      -1.04926113       0.24317764
H        1.14818208      -2.04867869       0.10666562
14
Frame=4 idx=000578 GeodesicLength=0.23151964233627303 rxn_smarts="[C:1]1([H:7])([H:8])[C@@:2]2([H:9])[C:3]([H:10])([H:11])[C:4]([H:12])([H:13])[O:5][C@@:6]12[H:14]>>[C:1]1([H:7])([H:8])[C@@:2]2([H:9])[C:3][C:4]([H:12])([H:13])[O:5][C@@:6]12[H:14].[H:10][H:11]"
C        1.49163387       0.12419880      -0.31282882
C        0.51807680       0.02657465       0.86572597
C       -0.85222304       0.51998496       0.70139118
C       -1.45358240      -0.37674150      -0.31923795
O       -0.44316553      -1.19343603      -0.93425451
C        0.70039916      -1.10523246      -0.15110255
H        1.23264941       0.78728212      -1.12775150
H        2.53755973       0.10796832      -0.03513320
H        0.96561143       0.01056793       1.85054665
H       -0.64664328       2.08012519      -0.27931280
H       -1.03240697       1.98274628       0.47513312
H       -2.03839099       0.12828859      -1.08839814
H       -2.13090661      -1.03969354       0.23756767
H        1.15138845      -2.05263332       0.11765488
14
Frame=5 idx=000578 GeodesicLength=0.28926525181249985 rxn_smarts="[C:1]1([H:7])([H:8])[C@@:2]2([H:9])[C:3]([H:10])([H:11])[C:4]([H:12])([H:13])[O:5][C@@:6]12[H:14]>>[C:1]1([H:7])([H:8])[C@@:2]2([H:9])[C:3][C:4]([H:12])([H:13])[O:5][C@@:6]12[H:14].[H:10][H:11]"
C        1.49337708       0.11718267      -0.31914279
C        0.52119125       0.02786219       0.86153780
C       -0.84485460       0.52888310       0.68487354
C       -1.44928562      -0.37764861      -0.32608866
O       -0.44165996      -1.20691259      -0.92746806
C        0.70243172      -1.11132997      -0.14601257
H        1.23295850       0.77367573      -1.13902798
H        2.53975526       0.10333085      -0.04313537
H        0.96770823       0.01896594       1.84679031
H       -0.66044036       2.09177149      -0.25626747
H       -1.05526764       1.99551476       0.50772283
H       -2.02444412       0.12485180      -1.10456728
H       -2.13585180      -1.02967475       0.23187349
H        1.15438204      -2.05647260       0.12891221
14
Frame=6 idx=000578 GeodesicLength=0.3469143613777182 rxn_smarts="[C:1]1([H:7])([H:8])[C@@:2]2([H:9])[C:3]([H:10])([H:11])[C:4]([H:12])([H:13])[O:5][C@@:6]12[H:14]>>[C:1]1([H:7])([H:8])[C@@:2]2([H:9])[C:3][C:4]([H:12])([H:13])[O:5][C@@:6]12[H:14].[H:10][H:11]"
C        1.49529880       0.10999062      -0.32555268
C        0.52435422       0.02944536       0.85712656
C       -0.83719715       0.53826003       0.66777153
C       -1.44491124      -0.37835439      -0.33300888
O       -0.44026639      -1.22019249      -0.92048413
C        0.70439050      -1.11730582      -0.14083749
H        1.23367161       0.75970770      -1.15053359
H        2.54208898       0.09838325      -0.05111430
H        0.96974816       0.02767741       1.84280890
H       -0.67470523       2.10378714      -0.23282818
H       -1.07858754       2.00670430       0.54090850
H       -2.01038789       0.12128885      -1.12080587
H       -2.14062405      -1.01921051       0.22614118
H        1.15712721      -2.06018144       0.14040845
14
Frame=7 idx=000578 GeodesicLength=0.4044787111750655 rxn_smarts="[C:1]1([H:7])([H:8])[C@@:2]2([H:9])[C:3]([H:10])([H:11])[C:4]([H:12])([H:13])[O:5][C@@:6]12[H:14]>>[C:1]1([H:7])([H:8])[C@@:2]2([H:9])[C:3][C:4]([H:12])([H:13])[O:5][C@@:6]12[H:14].[H:10][H:11]"
C        1.49740456       0.10260562      -0.33207895
C        0.52757520       0.03135951       0.85246879
C       -0.82923151       0.54813540       0.65004350
C       -1.44044879      -0.37882845      -0.34002084
O       -0.43899153      -1.23328392      -0.91327473
C        0.70626977      -1.12315656      -0.13555183
H        1.23479528       0.74532826      -1.16230825
H        2.54457045       0.09310090      -0.05910008
H        0.97175048       0.03677502       1.83857382
H       -0.68948393       2.11616835      -0.20892389
H       -1.10238969       2.01617011       0.57478671
H       -1.99618272       0.11761094      -1.13716362
H       -2.14524247      -1.00823860       0.22033663
H        1.15960491      -2.06374657       0.15221274
14
Frame=8 idx=000578 GeodesicLength=0.4619397274154172 rxn_smarts="[C:1]1([H:7])([H:8])[C@@:2]2([H:9])[C:3]([H:10])([H:11])[C:4]([H:12])([H:13])[O:5][C@@:6]12[H:14]>>[C:1]1([H:7])([H:8])[C@@:2]2([H:9])[C:3][C:4]([H:12])([H:13])[O:5][C@@:6]12[H:14].[H:10][H:11]"
C        1.49971652       0.09502905      -0.33870218
C        0.53084800       0.03362671       0.84754947
C       -0.82093219       0.55856011       0.63163068
C       -1.43590865      -0.37905133      -0.34710876
O       -0.43784457      -1.24611571      -0.90587118
C        0.70805389      -1.12885274      -0.13016713
H        1.23638546       0.73053722      -1.17433768
H        2.54721361       0.08747296      -0.06703615
H        0.97368166       0.04625079       1.83408222
H       -0.70479823       2.12887110      -0.18461704
H       -1.12661033       2.02379195       0.60934975
H       -1.98192357       0.11379279      -1.15358905
H       -2.14965757      -0.99676384       0.21451191
H        1.16177597      -2.06714907       0.16430514
14
Frame=9 idx=000578 GeodesicLength=0.5193032301000453 rxn_smarts="[C:1]1([H:7])([H:8])[C@@:2]2([H:9])[C:3]([H:10])([H:11])[C:4]([H:12])([H:13])[O:5][C@@:6]12[H:14]>>[C:1]1([H:7])([H:8])[C@@:2]2([H:9])[C:3][C:4]([H:12])([H:13])[O:5][C@@:6]12[H:14].[H:10][H:11]"
C        1.50224597       0.08724098      -0.34544384
C        0.53418092       0.03629325       0.84233644
C       -0.81227263       0.56956935       0.61247128
C       -1.43127564      -0.37898442      -0.35429324
O       -0.43682931      -1.25868340      -0.89824593
C        0.70973362      -1.13438231      -0.12465553
H        1.23846447       0.71527426      -1.18666559
H        2.55003119       0.08146258      -0.07495344
H        0.97554793       0.05618436       1.82929766
H       -0.72070063       2.14188671      -0.15981243
H       -1.15127922       2.02937135       0.64468209
H       -1.96757446       0.10984315      -1.17012505
H       -2.15387905      -0.98471000       0.20864584
H        1.16360683      -2.07036584       0.17676175
14
Frame=10 idx=000578 GeodesicLength=0.5765512282275961 rxn_smarts="[C:1]1([H:7])([H:8])[C@@:2]2([H:9])[C:3]([H:10])([H:11])[C:4]([H:12])([H:13])[O:5][C@@:6]12[H:14]>>[C:1]1([H:7])([H:8])[C@@:2]2([H:9])[C:3][C:4]([H:12])([H:13])[O:5][C@@:6]12[H:14].[H:10][H:11]"
C        1.50500817       0.07924206      -0.35228676
C        0.53756500       0.03938634       0.83681043
C       -0.80322202       0.58122208       0.59248876
C       -1.42656020      -0.37860331      -0.36156426
O       -0.43596012      -1.27092241      -0.89042719
C        0.71128973      -1.13971460      -0.11902434
H        1.24107706       0.69953486      -1.19928110
H        2.55302884       0.07506764      -0.08279153
H        0.97731760       0.06658561       1.82421360
H       -0.73722041       2.15516158      -0.13455249
H       -1.17629058       2.03274931       0.68078628
H       -1.95322926       0.10573475      -1.18673728
H       -2.15785910      -0.97207113       0.20278785
H        1.16505529      -2.07337275       0.18957804
14
Frame=11 idx=000578 GeodesicLength=0.633693085901632 rxn_smarts="[C:1]1([H:7])([H:8])[C@@:2]2([H:9])[C:3]([H:10])([H:11])[C:4]([H:12])([H:13])[O:5][C@@:6]12[H:14]>>[C:1]1([H:7])([H:8])[C@@:2]2([H:9])[C:3][C:4]([H:12])([H:13])[O:5][C@@:6]12[H:14].[H:10][H:11]"
C        1.50802234       0.07100909      -0.35925231
C        0.54100986       0.04296386       0.83093099
C       -0.79374926       0.59357224       0.57159896
C       -1.42175248      -0.37786131      -0.36894558
O       -0.43524729      -1.28282824      -0.88238338
C        0.71271135      -1.14483605      -0.11324041
H        1.24425747       0.68325054      -1.21223024
H        2.55622958       0.06824782      -0.09057323
H        0.97899997       0.07754884       1.81878457
H       -0.75442523       2.16868340      -0.10871722
H       -1.20166001       2.03367535       0.71774075
H       -1.93886722       0.10147538      -1.20347162
H       -2.16161555      -0.95875585       0.19691888
H        1.16608647      -2.07614507       0.20283982
14
Frame=12 idx=000578 GeodesicLength=0.6907477904728769 rxn_smarts="[C:1]1([H:7])([H:8])[C@@:2]2([H:9])[C:3]([H:10])([H:11])[C:4]([H:12])([H:13])[O:5][C@@:6]12[H:14]>>[C:1]1([H:7])([H:8])[C@@:2]2([H:9])[C:3][C:4]([H:12])([H:13])[O:5][C@@:6]12[H:14].[H:10][H:11]"
C        1.51129128       0.06251400      -0.36637180
C        0.54452256       0.04709457       0.82465055
C       -0.78381965       0.60667643       0.54970390
C       -1.41683760      -0.37670570      -0.37647785
O       -0.43470997      -1.29441070      -0.87406545
C        0.71398098      -1.14973085      -0.10725943
H        1.24801723       0.66632583      -1.22558255
H        2.55963730       0.06096972      -0.09833132
H        0.98061264       0.08921010       1.81295529
H       -0.77240625       2.18242477      -0.08214522
H       -1.22735111       2.03185275       0.75567366
H       -1.92442854       0.09707921      -1.22041317
H       -2.16516771      -0.94465716       0.19098962
H        1.16665884      -2.07864298       0.21667376
14
Frame=13 idx=000578 GeodesicLength=0.7477398223619552 rxn_smarts="[C:1]1([H:7])([H:8])[C@@:2]2([H:9])[C:3]([H:10])([H:11])[C:4]([H:12])([H:13])[O:5][C@@:6]12[H:14]>>[C:1]1([H:7])([H:8])[C@@:2]2([H:9])[C:3][C:4]([H:12])([H:13])[O:5][C@@:6]12[H:14].[H:10][H:11]"
C        1.51483086       0.05372234      -0.37367368
C        0.54811791       0.05186131       0.81791579
C       -0.77339320       0.62061664       0.52668670
C       -1.41180591      -0.37507320      -0.38420588
O       -0.43437311      -1.30567220      -0.86542751
C        0.71508141      -1.15438158      -0.10103370
H        1.25238324       0.64865635      -1.23940704
H        2.56327418       0.05318479      -0.10609110
H        0.98218073       0.10171713       1.80666798
H       -0.79127909       2.19635702      -0.05465357
H       -1.25332941       2.02693673       0.79470100
H       -1.90987971       0.09255706      -1.23764639
H       -2.16853500      -0.92965331       0.18495252
H        1.16672711      -2.08082907       0.23121487
14
Frame=14 idx=000578 GeodesicLength=0.804676538704183 rxn_smarts="[C:1]1([H:7])([H:8])[C@@:2]2([H:9])[C:3]([H:10])([H:11])[C:4]([H:12])([H:13])[O:5][C@@:6]12[H:14]>>[C:1]1([H:7])([H:8])[C@@:2]2([H:9])[C:3][C:4]([H:12])([H:13])[O:5][C@@:6]12[H:14].[H:10][H:11]"
C        1.51865113       0.04460016      -0.38119045
C        0.55180296       0.05735995       0.81065782
C       -0.76241512       0.63547990       0.50241982
C       -1.40662739      -0.37287983      -0.39216126
O       -0.43426105      -1.31658066      -0.85639730
C        0.71597846      -1.15874180      -0.09450370
H        1.25739521       0.63013110      -1.25376551
H        2.56714473       0.04483238      -0.11389249
H        0.98371191       0.11522301       1.79983369
H       -0.81114317       2.21039306      -0.02603170
H       -1.27956784       2.01846200       0.83488919
H       -1.89515036       0.08792569      -1.25523311
H       -2.17172818      -0.91358227       0.17876860
H        1.16620872      -2.08262270       0.24660643
14
Frame=15 idx=000578 GeodesicLength=0.8615313662664572 rxn_smarts="[C:1]1([H:7])([H:8])[C@@:2]2([H:9])[C:3]([H:10])([H:11])[C:4]([H:12])([H:13])[O:5][C@@:6]12[H:14]>>[C:1]1([H:7])([H:8])[C@@:2]2([H:9])[C:3][C:4]([H:12])([H:13])[O:5][C@@:6]12[H:14].[H:10][H:11]"
C        1.52275335       0.03515539      -0.38890555
C        0.55554105       0.06366533       0.80282147
C       -0.75085416       0.65136482       0.47676904
C       -1.40130579      -0.37006020      -0.40033459
O       -0.43439971      -1.32702379      -0.84697801
C        0.71662309      -1.16273177      -0.08765447
H        1.26310900       0.61070304      -1.26866040
H        2.57122652       0.03592634      -0.12166228
H        0.98513121       0.12980294       1.79239833
H       -0.83204115       2.22434925       0.00375221
H       -1.30577379       2.00600626       0.87620996
H       -1.88031896       0.08315734      -1.27313996
H       -2.17469086      -0.89638853       0.17248389
H        1.16500019      -2.08392642       0.26290036
14
Frame=16 idx=000578 GeodesicLength=0.9183248754407063 rxn_smarts="[C:1]1([H:7])([H:8])[C@@:2]2([H:9])[C:3]([H:10])([H:11])[C:4]([H:12])([H:13])[O:5][C@@:6]12[H:14]>>[C:1]1([H:7])([H:8])[C@@:2]2([H:9])[C:3][C:4]([H:12])([H:13])[O:5][C@@:6]12[H:14].[H:10][H:11]"
C        1.52715152       0.02535997      -0.39682915
C        0.55935861       0.07089350       0.79435556
C       -0.73866759       0.66839361       0.44963159
C       -1.39583984      -0.36650965      -0.40875862
O       -0.43483615      -1.33695909      -0.83712552
C        0.71698657      -1.16630833      -0.08042336
H        1.26954151       0.59027528      -1.28413500
H        2.57554701       0.02640196      -0.12940157
H        0.98650083       0.14561810       1.78430600
H       -0.85408543       2.23808477       0.03489143
H       -1.33185123       1.98904853       0.91862452
H       -1.86540468       0.07829678      -1.29142203
H       -2.17744326      -0.87791283       0.16604835
H        1.16304212      -2.08468261       0.28023782
