14
Frame=0 idx=005580 GeodesicLength=0.0 rxn_smarts="[C:1]1([H:7])([H:8])[C@:2]2([H:9])[C:3]([H:10])([H:11])[C:4]([H:12])([H:13])[C@@:5]1([H:14])[O:6]2>>[C:1]1([H:7])([H:8])[C@:2]([C:3]([C:4]([C:5][H:14])([H:12])[H:13])([H:10])[H:11])([H:9])[O:6]1"
C        1.30391069       0.90528456      -0.49737624
C        0.23811925       0.95657243       0.49625059
C       -1.12705564       0.42563204       0.09464488
C       -0.87944605      -1.08789917      -0.06240816
C        0.59651642      -1.17935188      -0.35298512
O        1.08947188      -0.15625891       0.83596100
H        1.16269219       0.75162719      -1.55213239
H        2.24931364       1.34312450      -0.19486107
H        0.28095707       1.73060946       1.25650984
H       -1.87296564       0.64802521       0.85867269
H       -1.45206457       0.89044018      -0.83771318
H       -1.17976256      -1.59509744       0.86842617
H       -1.46265634      -1.51439279      -0.88042211
H        1.05296967      -2.11831537      -0.03256686
14
Frame=1 idx=005580 GeodesicLength=0.03433200491017502 rxn_smarts="[C:1]1([H:7])([H:8])[C@:2]2([H:9])[C:3]([H:10])([H:11])[C:4]([H:12])([H:13])[C@@:5]1([H:14])[O:6]2>>[C:1]1([H:7])([H:8])[C@:2]([C:3]([C:4]([C:5][H:14])([H:12])[H:13])([H:10])[H:11])([H:9])[O:6]1"
C        1.30281398       0.89138768      -0.49719179
C        0.23741888       0.95665185       0.49900647
C       -1.12768571       0.42675465       0.09642455
C       -0.87781316      -1.08584346      -0.06403734
C        0.60103784      -1.17270905      -0.34461917
O        1.08628612      -0.15613640       0.84621093
H        1.14939504       0.75435552      -1.55329386
H        2.25061028       1.33079396      -0.20426039
H        0.28146547       1.73621859       1.25371898
H       -1.87310554       0.64681244       0.86154683
H       -1.45312097       0.89247897      -0.83529417
H       -1.18310402      -1.59827559       0.86183444
H       -1.45337366      -1.50939402      -0.88902246
H        1.05917547      -2.11309516      -0.03102302
14
Frame=2 idx=005580 GeodesicLength=0.06867586202833091 rxn_smarts="[C:1]1([H:7])([H:8])[C@:2]2([H:9])[C:3]([H:10])([H:11])[C:4]([H:12])([H:13])[C@@:5]1([H:14])[O:6]2>>[C:1]1([H:7])([H:8])[C@:2]([C:3]([C:4]([C:5][H:14])([H:12])[H:13])([H:10])[H:11])([H:9])[O:6]1"
C        1.30160435       0.87769950      -0.49703510
C        0.23672088       0.95673066       0.50170081
C       -1.12831443       0.42786964       0.09815994
C       -0.87620704      -1.08379616      -0.06562871
C        0.60541823      -1.16617336      -0.33631781
O        1.08316226      -0.15598045       0.85616636
H        1.13642643       0.75704000      -1.55413679
H        2.25176056       1.31850058      -0.21363384
H        0.28199748       1.74166227       1.25095746
H       -1.87324005       0.64562514       0.86436273
H       -1.45417621       0.89447319      -0.83293605
H       -1.18634322      -1.60138821       0.85528280
H       -1.44415658      -1.50439491      -0.89742417
H        1.06534734      -2.10786787      -0.02951763
14
Frame=3 idx=005580 GeodesicLength=0.10302508314147585 rxn_smarts="[C:1]1([H:7])([H:8])[C@:2]2([H:9])[C:3]([H:10])([H:11])[C:4]([H:12])([H:13])[C@@:5]1([H:14])[O:6]2>>[C:1]1([H:7])([H:8])[C@:2]([C:3]([C:4]([C:5][H:14])([H:12])[H:13])([H:10])[H:11])([H:9])[O:6]1"
C        1.30028804       0.86422385      -0.49690025
C        0.23602443       0.95680695       0.50433842
C       -1.12894175       0.42897782       0.09984734
C       -0.87462905      -1.08175807      -0.06717771
C        0.60965866      -1.15973883      -0.32808857
O        1.08010221      -0.15579474       0.86583280
H        1.12379208       0.75967102      -1.55468165
H        2.25276757       1.30625560      -0.22297075
H        0.28254569       1.74693767       1.24823638
H       -1.87337336       0.64446813       0.86711196
H       -1.45522391       0.89641867      -0.83064693
H       -1.18947469      -1.60443105       0.84878419
H       -1.43501841      -1.49940434      -0.90561528
H        1.07148248      -2.10263268      -0.02806994
14
Frame=4 idx=005580 GeodesicLength=0.13738379949724566 rxn_smarts="[C:1]1([H:7])([H:8])[C@:2]2([H:9])[C:3]([H:10])([H:11])[C:4]([H:12])([H:13])[C@@:5]1([H:14])[O:6]2>>[C:1]1([H:7])([H:8])[C@:2]([C:3]([C:4]([C:5][H:14])([H:12])[H:13])([H:10])[H:11])([H:9])[O:6]1"
C        1.29886707       0.85095502      -0.49678775
C        0.23532836       0.95688425       0.50692367
C       -1.12956928       0.43008026       0.10149443
C       -0.87307754      -1.07972824      -0.06869115
C        0.61376779      -1.15340544      -0.31992202
O        1.07710728      -0.15557694       0.87522777
H        1.11147201       0.76223717      -1.55494892
H        2.25363988       1.29404770      -0.23227815
H        0.28310513       1.75206303       1.24555245
H       -1.87350361       0.64333636       0.86980868
H       -1.45626957       0.89832283      -0.82841630
H       -1.19250974      -1.60741356       0.84232514
H       -1.42594717      -1.49441266      -0.91362101
H        1.07758939      -2.09738978      -0.02666683
14
Frame=5 idx=005580 GeodesicLength=0.17176278635105763 rxn_smarts="[C:1]1([H:7])([H:8])[C@:2]2([H:9])[C:3]([H:10])([H:11])[C:4]([H:12])([H:13])[C@@:5]1([H:14])[O:6]2>>[C:1]1([H:7])([H:8])[C@:2]([C:3]([C:4]([C:5][H:14])([H:12])[H:13])([H:10])[H:11])([H:9])[O:6]1"
C        1.29734319       0.83788618      -0.49669640
C        0.23463178       0.95696342       0.50946090
C       -1.13019730       0.43117603       0.10310898
C       -0.87155086      -1.07770484      -0.07017460
C        0.61775202      -1.14717013      -0.31180725
O        1.07417611      -0.15532524       0.88436836
H        1.09944850       0.76473174      -1.55495871
H        2.25438568       1.28186656      -0.24156497
H        0.28367309       1.75705435       1.24289796
H       -1.87362898       0.64222145       0.87246531
H       -1.45731668       0.90019061      -0.82623235
H       -1.19546110      -1.61034427       0.83589230
H       -1.41692790      -1.48940865      -0.92146349
H        1.08367245      -2.09213721      -0.02529606
14
Frame=6 idx=005580 GeodesicLength=0.20616474897946663 rxn_smarts="[C:1]1([H:7])([H:8])[C@:2]2([H:9])[C:3]([H:10])([H:11])[C:4]([H:12])([H:13])[C@@:5]1([H:14])[O:6]2>>[C:1]1([H:7])([H:8])[C@:2]([C:3]([C:4]([C:5][H:14])([H:12])[H:13])([H:10])[H:11])([H:9])[O:6]1"
C        1.29571941       0.82501072      -0.49662504
C        0.23393354       0.95704986       0.51195376
C       -1.13082756       0.43226659       0.10469917
C       -0.87004651      -1.07568804      -0.07163441
C        0.62161923      -1.14103353      -0.30373489
O        1.07130736      -0.15503506       0.89326995
H        1.08769778       0.76714339      -1.55473080
H        2.25501372       1.26970011      -0.25083550
H        0.28424745       1.76192989       1.24026669
H       -1.87374679       0.64111968       0.87509733
H       -1.45837237       0.90202997      -0.82408367
H       -1.19833922      -1.61323341       0.82947078
H       -1.40794315      -1.48438386      -0.92916890
H        1.08973710      -2.08687631      -0.02394446
14
Frame=7 idx=005580 GeodesicLength=0.2405929793387015 rxn_smarts="[C:1]1([H:7])([H:8])[C@:2]2([H:9])[C:3]([H:10])([H:11])[C:4]([H:12])([H:13])[C@@:5]1([H:14])[O:6]2>>[C:1]1([H:7])([H:8])[C@:2]([C:3]([C:4]([C:5][H:14])([H:12])[H:13])([H:10])[H:11])([H:9])[O:6]1"
C        1.29399929       0.81233000      -0.49656804
C        0.23323452       0.95713764       0.51440199
C       -1.13145611       0.43334717       0.10626006
C       -0.86856730      -1.07367557      -0.07306823
C        0.62536679      -1.13498493      -0.29570727
O        1.06849894      -0.15470839       0.90193476
H        1.07622207       0.76947283      -1.55427536
H        2.25552269       1.25755722      -0.26008569
H        0.28483279       1.76667831       1.23766383
H       -1.87385606       0.64002590       0.87768894
H       -1.45942737       0.90383209      -0.82197090
H       -1.20113908      -1.61607776       0.82306522
H       -1.39900443      -1.47934010      -0.93672261
H        1.09577325      -2.08159442      -0.02261670
14
Frame=8 idx=005580 GeodesicLength=0.27504359643916726 rxn_smarts="[C:1]1([H:7])([H:8])[C@:2]2([H:9])[C:3]([H:10])([H:11])[C:4]([H:12])([H:13])[C@@:5]1([H:14])[O:6]2>>[C:1]1([H:7])([H:8])[C@:2]([C:3]([C:4]([C:5][H:14])([H:12])[H:13])([H:10])[H:11])([H:9])[O:6]1"
C        1.29218527       0.79983577      -0.49652955
C        0.23253145       0.95723417       0.51681117
C       -1.13208808       0.43442266       0.10779873
C       -0.86710913      -1.07166911      -0.07448269
C        0.62900648      -1.12903018      -0.28771736
O        1.06575237      -0.15434613       0.91038431
H        1.06500164       0.77171922      -1.55361485
H        2.25592531       1.24541837      -0.26932068
H        0.28542270       1.77132509       1.23508787
H       -1.87396142       0.63894059       0.88025841
H       -1.46049649       0.90561011      -0.81988859
H       -1.20386753      -1.61888630       0.81666656
H       -1.39009754      -1.47427127      -0.94415176
H        1.10179496      -2.07630299      -0.02130156
14
Frame=9 idx=005580 GeodesicLength=0.3095293257995063 rxn_smarts="[C:1]1([H:7])([H:8])[C@:2]2([H:9])[C:3]([H:10])([H:11])[C:4]([H:12])([H:13])[C@@:5]1([H:14])[O:6]2>>[C:1]1([H:7])([H:8])[C@:2]([C:3]([C:4]([C:5][H:14])([H:12])[H:13])([H:10])[H:11])([H:9])[O:6]1"
C        1.29028091       0.78752117      -0.49650366
C        0.23182446       0.95734090       0.51918200
C       -1.13272306       0.43549129       0.10932322
C       -0.86567128      -1.06966641      -0.07588509
C        0.63254141      -1.12315958      -0.27975914
O        1.06306552      -0.15393673       0.91863149
H        1.05401581       0.77386881      -1.55275709
H        2.25622922       1.23326514      -0.27854805
H        0.28601319       1.77587905       1.23252344
H       -1.87405641       0.63785436       0.88281875
H       -1.46158339       0.90736841      -0.81782155
H       -1.20653406      -1.62166867       0.81025837
H       -1.38120674      -1.46916643      -0.95147640
H        1.10780442      -2.07099132      -0.01998629
14
Frame=10 idx=005580 GeodesicLength=0.3440569498213886 rxn_smarts="[C:1]1([H:7])([H:8])[C@:2]2([H:9])[C:3]([H:10])([H:11])[C:4]([H:12])([H:13])[C@@:5]1([H:14])[O:6]2>>[C:1]1([H:7])([H:8])[C@:2]([C:3]([C:4]([C:5][H:14])([H:12])[H:13])([H:10])[H:11])([H:9])[O:6]1"
C        1.28828180       0.77537541      -0.49650024
C        0.23111220       0.95745979       0.52151591
C       -1.13336187       0.43655079       0.11083961
C       -0.86424864      -1.06766468      -0.07727951
C        0.63598202      -1.11738396      -0.27181140
O        1.06043637      -0.15348985       0.92669016
H        1.04324805       0.77594316      -1.55172136
H        2.25643799       1.22108466      -0.28777893
H        0.28660636       1.78036379       1.22996899
H       -1.87414213       0.63675666       0.88537688
H       -1.46269175       0.90910848      -0.81575852
H       -1.20914873      -1.62442685       0.80382395
H       -1.37231486      -1.46400950      -0.95871374
H        1.11380320      -2.06566789      -0.01865180
14
Frame=11 idx=005580 GeodesicLength=0.37863591442893135 rxn_smarts="[C:1]1([H:7])([H:8])[C@:2]2([H:9])[C:3]([H:10])([H:11])[C:4]([H:12])([H:13])[C@@:5]1([H:14])[O:6]2>>[C:1]1([H:7])([H:8])[C@:2]([C:3]([C:4]([C:5][H:14])([H:12])[H:13])([H:10])[H:11])([H:9])[O:6]1"
C        1.28620003       0.76340557      -0.49649870
C        0.23039685       0.95759334       0.52381737
C       -1.13400312       0.43760266       0.11235696
C       -0.86284034      -1.06566272      -0.07867222
C        0.63932645      -1.11168464      -0.26387117
O        1.05785704      -0.15298321       0.93456316
H        1.03266166       0.77789186      -1.55052329
H        2.25656850       1.20886813      -0.29701828
H        0.28719909       1.78476980       1.22741093
H       -1.87421246       0.63564000       0.88794939
H       -1.46382481       0.91084006      -0.81368682
H       -1.21172149      -1.62717456       0.79734628
H       -1.36339763      -1.45878947      -0.96588801
H        1.11979023      -2.06031682      -0.01728560
14
Frame=12 idx=005580 GeodesicLength=0.4132530392708356 rxn_smarts="[C:1]1([H:7])([H:8])[C@:2]2([H:9])[C:3]([H:10])([H:11])[C:4]([H:12])([H:13])[C@@:5]1([H:14])[O:6]2>>[C:1]1([H:7])([H:8])[C@:2]([C:3]([C:4]([C:5][H:14])([H:12])[H:13])([H:10])[H:11])([H:9])[O:6]1"
C        1.28403252       0.75159720      -0.49651233
C        0.22967667       0.95774010       0.52608646
C       -1.13464833       0.43864658       0.11386837
C       -0.86144789      -1.06366300      -0.08005935
C        0.64258072      -1.10607083      -0.25594557
O        1.05533752      -0.15243500       0.94226524
H        1.02227592       0.77975773      -1.54916675
H        2.25661058       1.19661982      -0.30626175
H        0.28778856       1.78911072       1.22486301
H       -1.87427394       0.63451101       0.89052277
H       -1.46497770       0.91255619      -0.81161879
H       -1.21424481      -1.62990197       0.79084147
H       -1.35447626      -1.45351795      -0.97298249
H        1.12576643      -2.05495061      -0.01590029
14
Frame=13 idx=005580 GeodesicLength=0.44790466735761153 rxn_smarts="[C:1]1([H:7])([H:8])[C@:2]2([H:9])[C:3]([H:10])([H:11])[C:4]([H:12])([H:13])[C@@:5]1([H:14])[O:6]2>>[C:1]1([H:7])([H:8])[C@:2]([C:3]([C:4]([C:5][H:14])([H:12])[H:13])([H:10])[H:11])([H:9])[O:6]1"
C        1.28178812       0.73995007      -0.49653368
C        0.22895227       0.95789665       0.52832515
C       -1.13529577       0.43968334       0.11536908
C       -0.86007190      -1.06166588      -0.08143582
C        0.64574231      -1.10053479      -0.24804360
O        1.05287558      -0.15184805       0.94979672
H        1.01209390       0.78153507      -1.54766333
H        2.25656346       1.18435462      -0.31549728
H        0.28837121       1.79337604       1.22233157
H       -1.87432860       0.63337556       0.89308692
H       -1.46614258       0.91425398      -0.80956276
H       -1.21671221      -1.63260392       0.78432188
H       -1.34556180      -1.44820654      -0.97998005
H        1.13172600      -2.04956615      -0.01451480
14
Frame=14 idx=005580 GeodesicLength=0.4825836910726358 rxn_smarts="[C:1]1([H:7])([H:8])[C@:2]2([H:9])[C:3]([H:10])([H:11])[C:4]([H:12])([H:13])[C@@:5]1([H:14])[O:6]2>>[C:1]1([H:7])([H:8])[C@:2]([C:3]([C:4]([C:5][H:14])([H:12])[H:13])([H:10])[H:11])([H:9])[O:6]1"
C        1.27947351       0.72846269      -0.49655856
C        0.22822436       0.95806045       0.53053554
C       -1.13594396       0.44071389       0.11685404
C       -0.85871284      -1.05967241      -0.08279727
C        0.64881140      -1.09507276      -0.24017285
O        1.05047122      -0.15122724       0.95715997
H        1.00211648       0.78322449      -1.54602312
H        2.25642604       1.17208602      -0.32471469
H        0.28894453       1.79755935       1.21982510
H       -1.87437898       0.63224003       0.89563163
H       -1.46731227       0.91593066      -0.80752777
H       -1.21911851      -1.63527477       0.77779983
H       -1.33666596      -1.44286664      -0.98686678
H        1.13766498      -2.04416376      -0.01314507
14
Frame=15 idx=005580 GeodesicLength=0.5172829755751992 rxn_smarts="[C:1]1([H:7])([H:8])[C@:2]2([H:9])[C:3]([H:10])([H:11])[C:4]([H:12])([H:13])[C@@:5]1([H:14])[O:6]2>>[C:1]1([H:7])([H:8])[C@:2]([C:3]([C:4]([C:5][H:14])([H:12])[H:13])([H:10])[H:11])([H:9])[O:6]1"
C        1.27709528       0.71713324      -0.49658354
C        0.22749360       0.95822893       0.53271968
C       -1.13659142       0.44173919       0.11831804
C       -0.85737118      -1.05768370      -0.08413929
C        0.65178852      -1.08968141      -0.23234089
O        1.04812466      -0.15057803       0.96435744
H        0.99234456       0.78482809      -1.54425566
H        2.25619728       1.15982745      -0.33390421
H        0.28950594       1.80165446       1.21735275
H       -1.87442781       0.63111110       0.89814639
H       -1.46847955       0.91758346      -0.80552313
H       -1.22145870      -1.63790873       0.77128824
H       -1.32780080      -1.43750998      -0.99362908
H        1.14357961      -2.03874407      -0.01180673
14
Frame=16 idx=005580 GeodesicLength=0.5519956981339117 rxn_smarts="[C:1]1([H:7])([H:8])[C@:2]2([H:9])[C:3]([H:10])([H:11])[C:4]([H:12])([H:13])[C@@:5]1([H:14])[O:6]2>>[C:1]1([H:7])([H:8])[C@:2]([C:3]([C:4]([C:5][H:14])([H:12])[H:13])([H:10])[H:11])([H:9])[O:6]1"
C        1.27465981       0.70595964      -0.49660572
C        0.22676073       0.95839952       0.53487949
C       -1.13723662       0.44276014       0.11975602
C       -0.85604738      -1.05570088      -0.08545771
C        0.65467457      -1.08435759      -0.22455505
O        1.04583618      -0.14990598       0.97139178
H        0.98277873       0.78634887      -1.54236982
H        2.25587641       1.14759195      -0.34305676
H        0.29005300       1.80565575       1.21492343
H       -1.87447762       0.62999516       0.90062108
H       -1.46963739       0.91920968      -0.80355778
H       -1.22372825      -1.64050032       0.76479981
H       -1.31897825      -1.43214821      -1.00025450
H        1.14946609      -2.03330774      -0.01051428
