10
Frame=0 idx=007939 GeodesicLength=0.0 rxn_smarts="[O:1]([c:2]1[c:3]([H:9])[n:4][n:5][c:6]([H:10])[n:7]1)[H:8]>>[O:1]([C@@:2]1([C:3](=[N+:4]=[N-:5])[H:9])[C:6]([H:10])=[N:7]1)[H:8]"
O        1.80306220      -0.41243767      -0.26422679
C        0.53975581      -0.11998574       0.09464898
C        0.25079312       1.29325172       0.07499965
N       -1.03754149       1.51213735       0.13684870
N       -1.94937403       0.80542335      -0.01137886
C       -0.89620907      -0.98882856      -0.22934150
N       -0.13317064      -1.14502865       0.78310497
H        2.03827897      -1.25966483       0.13144875
H        0.97881453       2.05838004      -0.11910726
H       -1.59440939      -1.74324701      -0.59699662
10
Frame=1 idx=007939 GeodesicLength=0.026928220183659646 rxn_smarts="[O:1]([c:2]1[c:3]([H:9])[n:4][n:5][c:6]([H:10])[n:7]1)[H:8]>>[O:1]([C@@:2]1([C:3](=[N+:4]=[N-:5])[H:9])[C:6]([H:10])=[N:7]1)[H:8]"
O        1.81033092      -0.40938309      -0.26236815
C        0.54341253      -0.12228528       0.09044038
C        0.24962717       1.29006009       0.07402331
N       -1.03821558       1.51330620       0.12531513
N       -1.95342380       0.80421287      -0.02151715
C       -0.90305537      -0.98538210      -0.22370422
N       -0.12897207      -1.14476997       0.78144678
H        2.04286379      -1.26235091       0.12216805
H        0.97822586       2.05961990      -0.10079266
H       -1.60079344      -1.74302771      -0.58501148
10
Frame=2 idx=007939 GeodesicLength=0.05383037700887894 rxn_smarts="[O:1]([c:2]1[c:3]([H:9])[n:4][n:5][c:6]([H:10])[n:7]1)[H:8]>>[O:1]([C@@:2]1([C:3](=[N+:4]=[N-:5])[H:9])[C:6]([H:10])=[N:7]1)[H:8]"
O        1.81769907      -0.40627502      -0.26016571
C        0.54706925      -0.12463509       0.08611951
C        0.24848359       1.28682211       0.07302922
N       -1.03876894       1.51446381       0.11382231
N       -1.95744122       0.80305135      -0.03152313
C       -0.90991255      -0.98185672      -0.21798040
N       -0.12478014      -1.14456674       0.77966543
H        2.04748174      -1.26498241       0.11283502
H        0.97731717       2.06059807      -0.08269425
H       -1.60714797      -1.74261937      -0.57310801
10
Frame=3 idx=007939 GeodesicLength=0.08071931413955974 rxn_smarts="[O:1]([c:2]1[c:3]([H:9])[n:4][n:5][c:6]([H:10])[n:7]1)[H:8]>>[O:1]([C@@:2]1([C:3](=[N+:4]=[N-:5])[H:9])[C:6]([H:10])=[N:7]1)[H:8]"
O        1.82516009      -0.40311220      -0.25764892
C        0.55072467      -0.12703542       0.08164941
C        0.24735813       1.28353829       0.07196475
N       -1.03920678       1.51561472       0.10226420
N       -1.96143277       0.80193139      -0.04144726
C       -0.91678607      -0.97826648      -0.21214259
N       -0.12057983      -1.14439987       0.77777337
H        2.05213572      -1.26755360       0.10339046
H        0.97612931       2.06133639      -0.06461127
H       -1.61350246      -1.74205321      -0.56119215
10
Frame=4 idx=007939 GeodesicLength=0.10761306174423839 rxn_smarts="[O:1]([c:2]1[c:3]([H:9])[n:4][n:5][c:6]([H:10])[n:7]1)[H:8]>>[O:1]([C@@:2]1([C:3](=[N+:4]=[N-:5])[H:9])[C:6]([H:10])=[N:7]1)[H:8]"
O        1.83270769      -0.39988549      -0.25484817
C        0.55437922      -0.12947961       0.07699364
C        0.24624952       1.28021474       0.07076316
N       -1.03953142       1.51676486       0.09047673
N       -1.96540170       0.80084256      -0.05138427
C       -0.92368015      -0.97462810      -0.20613603
N       -0.11635088      -1.14422645       0.77581405
H        2.05680405      -1.27008340       0.09370200
H        0.97469757       2.06185764      -0.04624735
H       -1.61987391      -1.74137675      -0.54913376
10
Frame=5 idx=007939 GeodesicLength=0.1344791151353191 rxn_smarts="[O:1]([c:2]1[c:3]([H:9])[n:4][n:5][c:6]([H:10])[n:7]1)[H:8]>>[O:1]([C@@:2]1([C:3](=[N+:4]=[N-:5])[H:9])[C:6]([H:10])=[N:7]1)[H:8]"
O        1.84033505      -0.39659760      -0.25178642
C        0.55803076      -0.13196886       0.07210250
C        0.24514455       1.27683992       0.06934424
N       -1.03974591       1.51791145       0.07830887
N       -1.96934143       0.79978354      -0.06143740
C       -0.93058621      -0.97094457      -0.19991145
N       -0.11206647      -1.14399526       0.77380639
H        2.06147394      -1.27258385       0.08364872
H        0.97302850       2.06216184      -0.02729802
H       -1.62627278      -1.74060661      -0.53677743
10
Frame=6 idx=007939 GeodesicLength=0.16132827974228842 rxn_smarts="[O:1]([c:2]1[c:3]([H:9])[n:4][n:5][c:6]([H:10])[n:7]1)[H:8]>>[O:1]([C@@:2]1([C:3](=[N+:4]=[N-:5])[H:9])[C:6]([H:10])=[N:7]1)[H:8]"
O        1.84805267      -0.39326200      -0.24817144
C        0.56168680      -0.13452409       0.06723720
C        0.24408124       1.27341432       0.06822611
N       -1.03982685       1.51902649       0.06658038
N       -1.97323781       0.79879600      -0.07120620
C       -0.93748834      -0.96713179      -0.19369198
N       -0.10784794      -1.14395968       0.77159040
H        2.06622304      -1.27496912       0.07368934
H        0.97096013       2.06215063      -0.00942876
H       -1.63260294      -1.73954078      -0.52482505
10
Frame=7 idx=007939 GeodesicLength=0.1881524575662089 rxn_smarts="[O:1]([c:2]1[c:3]([H:9])[n:4][n:5][c:6]([H:10])[n:7]1)[H:8]>>[O:1]([C@@:2]1([C:3](=[N+:4]=[N-:5])[H:9])[C:6]([H:10])=[N:7]1)[H:8]"
O        1.85583942      -0.38988717      -0.24406315
C        0.56534036      -0.13714562       0.06234045
C        0.24304209       1.26992925       0.06731774
N       -1.03978778       1.52011334       0.05514468
N       -1.97710010       0.79787126      -0.08076255
C       -0.94439380      -0.96320610      -0.18743032
N       -0.10367375      -1.14407756       0.76918562
H        2.07105596      -1.27722290       0.06375194
H        0.96856466       2.06184512       0.00766301
H       -1.63888705      -1.73821962      -0.51314740
10
Frame=8 idx=007939 GeodesicLength=0.21496362686241216 rxn_smarts="[O:1]([c:2]1[c:3]([H:9])[n:4][n:5][c:6]([H:10])[n:7]1)[H:8]>>[O:1]([C@@:2]1([C:3](=[N+:4]=[N-:5])[H:9])[C:6]([H:10])=[N:7]1)[H:8]"
O        1.86368054      -0.38647306      -0.23948298
C        0.56898878      -0.13983362       0.05739143
C        0.24201893       1.26637798       0.06659405
N       -1.03963413       1.52117211       0.04389676
N       -1.98092898       0.79699929      -0.09019754
C       -0.95130615      -0.95918537      -0.18108547
N       -0.09953330      -1.14432679       0.76662028
H        2.07596057      -1.27934958       0.05373517
H        0.96589694       2.06130064       0.02417371
H       -1.64514319      -1.73668160      -0.50164540
10
Frame=9 idx=007939 GeodesicLength=0.24176667029261523 rxn_smarts="[O:1]([c:2]1[c:3]([H:9])[n:4][n:5][c:6]([H:10])[n:7]1)[H:8]>>[O:1]([C@@:2]1([C:3](=[N+:4]=[N-:5])[H:9])[C:6]([H:10])=[N:7]1)[H:8]"
O        1.87155967      -0.38302514      -0.23448674
C        0.57263101      -0.14258443       0.05233963
C        0.24100637       1.26276501       0.06595314
N       -1.03936651       1.52221016       0.03266471
N       -1.98472783       0.79617106      -0.09958183
C       -0.95822983      -0.95508393      -0.17461012
N       -0.09540406      -1.14466757       0.76392053
H        2.08093730      -1.28133769       0.04355326
H        0.96299296       2.06051676       0.04042993
H       -1.65139908      -1.73496423      -0.49018250
10
Frame=10 idx=007939 GeodesicLength=0.26856961542492125 rxn_smarts="[O:1]([c:2]1[c:3]([H:9])[n:4][n:5][c:6]([H:10])[n:7]1)[H:8]>>[O:1]([C@@:2]1([C:3](=[N+:4]=[N-:5])[H:9])[C:6]([H:10])=[N:7]1)[H:8]"
O        1.87946465      -0.37955175      -0.22911503
C        0.57626763      -0.14539968       0.04714118
C        0.24000342       1.25908732       0.06531196
N       -1.03898035       1.52322889       0.02130751
N       -1.98849473       0.79537956      -0.10899013
C       -0.96516800      -0.95091343      -0.16796243
N       -0.09126716      -1.14506855       0.76110704
H        2.08598740      -1.28317744       0.03312567
H        0.95987137       2.05950894       0.05670875
H       -1.65768423      -1.73309387      -0.47863452
10
Frame=11 idx=007939 GeodesicLength=0.29537766068767335 rxn_smarts="[O:1]([c:2]1[c:3]([H:9])[n:4][n:5][c:6]([H:10])[n:7]1)[H:8]>>[O:1]([C@@:2]1([C:3](=[N+:4]=[N-:5])[H:9])[C:6]([H:10])=[N:7]1)[H:8]"
O        1.88738479      -0.37606147      -0.22340486
C        0.57990053      -0.14828025       0.04175402
C        0.23901212       1.25533912       0.06457122
N       -1.03846535       1.52422508       0.00965354
N       -1.99222654       0.79461569      -0.11848540
C       -0.97212236      -0.94667762      -0.16109456
N       -0.08710489      -1.14549021       0.75820265
H        2.09110999      -1.28485596       0.02235961
H        0.95653391       2.05827214       0.07331564
H       -1.66402222      -1.73108651      -0.46687185
10
Frame=12 idx=007939 GeodesicLength=0.3221930289163329 rxn_smarts="[O:1]([c:2]1[c:3]([H:9])[n:4][n:5][c:6]([H:10])[n:7]1)[H:8]>>[O:1]([C@@:2]1([C:3](=[N+:4]=[N-:5])[H:9])[C:6]([H:10])=[N:7]1)[H:8]"
O        1.89530641      -0.37256505      -0.21742183
C        0.58353357      -0.15122390       0.03611922
C        0.23804019       1.25152933       0.06357576
N       -1.03780517       1.52520186      -0.00248010
N       -1.99591068       0.79387545      -0.12817406
C       -0.97909241      -0.94238106      -0.15394839
N       -0.08288990      -1.14588122       0.75524066
H        2.09630373      -1.28636174       0.01115298
H        0.95295708       2.05677358       0.09065610
H       -1.67044282      -1.72896724      -0.45472034
10
Frame=13 idx=007939 GeodesicLength=0.34900587787777654 rxn_smarts="[O:1]([c:2]1[c:3]([H:9])[n:4][n:5][c:6]([H:10])[n:7]1)[H:8]>>[O:1]([C@@:2]1([C:3](=[N+:4]=[N-:5])[H:9])[C:6]([H:10])=[N:7]1)[H:8]"
O        1.90317240      -0.36911315      -0.21114320
C        0.58715394      -0.15425155       0.03040629
C        0.23708502       1.24763746       0.06270710
N       -1.03701423       1.52614473      -0.01448286
N       -1.99955328       0.79318848      -0.13778957
C       -0.98608189      -0.93798372      -0.14667016
N       -0.07870690      -1.14642864       0.75209401
H        2.10166808      -1.28757661      -0.00003840
H        0.94915657       2.05501047       0.10759268
H       -1.67687970      -1.72662746      -0.44267589
10
Frame=14 idx=007939 GeodesicLength=0.37578750097471786 rxn_smarts="[O:1]([c:2]1[c:3]([H:9])[n:4][n:5][c:6]([H:10])[n:7]1)[H:8]>>[O:1]([C@@:2]1([C:3](=[N+:4]=[N-:5])[H:9])[C:6]([H:10])=[N:7]1)[H:8]"
O        1.91091836      -0.36574961      -0.20463703
C        0.59074482      -0.15737418       0.02472081
C        0.23613221       1.24364048       0.06220443
N       -1.03611486       1.52704191      -0.02594737
N       -2.00316259       0.79256772      -0.14714975
C       -0.99309431      -0.93346365      -0.13934815
N       -0.07461612      -1.14724535       0.74867824
H        2.10727130      -1.28841275      -0.01085191
H        0.94519487       2.05300201       0.12340548
H       -1.68327368      -1.72400658      -0.43107475
10
Frame=15 idx=007939 GeodesicLength=0.40255553742146777 rxn_smarts="[O:1]([c:2]1[c:3]([H:9])[n:4][n:5][c:6]([H:10])[n:7]1)[H:8]>>[O:1]([C@@:2]1([C:3](=[N+:4]=[N-:5])[H:9])[C:6]([H:10])=[N:7]1)[H:8]"
O        1.91853640      -0.36247314      -0.19798806
C        0.59430791      -0.16058442       0.01900390
C        0.23518058       1.23954704       0.06190990
N       -1.03510899       1.52790171      -0.03705553
N       -2.00674247       0.79200029      -0.15634151
C       -1.00013298      -0.92883660      -0.13192325
N       -0.07059168      -1.14827818       0.74502775
H        2.11310294      -1.28888602      -0.02136594
H        0.94109981       2.05075777       0.13849538
H       -1.68965152      -1.72114845      -0.41976264
10
Frame=16 idx=007939 GeodesicLength=0.4293145746117818 rxn_smarts="[O:1]([c:2]1[c:3]([H:9])[n:4][n:5][c:6]([H:10])[n:7]1)[H:8]>>[O:1]([C@@:2]1([C:3](=[N+:4]=[N-:5])[H:9])[C:6]([H:10])=[N:7]1)[H:8]"
O        1.92601526      -0.35928681      -0.19128561
C        0.59784299      -0.16388091       0.01320576
C        0.23423001       1.23535907       0.06171757
N       -1.03399639       1.52872929      -0.04793035
N       -2.01028858       0.79148070      -0.16545510
C       -1.00719888      -0.92411092      -0.12434524
N       -0.06661199      -1.14948970       0.74116302
H        2.11916262      -1.28900676      -0.03162200
H        0.93687841       2.04828466       0.15316551
H       -1.69603345      -1.71807862      -0.40861355
