18
Frame=0 idx=006298 GeodesicLength=0.0 rxn_smarts="[C:1]([C:2]([C@@:3]([C:4]([H:13])([H:14])[H:15])([O:5][C:6]([H:16])([H:17])[H:18])[H:12])([H:10])[H:11])([H:7])([H:8])[H:9]>>[C:1]([C:2]([C:3]([C:4]([H:13])([H:14])[H:15])=[O+:5][C-:6]([H:16])[H:18])([H:10])[H:11])([H:7])([H:8])[H:9].[H:12][H:17]"
C       -1.13863247      -1.97118035       0.46276538
C       -1.37457023      -0.48595005       0.23054376
C       -0.12970962       0.30143178      -0.05090702
C       -0.23226919       1.73822295      -0.44576956
O        0.92043290      -0.08361915       0.62433504
C        2.12970941       0.41803074       0.41170918
H       -0.64271749      -2.42113632      -0.39908246
H       -0.50936867      -2.14295507       1.33594142
H       -2.08633177      -2.48771816       0.62114801
H       -1.89159573      -0.04895969       1.09722204
H       -2.04881693      -0.34151065      -0.61735017
H        0.94556912      -0.16766791      -1.53738225
H       -1.19076008       1.92707733      -0.92702531
H        0.56292893       2.04262584      -1.12735700
H       -0.16352451       2.37784695       0.44620020
H        2.89194001      -0.09280516       0.98174915
H        1.73855424      -0.04468597      -1.34507041
H        2.21916214       1.48295285       0.23832996
18
Frame=1 idx=006298 GeodesicLength=0.06959312617302389 rxn_smarts="[C:1]([C:2]([C@@:3]([C:4]([H:13])([H:14])[H:15])([O:5][C:6]([H:16])([H:17])[H:18])[H:12])([H:10])[H:11])([H:7])([H:8])[H:9]>>[C:1]([C:2]([C:3]([C:4]([H:13])([H:14])[H:15])=[O+:5][C-:6]([H:16])[H:18])([H:10])[H:11])([H:7])([H:8])[H:9].[H:12][H:17]"
C       -1.13513509      -1.96964685       0.46215798
C       -1.37391507      -0.48551844       0.22579567
C       -0.12955715       0.30268574      -0.05815665
C       -0.23662135       1.74228889      -0.44298180
O        0.91710217      -0.07245193       0.63406891
C        2.13288945       0.41177749       0.40046845
H       -0.63589062      -2.42125524      -0.39694677
H       -0.50768861      -2.13761265       1.33739783
H       -2.08191213      -2.48816628       0.61958631
H       -1.89169329      -0.04774260       1.09139479
H       -2.04802982      -0.34433346      -0.62289416
H        0.93241674      -0.17357921      -1.52792958
H       -1.19232469       1.93194311      -0.92953016
H        0.56177715       2.05249555      -1.11864951
H       -0.17333420       2.37721248       0.45244154
H        2.89240747      -0.09827452       0.97508524
H        1.74287440      -0.05767431      -1.33463186
H        2.22663464       1.47785223       0.23332379
18
Frame=2 idx=006298 GeodesicLength=0.13901489374070375 rxn_smarts="[C:1]([C:2]([C@@:3]([C:4]([H:13])([H:14])[H:15])([O:5][C:6]([H:16])([H:17])[H:18])[H:12])([H:10])[H:11])([H:7])([H:8])[H:9]>>[C:1]([C:2]([C:3]([C:4]([H:13])([H:14])[H:15])=[O+:5][C-:6]([H:16])[H:18])([H:10])[H:11])([H:7])([H:8])[H:9].[H:12][H:17]"
C       -1.13155886      -1.96806849       0.46157869
C       -1.37321136      -0.48505046       0.22115958
C       -0.12939687       0.30400945      -0.06538359
C       -0.24102208       1.74631954      -0.44028183
O        0.91383383      -0.06130020       0.64322664
C        2.13576412       0.40542902       0.38961406
H       -0.62918167      -2.42129012      -0.39489564
H       -0.50574890      -2.13224786       1.33872531
H       -2.07737665      -2.48856746       0.61824939
H       -1.89162893      -0.04652586       1.08576473
H       -2.04730160      -0.34709926      -0.62822472
H        0.91919249      -0.17934654      -1.51882078
H       -1.19383646       1.93674946      -0.93225333
H        0.56067265       2.06241612      -1.10975607
H       -0.18337730       2.37654065       0.45854089
H        2.89251355      -0.10392691       0.96875756
H        1.74753426      -0.07055060      -1.32426627
H        2.23412979       1.47250952       0.22826541
18
Frame=3 idx=006298 GeodesicLength=0.20834958405686765 rxn_smarts="[C:1]([C:2]([C@@:3]([C:4]([H:13])([H:14])[H:15])([O:5][C:6]([H:16])([H:17])[H:18])[H:12])([H:10])[H:11])([H:7])([H:8])[H:9]>>[C:1]([C:2]([C:3]([C:4]([H:13])([H:14])[H:15])=[O+:5][C-:6]([H:16])[H:18])([H:10])[H:11])([H:7])([H:8])[H:9].[H:12][H:17]"
C       -1.12791998      -1.96644996       0.46102358
C       -1.37246093      -0.48454738       0.21663512
C       -0.12922697       0.30539355      -0.07259484
C       -0.24546619       1.75030898      -0.43766780
O        0.91063858      -0.05019490       0.65181621
C        2.13836298       0.39900726       0.37912903
H       -0.62260720      -2.42125026      -0.39293351
H       -0.50356976      -2.12687285       1.33992296
H       -2.07274763      -2.48891680       0.61712834
H       -1.89139876      -0.04530772       1.08033357
H       -2.04663774      -0.34980301      -0.63333864
H        0.90586464      -0.18499052      -1.51006301
H       -1.19529111       1.94150145      -0.93518113
H        0.55960910       2.07237361      -1.10068118
H       -0.19363888       2.37581798       0.46450188
H        2.89228880      -0.10971319       0.96277070
H        1.75257122      -0.08331409      -1.31396993
H        2.24162982       1.46695785       0.22316865
18
Frame=4 idx=006298 GeodesicLength=0.2776570685276881 rxn_smarts="[C:1]([C:2]([C@@:3]([C:4]([H:13])([H:14])[H:15])([O:5][C:6]([H:16])([H:17])[H:18])[H:12])([H:10])[H:11])([H:7])([H:8])[H:9]>>[C:1]([C:2]([C:3]([C:4]([H:13])([H:14])[H:15])=[O+:5][C-:6]([H:16])[H:18])([H:10])[H:11])([H:7])([H:8])[H:9].[H:12][H:17]"
C       -1.12423432      -1.96479586       0.46048883
C       -1.37166593      -0.48401051       0.21222170
C       -0.12904605       0.30682877      -0.07979722
C       -0.24994854       1.75425137      -0.43513767
O        0.90752565      -0.03916450       0.65984727
C        2.14071294       0.39253364       0.36899787
H       -0.61618326      -2.42114467      -0.39106471
H       -0.50117098      -2.12149916       1.34099018
H       -2.06804709      -2.48920986       0.61621463
H       -1.89099972      -0.04408652       1.07510266
H       -2.04604399      -0.35243998      -0.63823314
H        0.89240323      -0.19052997      -1.50166372
H       -1.19668489       1.94620434      -0.93829934
H        0.55858031       2.08235351      -1.09142990
H       -0.20410299       2.37503121       0.47032812
H        2.89176423      -0.11558489       0.95712611
H        1.75802380      -0.09596568      -1.30373793
H        2.24911759       1.46122876       0.21804627
18
Frame=5 idx=006298 GeodesicLength=0.3470033546600452 rxn_smarts="[C:1]([C:2]([C@@:3]([C:4]([H:13])([H:14])[H:15])([O:5][C:6]([H:16])([H:17])[H:18])[H:12])([H:10])[H:11])([H:7])([H:8])[H:9]>>[C:1]([C:2]([C:3]([C:4]([H:13])([H:14])[H:15])=[O+:5][C-:6]([H:16])[H:18])([H:10])[H:11])([H:7])([H:8])[H:9].[H:12][H:17]"
C       -1.12051835      -1.96311107       0.45997054
C       -1.37082894      -0.48344109       0.20791911
C       -0.12885270       0.30830519      -0.08699833
C       -0.25446398       1.75814022      -0.43268984
O        0.90450306      -0.02823665       0.66732938
C        2.14284198       0.38603115       0.35920562
H       -0.60992733      -2.42098292      -0.38929417
H       -0.49857166      -2.11613907       1.34192542
H       -2.06329712      -2.48944227       0.61550026
H       -1.89042862      -0.04286033       1.07007419
H       -2.04552742      -0.35500503      -0.64290432
H        0.87877411      -0.19598391      -1.49363145
H       -1.19801467       1.95086324      -0.94159278
H        0.55757945       2.09234061      -1.08200967
H       -0.21475145       2.37416686       0.47602237
H        2.89097006      -0.12149348       0.95182709
H        1.76393680      -0.10850590      -1.29356636
H        2.25657677       1.45535444       0.21291291
18
Frame=6 idx=006298 GeodesicLength=0.4164142944796906 rxn_smarts="[C:1]([C:2]([C@@:3]([C:4]([H:13])([H:14])[H:15])([O:5][C:6]([H:16])([H:17])[H:18])[H:12])([H:10])[H:11])([H:7])([H:8])[H:9]>>[C:1]([C:2]([C:3]([C:4]([H:13])([H:14])[H:15])=[O+:5][C-:6]([H:16])[H:18])([H:10])[H:11])([H:7])([H:8])[H:9].[H:12][H:17]"
C       -1.11678646      -1.96140009       0.45946486
C       -1.36995272      -0.48284014       0.20372654
C       -0.12864606       0.30981394      -0.09420570
C       -0.25900772       1.76197008      -0.43032271
O        0.90157690      -0.01743484       0.67427482
C        2.14477379       0.37952026       0.34973797
H       -0.60385434      -2.42077366      -0.38762633
H       -0.49578913      -2.11080355       1.34272759
H       -2.05851781      -2.48961035       0.61497730
H       -1.88968314      -0.04162740       1.06524937
H       -2.04509474      -0.35749347      -0.64734953
H        0.86494741      -0.20136747      -1.48597325
H       -1.19927827       1.95548395      -0.94504598
H        0.55659916       2.10232097      -1.07242764
H       -0.22556601       2.37321274       0.48158725
H        2.88993490      -0.12739414       0.94687216
H        1.77035190      -0.12094170      -1.28344843
H        2.26399234       1.44936490       0.20778170
18
Frame=7 idx=006298 GeodesicLength=0.4859181705846421 rxn_smarts="[C:1]([C:2]([C@@:3]([C:4]([H:13])([H:14])[H:15])([O:5][C:6]([H:16])([H:17])[H:18])[H:12])([H:10])[H:11])([H:7])([H:8])[H:9]>>[C:1]([C:2]([C:3]([C:4]([H:13])([H:14])[H:15])=[O+:5][C-:6]([H:16])[H:18])([H:10])[H:11])([H:7])([H:8])[H:9].[H:12][H:17]"
C       -1.11305436      -1.95966748       0.45896755
C       -1.36903973      -0.48220868       0.19964383
C       -0.12842520       0.31134547      -0.10142755
C       -0.26357449       1.76573479      -0.42803487
O        0.89875380      -0.00678374       0.68069148
C        2.14653150       0.37302252       0.34058226
H       -0.59798260      -2.42052539      -0.38606678
H       -0.49284051      -2.10550432       1.34339318
H       -2.05372955      -2.48971022       0.61463959
H       -1.88875899      -0.04038616       1.06063037
H       -2.04475322      -0.35989979      -0.65156387
H        0.85089021      -0.20669561      -1.47869955
H       -1.20047402       1.96007213      -0.94864223
H        0.55563167       2.11227867      -1.06269364
H       -0.23652648       2.37215587       0.48702519
H        2.88868770      -0.13323844       0.94226467
H        1.77731610      -0.13327952      -1.27337569
H        2.27134818       1.44328989       0.20266606
18
Frame=8 idx=006298 GeodesicLength=0.5555143969033081 rxn_smarts="[C:1]([C:2]([C@@:3]([C:4]([H:13])([H:14])[H:15])([O:5][C:6]([H:16])([H:17])[H:18])[H:12])([H:10])[H:11])([H:7])([H:8])[H:9]>>[C:1]([C:2]([C:3]([C:4]([H:13])([H:14])[H:15])=[O+:5][C-:6]([H:16])[H:18])([H:10])[H:11])([H:7])([H:8])[H:9].[H:12][H:17]"
C       -1.10933640      -1.95791774       0.45847410
C       -1.36809331      -0.48154753       0.19567074
C       -0.12818992       0.31289123      -0.10867057
C       -0.26816008       1.76942866      -0.42582481
O        0.89603779       0.00369580       0.68659130
C        2.14813665       0.36655860       0.33172620
H       -0.59232824      -2.42024593      -0.38462187
H       -0.48974122      -2.10025292       1.34391893
H       -2.04895191      -2.48973889       0.61447950
H       -1.88765395      -0.03913531       1.05621946
H       -2.04451099      -0.36221868      -0.65554351
H        0.83657334      -0.21198102      -1.47181783
H       -1.20160218       1.96463333      -0.95236394
H        0.55466854       2.12219852      -1.05281828
H       -0.24761067       2.37098549       0.49233838
H        2.88725539      -0.13898092       0.93800497
H        1.78487590      -0.14553151      -1.26333874
H        2.27863124       1.43715881       0.19757597
18
Frame=9 idx=006298 GeodesicLength=0.6252261847933709 rxn_smarts="[C:1]([C:2]([C@@:3]([C:4]([H:13])([H:14])[H:15])([O:5][C:6]([H:16])([H:17])[H:18])[H:12])([H:10])[H:11])([H:7])([H:8])[H:9]>>[C:1]([C:2]([C:3]([C:4]([H:13])([H:14])[H:15])=[O+:5][C-:6]([H:16])[H:18])([H:10])[H:11])([H:7])([H:8])[H:9].[H:12][H:17]"
C       -1.10564711      -1.95615581       0.45797963
C       -1.36711737      -0.48085735       0.19180759
C       -0.12793997       0.31444196      -0.11594270
C       -0.27275990       1.77304584      -0.42369147
O        0.89343070       0.01398420       0.69198819
C        2.14961161       0.36014938       0.32315710
H       -0.58690855      -2.41994356      -0.38329920
H       -0.48650528      -2.09506232       1.34430043
H       -2.04420417      -2.48969329       0.61448992
H       -1.88636592      -0.03787333       1.05202055
H       -2.04437821      -0.36444393      -0.65928318
H        0.82196139      -0.21723444      -1.46533775
H       -1.20266426       1.96917300      -0.95619222
H        0.55370110       2.13206502      -1.04281588
H       -0.25879469       2.36969142       0.49752758
H        2.88566441      -0.14457521       0.93409348
H        1.79308815      -0.15771215      -1.25332610
H        2.28582809       1.43100057       0.19252402
18
Frame=10 idx=006298 GeodesicLength=0.6950528556777257 rxn_smarts="[C:1]([C:2]([C@@:3]([C:4]([H:13])([H:14])[H:15])([O:5][C:6]([H:16])([H:17])[H:18])[H:12])([H:10])[H:11])([H:7])([H:8])[H:9]>>[C:1]([C:2]([C:3]([C:4]([H:13])([H:14])[H:15])=[O+:5][C-:6]([H:16])[H:18])([H:10])[H:11])([H:7])([H:8])[H:9].[H:12][H:17]"
C       -1.10200174      -1.95438665       0.45747784
C       -1.36611524      -0.48013863       0.18805570
C       -0.12767523       0.31598848      -0.12325178
C       -0.27736896       1.77658009      -0.42163405
O        0.89093623       0.02406014       0.69688884
C        2.15097641       0.35381717       0.31486685
H       -0.58174421      -2.41962571      -0.38210929
H       -0.48314595      -2.08994650       1.34453011
H       -2.03950620      -2.48957036       0.61466476
H       -1.88488931      -0.03659937       1.04803929
H       -2.04436567      -0.36656793      -0.66277454
H        0.80701930      -0.22246530      -1.45927221
H       -1.20366211       1.97369673      -0.96010757
H        0.55271987       2.14186061      -1.03270194
H       -0.27005334       2.36826290       0.50259411
H        2.88394143      -0.14996959       0.93053783
H        1.80200934      -0.16984079      -1.24332180
H        2.29292538       1.42484471       0.18751784
18
Frame=11 idx=006298 GeodesicLength=0.7649713290166539 rxn_smarts="[C:1]([C:2]([C@@:3]([C:4]([H:13])([H:14])[H:15])([O:5][C:6]([H:16])([H:17])[H:18])[H:12])([H:10])[H:11])([H:7])([H:8])[H:9]>>[C:1]([C:2]([C:3]([C:4]([H:13])([H:14])[H:15])=[O+:5][C-:6]([H:16])[H:18])([H:10])[H:11])([H:7])([H:8])[H:9].[H:12][H:17]"
C       -1.09841412      -1.95261516       0.45696263
C       -1.36508986      -0.47939202       0.18441535
C       -0.12739547       0.31752187      -0.13060584
C       -0.28198306       1.78002550      -0.41965118
O        0.88855633       0.03390517       0.70130277
C        2.15224962       0.34758329       0.30684685
H       -0.57685394      -2.41929936      -0.38106115
H       -0.47967543      -2.08491848       1.34460109
H       -2.03487644      -2.48936760       0.61499780
H       -1.88321974      -0.03531286       1.04427945
H       -2.04448279      -0.36858398      -0.66601109
H        0.79171289      -0.22767949      -1.45363420
H       -1.20459867       1.97821061      -0.96408904
H        0.55171598       2.15157012      -1.02249148
H       -0.28136015       2.36669037       0.50753949
H        2.88211088      -0.15511520       0.92734337
H        1.81169324      -0.18194323      -1.23330796
H        2.29991074       1.41872046       0.18256316
18
Frame=12 idx=006298 GeodesicLength=0.8349337332870164 rxn_smarts="[C:1]([C:2]([C@@:3]([C:4]([H:13])([H:14])[H:15])([O:5][C:6]([H:16])([H:17])[H:18])[H:12])([H:10])[H:11])([H:7])([H:8])[H:9]>>[C:1]([C:2]([C:3]([C:4]([H:13])([H:14])[H:15])=[O+:5][C-:6]([H:16])[H:18])([H:10])[H:11])([H:7])([H:8])[H:9].[H:12][H:17]"
C       -1.09489665      -1.95084592       0.45642667
C       -1.36404492      -0.47861757       0.18088731
C       -0.12710144       0.31903497      -0.13801083
C       -0.28659855       1.78337758      -0.41774085
O        0.88629091       0.04350406       0.70524196
C        2.15345037       0.34146756       0.29908724
H       -0.57225450      -2.41897015      -0.38016642
H       -0.47610419      -2.07999168       1.34450480
H       -2.03033088      -2.48908333       0.61548072
H       -1.88135404      -0.03401363       1.04074580
H       -2.04473994      -0.37048445      -0.66898618
H        0.77601227      -0.23287976      -1.44843377
H       -1.20547900       1.98272079      -0.96811469
H        0.55067926       2.16117846      -1.01220287
H       -0.29268843       2.36496685       0.51236613
H        2.88019582      -0.15996261       0.92451664
H        1.82219024      -0.19405555      -1.22326203
H        2.30677369       1.41265439       0.17766037
18
Frame=13 idx=006298 GeodesicLength=0.9049032933001904 rxn_smarts="[C:1]([C:2]([C@@:3]([C:4]([H:13])([H:14])[H:15])([O:5][C:6]([H:16])([H:17])[H:18])[H:12])([H:10])[H:11])([H:7])([H:8])[H:9]>>[C:1]([C:2]([C:3]([C:4]([H:13])([H:14])[H:15])=[O+:5][C-:6]([H:16])[H:18])([H:10])[H:11])([H:7])([H:8])[H:9].[H:12][H:17]"
C       -1.09146285      -1.94908363       0.45586227
C       -1.36298403      -0.47781535       0.17747277
C       -0.12679360       0.32051984      -0.14547378
C       -0.29121117       1.78663110      -0.41590127
O        0.88413994       0.05284084       0.70871610
C        2.15459624       0.33549003       0.29158015
H       -0.56796535      -2.41864360      -0.37943793
H       -0.47244213      -2.07518018       1.34423094
H       -2.02588632      -2.48871567       0.61610673
H       -1.87928765      -0.03270176       1.03744384
H       -2.04514789      -0.37226109      -0.67169146
H        0.75988410      -0.23806743      -1.44368450
H       -1.20630863       1.98723325      -0.97216147
H        0.54959926       2.17066953      -1.00185439
H       -0.30401038       2.36308511       0.51707619
H        2.87821944      -0.16445855       0.92206625
H        1.83355833      -0.20621512      -1.21315800
H        2.31350268       1.40667270       0.17280755
18
Frame=14 idx=006298 GeodesicLength=0.9748268434378825 rxn_smarts="[C:1]([C:2]([C@@:3]([C:4]([H:13])([H:14])[H:15])([O:5][C:6]([H:16])([H:17])[H:18])[H:12])([H:10])[H:11])([H:7])([H:8])[H:9]>>[C:1]([C:2]([C:3]([C:4]([H:13])([H:14])[H:15])=[O+:5][C-:6]([H:16])[H:18])([H:10])[H:11])([H:7])([H:8])[H:9].[H:12][H:17]"
C       -1.08812463      -1.94733326       0.45525987
C       -1.36191143      -0.47698503       0.17417373
C       -0.12647319       0.32196957      -0.15300098
C       -0.29581769       1.78978168      -0.41413063
O        0.88210192       0.06190197       0.71173530
C        2.15570371       0.32966901       0.28431795
H       -0.56400587      -2.41832406      -0.37889208
H       -0.46869580      -2.07049955       1.34376680
H       -2.02155864      -2.48826349       0.61686750
H       -1.87701596      -0.03137807       1.03438155
H       -2.04571975      -0.37390452      -0.67411707
H        0.74329736      -0.24324025      -1.43939934
H       -1.20709591       1.99175359      -0.97620589
H        0.54846614       2.18002794      -0.99146757
H       -0.31529605       2.36104020       0.52167171
H        2.87620425      -0.16854695       0.92000398
H        1.84585275      -0.21847055      -1.20296376
H        2.32008878       1.40080176       0.16799893
18
Frame=15 idx=006298 GeodesicLength=1.0446392744155801 rxn_smarts="[C:1]([C:2]([C@@:3]([C:4]([H:13])([H:14])[H:15])([O:5][C:6]([H:16])([H:17])[H:18])[H:12])([H:10])[H:11])([H:7])([H:8])[H:9]>>[C:1]([C:2]([C:3]([C:4]([H:13])([H:14])[H:15])=[O+:5][C-:6]([H:16])[H:18])([H:10])[H:11])([H:7])([H:8])[H:9].[H:12][H:17]"
C       -1.08489324      -1.94559956       0.45460914
C       -1.36083062      -0.47612611       0.17099189
C       -0.12614142       0.32337775      -0.16059841
C       -0.30041508       1.79282547      -0.41242654
O        0.88017491       0.07067513       0.71430978
C        2.15678915       0.32402241       0.27729257
H       -0.56039507      -2.41801522      -0.37854668
H       -0.46487101      -2.06596538       1.34309787
H       -2.01736170      -2.48772591       0.61775449
H       -1.87453341      -0.03004370       1.03156628
H       -2.04646744      -0.37540485      -0.67625314
H        0.72622272      -0.24839383      -1.43559071
H       -1.20785000       1.99628808      -0.98022272
H        0.54726927       2.18923940      -0.98106530
H       -0.32651532       2.35882824       0.52615598
H        2.87417047      -0.17217009       0.91834351
H        1.85912490      -0.23087789      -1.19264107
H        2.32652288       1.39506605       0.16322305
18
Frame=16 idx=006298 GeodesicLength=1.1142702791032304 rxn_smarts="[C:1]([C:2]([C@@:3]([C:4]([H:13])([H:14])[H:15])([O:5][C:6]([H:16])([H:17])[H:18])[H:12])([H:10])[H:11])([H:7])([H:8])[H:9]>>[C:1]([C:2]([C:3]([C:4]([H:13])([H:14])[H:15])=[O+:5][C-:6]([H:16])[H:18])([H:10])[H:11])([H:7])([H:8])[H:9].[H:12][H:17]"
C       -1.08177904      -1.94388724       0.45389822
C       -1.35974533      -0.47523784       0.16792935
C       -0.12579991       0.32473876      -0.16827157
C       -0.30500057       1.79575914      -0.41078626
O        0.87835626       0.07914982       0.71644945
C        2.15786738       0.31856616       0.27049701
H       -0.55715176      -2.41771921      -0.37842162
H       -0.46097118      -2.06159390       1.34220756
H       -2.01330823      -2.48710267       0.61875833
H       -1.87183425      -0.02870063       1.02900650
H       -2.04740366      -0.37675142      -0.67808893
H        0.70863194      -0.25352013      -1.43227190
H       -1.20858156       2.00084300      -0.98418604
H        0.54599862       2.19828974      -0.97067114
H       -0.33763780       2.35644703       0.53053254
H        2.87213842      -0.17526653       0.91710062
H        1.87342429      -0.24350207      -1.18214447
H        2.33279640       1.38948799       0.15846236
