10
Frame=0 idx=001086 GeodesicLength=0.0 rxn_smarts="[N:1]([C:2](=[O:3])[N:4]([C:5](=[O:6])[H:10])[H:9])([H:7])[H:8]>>[N:1]([C:2](=[O:3])[O:6]/[C:5](=[N:4]/[H:9])[H:10])([H:7])[H:8]"
N        1.41087082      -0.63812631      -0.46498906
C        0.50705770      -0.51015474       0.54163655
O        0.60314447      -0.81173753       1.67573049
N       -0.51088575       1.02145595       0.21211370
C       -1.43848682       0.22653433      -0.19547260
O       -1.06632852      -0.98321146      -0.22857639
H        2.36650745      -0.68578173      -0.15539111
H        1.23626237      -0.12752866      -1.31084578
H       -0.65925765       1.99759491       0.41971927
H       -2.44888406       0.51095525      -0.49392507
10
Frame=1 idx=001086 GeodesicLength=0.05646596893294635 rxn_smarts="[N:1]([C:2](=[O:3])[N:4]([C:5](=[O:6])[H:10])[H:9])([H:7])[H:8]>>[N:1]([C:2](=[O:3])[O:6]/[C:5](=[N:4]/[H:9])[H:10])([H:7])[H:8]"
N        1.42525402      -0.62200391      -0.45435756
C        0.49947905      -0.52848450       0.53571838
O        0.58486886      -0.85452597       1.66553502
N       -0.50405545       1.01400630       0.19585752
C       -1.44705936       0.22740768      -0.19737496
O       -1.08357710      -0.98387361      -0.26326412
H        2.37466816      -0.68142386      -0.12837371
H        1.26528714      -0.08374449      -1.28630130
H       -0.63023963       2.00687170       0.32169758
H       -2.48462568       0.50577065      -0.38913685
10
Frame=2 idx=001086 GeodesicLength=0.11314563172261805 rxn_smarts="[N:1]([C:2](=[O:3])[N:4]([C:5](=[O:6])[H:10])[H:9])([H:7])[H:8]>>[N:1]([C:2](=[O:3])[O:6]/[C:5](=[N:4]/[H:9])[H:10])([H:7])[H:8]"
N        1.43863004      -0.60544296      -0.44293714
C        0.49086984      -0.54611993       0.52858770
O        0.56533467      -0.89696592       1.65342962
N       -0.49852387       1.00754464       0.17943922
C       -1.45669532       0.22944810      -0.19993583
O       -1.10226894      -0.98261846      -0.29895716
H        2.38154308      -0.67466256      -0.10053179
H        1.29292500      -0.04059993      -1.26024709
H       -0.60066118       2.01015964       0.22142700
H       -2.51115331       0.49925738      -0.28027455
10
Frame=3 idx=001086 GeodesicLength=0.16953775502337937 rxn_smarts="[N:1]([C:2](=[O:3])[N:4]([C:5](=[O:6])[H:10])[H:9])([H:7])[H:8]>>[N:1]([C:2](=[O:3])[O:6]/[C:5](=[N:4]/[H:9])[H:10])([H:7])[H:8]"
N        1.45117190      -0.58911994      -0.43092490
C        0.48169096      -0.56128078       0.52011077
O        0.54457738      -0.93539953       1.63985913
N       -0.49279000       1.00353082       0.15900368
C       -1.46659121       0.23378344      -0.20420676
O       -1.12175074      -0.97845288      -0.33522511
H        2.38706872      -0.66985575      -0.07252470
H        1.31968215      -0.00043043      -1.23414814
H       -0.57580020       2.00827549       0.12721866
H       -2.52725897       0.48894958      -0.16916262
10
Frame=4 idx=001086 GeodesicLength=0.22578132211977095 rxn_smarts="[N:1]([C:2](=[O:3])[N:4]([C:5](=[O:6])[H:10])[H:9])([H:7])[H:8]>>[N:1]([C:2](=[O:3])[O:6]/[C:5](=[N:4]/[H:9])[H:10])([H:7])[H:8]"
N        1.46142822      -0.57232688      -0.41954649
C        0.47315122      -0.57604679       0.51207221
O        0.52789805      -0.97335799       1.62598116
N       -0.48858859       0.99938459       0.14267253
C       -1.47776252       0.23755488      -0.20251281
O       -1.14362911      -0.97418621      -0.36513795
H        2.39105280      -0.66298695      -0.04778640
H        1.34171900       0.03982145      -1.20735438
H       -0.55134944       2.00037970       0.03559357
H       -2.53391963       0.48176419      -0.07398144
10
Frame=5 idx=001086 GeodesicLength=0.28261660740687694 rxn_smarts="[N:1]([C:2](=[O:3])[N:4]([C:5](=[O:6])[H:10])[H:9])([H:7])[H:8]>>[N:1]([C:2](=[O:3])[O:6]/[C:5](=[N:4]/[H:9])[H:10])([H:7])[H:8]"
N        1.47105688      -0.55590650      -0.40795603
C        0.46465834      -0.58974829       0.50324238
O        0.51181376      -1.00920137       1.61116328
N       -0.48455895       0.99623816       0.12453775
C       -1.48938602       0.24218754      -0.20034824
O       -1.16704694      -0.96875587      -0.39350657
H        2.39441501      -0.65587138      -0.02336028
H        1.36255080       0.07817969      -1.18036359
H       -0.52981586       1.98854298      -0.05150012
H       -2.53368701       0.47433504       0.01809142
10
Frame=6 idx=001086 GeodesicLength=0.33978465219213677 rxn_smarts="[N:1]([C:2](=[O:3])[N:4]([C:5](=[O:6])[H:10])[H:9])([H:7])[H:8]>>[N:1]([C:2](=[O:3])[O:6]/[C:5](=[N:4]/[H:9])[H:10])([H:7])[H:8]"
N        1.48022505      -0.53955865      -0.39574087
C        0.45599870      -0.60203455       0.49354376
O        0.49524019      -1.04288174       1.59528708
N       -0.48034834       0.99429195       0.10372266
C       -1.50107935       0.24817266      -0.19836275
O       -1.19139993      -0.96141325      -0.42176176
H        2.39698643      -0.65014036       0.00128221
H        1.38283525       0.11470448      -1.15311213
H       -0.51232026       1.97409899      -0.13485419
H       -2.52613773       0.46476047       0.10999600
10
Frame=7 idx=001086 GeodesicLength=0.39669357126609095 rxn_smarts="[N:1]([C:2](=[O:3])[N:4]([C:5](=[O:6])[H:10])[H:9])([H:7])[H:8]>>[N:1]([C:2](=[O:3])[O:6]/[C:5](=[N:4]/[H:9])[H:10])([H:7])[H:8]"
N        1.48850302      -0.52319468      -0.38384021
C        0.44816020      -0.61407528       0.48379396
O        0.48154195      -1.07587957       1.57899751
N       -0.47657488       0.99226611       0.08447653
C       -1.51271452       0.25413991      -0.19368915
O       -1.21770713      -0.95408682      -0.44530086
H        2.39914492      -0.64346264       0.02405937
H        1.40072181       0.15043307      -1.12569476
H       -0.49658159       1.95601485      -0.21398745
H       -2.51449376       0.45784504       0.19118506
10
Frame=8 idx=001086 GeodesicLength=0.45384545931552944 rxn_smarts="[N:1]([C:2](=[O:3])[N:4]([C:5](=[O:6])[H:10])[H:9])([H:7])[H:8]>>[N:1]([C:2](=[O:3])[O:6]/[C:5](=[N:4]/[H:9])[H:10])([H:7])[H:8]"
N        1.49638574      -0.50686951      -0.37168500
C        0.44058960      -0.62577751       0.47339934
O        0.46872254      -1.10827509       1.56173793
N       -0.47291619       0.99045031       0.06473725
C       -1.52429853       0.26067563      -0.18809175
O       -1.24562100      -0.94602832      -0.46678161
H        2.40094365      -0.63603789       0.04670111
H        1.41754193       0.18512320      -1.09794019
H       -0.48291575       1.93513789      -0.29044568
H       -2.49843199       0.45160129       0.26836860
10
Frame=9 idx=001086 GeodesicLength=0.5115743473107718 rxn_smarts="[N:1]([C:2](=[O:3])[N:4]([C:5](=[O:6])[H:10])[H:9])([H:7])[H:8]>>[N:1]([C:2](=[O:3])[O:6]/[C:5](=[N:4]/[H:9])[H:10])([H:7])[H:8]"
N        1.50401093      -0.49052073      -0.35894531
C        0.43293365      -0.63716548       0.46201349
O        0.45571250      -1.14025580       1.54310498
N       -0.46932742       0.98890598       0.04358774
C       -1.53593930       0.26808835      -0.18215139
O       -1.27511340      -0.93677639      -0.48743713
H        2.40222689      -0.62785503       0.07018071
H        1.43386243       0.21886632      -1.06960706
H       -0.47145713       1.91182033      -0.36546360
H       -2.47690916       0.44489245       0.34471757
10
Frame=10 idx=001086 GeodesicLength=0.5693264288191396 rxn_smarts="[N:1]([C:2](=[O:3])[N:4]([C:5](=[O:6])[H:10])[H:9])([H:7])[H:8]>>[N:1]([C:2](=[O:3])[O:6]/[C:5](=[N:4]/[H:9])[H:10])([H:7])[H:8]"
N        1.51134625      -0.47395740      -0.34585400
C        0.42570561      -0.64829025       0.45000174
O        0.44373505      -1.17188551       1.52344974
N       -0.46586240       0.98745516       0.02224634
C       -1.54731157       0.27607906      -0.17513671
O       -1.30617191      -0.92683289      -0.50572877
H        2.40323915      -0.61961474       0.09341000
H        1.44927390       0.25212029      -1.04070025
H       -0.46207831       1.88605261      -0.43825836
H       -2.45187577       0.43887367       0.41657027
10
Frame=11 idx=001086 GeodesicLength=0.6273219532288093 rxn_smarts="[N:1]([C:2](=[O:3])[N:4]([C:5](=[O:6])[H:10])[H:9])([H:7])[H:8]>>[N:1]([C:2](=[O:3])[O:6]/[C:5](=[N:4]/[H:9])[H:10])([H:7])[H:8]"
N        1.51846008      -0.45721798      -0.33242915
C        0.41881442      -0.65960017       0.43697016
O        0.43261335      -1.20396862       1.50220267
N       -0.46248540       0.98581808       0.00067150
C       -1.55843761       0.28459507      -0.16690281
O       -1.33918485      -0.91623987      -0.52163459
H        2.40393411      -0.60999395       0.11712122
H        1.46391971       0.28514325      -1.01098126
H       -0.45410489       1.85725967      -0.50975666
H       -2.42352891       0.43420453       0.48473892
10
Frame=12 idx=001086 GeodesicLength=0.6853541373174331 rxn_smarts="[N:1]([C:2](=[O:3])[N:4]([C:5](=[O:6])[H:10])[H:9])([H:7])[H:8]>>[N:1]([C:2](=[O:3])[O:6]/[C:5](=[N:4]/[H:9])[H:10])([H:7])[H:8]"
N        1.52543912      -0.44018671      -0.31859760
C        0.41236741      -0.67100231       0.42290392
O        0.42240046      -1.23621323       1.47944259
N       -0.45920751       0.98403057      -0.02126058
C       -1.56919057       0.29365618      -0.15764893
O       -1.37400442      -0.90505478      -0.53505064
H        2.40438953      -0.59983048       0.14110207
H        1.47796216       0.31815670      -0.98028809
H       -0.44778155       1.82574419      -0.57975356
H       -2.39237463       0.43069987       0.54915082
10
Frame=13 idx=001086 GeodesicLength=0.7435518955784726 rxn_smarts="[N:1]([C:2](=[O:3])[N:4]([C:5](=[O:6])[H:10])[H:9])([H:7])[H:8]>>[N:1]([C:2](=[O:3])[O:6]/[C:5](=[N:4]/[H:9])[H:10])([H:7])[H:8]"
N        1.53229177      -0.42268756      -0.30401357
C        0.40621724      -0.68235740       0.40763319
O        0.41254206      -1.26830079       1.45507935
N       -0.45601894       0.98219515      -0.04422053
C       -1.57957004       0.30349449      -0.14770094
O       -1.41048533      -0.89287089      -0.54662248
H        2.40446840      -0.58983251       0.16565123
H        1.49160040       0.35129636      -0.94829637
H       -0.44355218       1.79173827      -0.64879683
H       -2.35749339       0.42732488       0.61128697
10
Frame=14 idx=001086 GeodesicLength=0.8017341520926322 rxn_smarts="[N:1]([C:2](=[O:3])[N:4]([C:5](=[O:6])[H:10])[H:9])([H:7])[H:8]>>[N:1]([C:2](=[O:3])[O:6]/[C:5](=[N:4]/[H:9])[H:10])([H:7])[H:8]"
N        1.53903473      -0.40473785      -0.28898044
C        0.40060556      -0.69410037       0.39085120
O        0.40368227      -1.30112893       1.42854479
N       -0.45294605       0.97997948      -0.06752908
C       -1.58941319       0.31385760      -0.13662013
O       -1.44904823      -0.88014758      -0.55518914
H        2.40424502      -0.57892138       0.19075923
H        1.50471733       0.38509181      -0.91463318
H       -0.44050263       1.75431528      -0.71698718
H       -2.32037482       0.42579194       0.66978393
10
Frame=15 idx=001086 GeodesicLength=0.8600788058670126 rxn_smarts="[N:1]([C:2](=[O:3])[N:4]([C:5](=[O:6])[H:10])[H:9])([H:7])[H:8]>>[N:1]([C:2](=[O:3])[O:6]/[C:5](=[N:4]/[H:9])[H:10])([H:7])[H:8]"
N        1.54565259      -0.38612595      -0.27299269
C        0.39536095      -0.70601697       0.37239098
O        0.39509929      -1.33410851       1.39986567
N       -0.44996489       0.97759543      -0.09207035
C       -1.59870494       0.32508792      -0.12478451
O       -1.48941406      -0.86631077      -0.56158648
H        2.40354026      -0.56803065       0.21677152
H        1.51737863       0.41947127      -0.87904448
H       -0.43940678       1.71384183      -0.78482245
H       -2.27954104       0.42459640       0.72627278
10
Frame=16 idx=001086 GeodesicLength=0.9182293933939104 rxn_smarts="[N:1]([C:2](=[O:3])[N:4]([C:5](=[O:6])[H:10])[H:9])([H:7])[H:8]>>[N:1]([C:2](=[O:3])[O:6]/[C:5](=[N:4]/[H:9])[H:10])([H:7])[H:8]"
N        1.55207679      -0.36680469      -0.25635434
C        0.39079676      -0.71827441       0.35202517
O        0.38754666      -1.36783029       1.36851632
N       -0.44714229       0.97481655      -0.11716850
C       -1.60719161       0.33692271      -0.11192327
O       -1.53177713      -0.85182036      -0.56458076
H        2.40242534      -0.55681602       0.24322261
H        1.52942057       0.45511967      -0.84084653
H       -0.43943642       1.66934052      -0.85212102
H       -2.23671867       0.42534632       0.77923031
