13
Frame=0 idx=010419 GeodesicLength=0.0 rxn_smarts="[C:1]([c:2]1[c:3]([H:11])[n:4]([H:12])[c:5]([O:6][H:13])[n:7]1)([H:8])([H:9])[H:10]>>[C:1]([c:2]1[c:3]([H:11])[n:4]([H:12])[c:5](=[O:6])[n:7]1[H:13])([H:8])([H:9])[H:10]"
C        1.92949520       0.53865714       0.04901338
C        0.52328302       0.06391029       0.01292723
C        0.03923150      -1.20293254       0.00280959
N       -1.36597717      -1.12154209      -0.03379335
C       -1.66792781       0.18341303      -0.04386609
O       -2.70866167       0.92738620      -0.07091259
N       -0.56898019       0.91834948      -0.01725885
H        2.10698206       1.15570952       0.93169113
H        2.15748872       1.14314746      -0.83078029
H        2.61592831      -0.30696734       0.07490469
H        0.55127551      -2.14967154       0.01772910
H       -2.01828785      -1.88205418      -0.04870569
H       -1.59384963       1.73259457      -0.04375831
13
Frame=1 idx=010419 GeodesicLength=0.033001481285590994 rxn_smarts="[C:1]([c:2]1[c:3]([H:11])[n:4]([H:12])[c:5]([O:6][H:13])[n:7]1)([H:8])([H:9])[H:10]>>[C:1]([c:2]1[c:3]([H:11])[n:4]([H:12])[c:5](=[O:6])[n:7]1[H:13])([H:8])([H:9])[H:10]"
C        1.92876596       0.53866011       0.04862698
C        0.52320863       0.06194828       0.01100781
C        0.03985358      -1.20474260      -0.00331471
N       -1.36422346      -1.12265107      -0.04481409
C       -1.66912755       0.18158509       0.00325667
O       -2.70724093       0.92499146      -0.08297941
N       -0.56843881       0.91762367      -0.00797636
H        2.10626801       1.15306482       0.93320317
H        2.15585581       1.14615642      -0.82937250
H        2.61618229      -0.30627442       0.07197175
H        0.55199280      -2.15130343       0.01756436
H       -2.01903998      -1.88111626      -0.05083487
H       -1.59405636       1.74205793      -0.06633880
13
Frame=2 idx=010419 GeodesicLength=0.06603230039456265 rxn_smarts="[C:1]([c:2]1[c:3]([H:11])[n:4]([H:12])[c:5]([O:6][H:13])[n:7]1)([H:8])([H:9])[H:10]>>[C:1]([c:2]1[c:3]([H:11])[n:4]([H:12])[c:5](=[O:6])[n:7]1[H:13])([H:8])([H:9])[H:10]"
C        1.92803715       0.53868040       0.04785197
C        0.52304735       0.06013794       0.01089073
C        0.04019986      -1.20633165      -0.00628267
N       -1.36276166      -1.12302051      -0.05150748
C       -1.66981219       0.17981814       0.03437034
O       -2.70528710       0.92150873      -0.09362826
N       -0.56792585       0.91697870       0.00381639
H        2.10676721       1.15103860       0.93364862
H        2.15313546       1.14853926      -0.82907097
H        2.61635965      -0.30561988       0.06834660
H        0.55229366      -2.15280656       0.01820295
H       -2.01972227      -1.87965822      -0.05409760
H       -1.59433126       1.75073504      -0.08254060
13
Frame=3 idx=010419 GeodesicLength=0.09916649499976048 rxn_smarts="[C:1]([c:2]1[c:3]([H:11])[n:4]([H:12])[c:5]([O:6][H:13])[n:7]1)([H:8])([H:9])[H:10]>>[C:1]([c:2]1[c:3]([H:11])[n:4]([H:12])[c:5](=[O:6])[n:7]1[H:13])([H:8])([H:9])[H:10]"
C        1.92726409       0.53873086       0.04692567
C        0.52282123       0.05835472       0.01133184
C        0.04046738      -1.20790559      -0.00733916
N       -1.36134569      -1.12328735      -0.05694589
C       -1.67041269       0.17793075       0.05796119
O       -2.70315221       0.91795552      -0.10199708
N       -0.56741375       0.91628673       0.01520359
H        2.10734710       1.15003382       0.93322701
H        2.15028762       1.14995656      -0.82962056
H        2.61647226      -0.30492183       0.06543287
H        0.55253228      -2.15430957       0.01947241
H       -2.02038288      -1.87814201      -0.05857442
H       -1.59448473       1.75931740      -0.09507748
13
Frame=4 idx=010419 GeodesicLength=0.13226371265619905 rxn_smarts="[C:1]([c:2]1[c:3]([H:11])[n:4]([H:12])[c:5]([O:6][H:13])[n:7]1)([H:8])([H:9])[H:10]>>[C:1]([c:2]1[c:3]([H:11])[n:4]([H:12])[c:5](=[O:6])[n:7]1[H:13])([H:8])([H:9])[H:10]"
C        1.92644725       0.53879840       0.04604181
C        0.52257354       0.05657464       0.01143208
C        0.04073107      -1.20949356      -0.00827047
N       -1.35994740      -1.12355096      -0.06159169
C       -1.67095237       0.17596557       0.07765139
O       -2.70092461       0.91443073      -0.10837319
N       -0.56688127       0.91552751       0.02515253
H        2.10746740       1.14956392       0.93257143
H        2.14781545       1.15087668      -0.83036945
H        2.61652127      -0.30419583       0.06337487
H        0.55275810      -2.15581747       0.02111068
H       -2.02103572      -1.87660210      -0.06312592
H       -1.59457270       1.76792247      -0.10560405
13
Frame=5 idx=010419 GeodesicLength=0.1653423394606606 rxn_smarts="[C:1]([c:2]1[c:3]([H:11])[n:4]([H:12])[c:5]([O:6][H:13])[n:7]1)([H:8])([H:9])[H:10]>>[C:1]([c:2]1[c:3]([H:11])[n:4]([H:12])[c:5](=[O:6])[n:7]1[H:13])([H:8])([H:9])[H:10]"
C        1.92560489       0.53887296       0.04534044
C        0.52230601       0.05480646       0.01134498
C        0.04098302      -1.21107940      -0.00894895
N       -1.35857115      -1.12383138      -0.06539129
C       -1.67140997       0.17390790       0.09494837
O       -2.69865776       0.91095250      -0.11347598
N       -0.56632983       0.91475664       0.03384765
H        2.10717030       1.14957181       0.93185581
H        2.14572615       1.15133216      -0.83116315
H        2.61653072      -0.30346163       0.06225678
H        0.55302873      -2.15732871       0.02165499
H       -2.02172699      -1.87506536      -0.06705151
H       -1.59465413       1.77656606      -0.11521816
13
Frame=6 idx=010419 GeodesicLength=0.1984409972762626 rxn_smarts="[C:1]([c:2]1[c:3]([H:11])[n:4]([H:12])[c:5]([O:6][H:13])[n:7]1)([H:8])([H:9])[H:10]>>[C:1]([c:2]1[c:3]([H:11])[n:4]([H:12])[c:5](=[O:6])[n:7]1[H:13])([H:8])([H:9])[H:10]"
C        1.92474129       0.53895555       0.04482040
C        0.52201781       0.05305379       0.01126734
C        0.04122590      -1.21266064      -0.00933193
N       -1.35722202      -1.12410906      -0.06844226
C       -1.67184626       0.17180519       0.11092037
O       -2.69637768       0.90752662      -0.11710629
N       -0.56577422       0.91398831       0.04179152
H        2.10662092       1.14994255       0.93112826
H        2.14386373       1.15143766      -0.83196644
H        2.61650952      -0.30272125       0.06184056
H        0.55334928      -2.15884562       0.02113346
H       -2.02243506      -1.87352404      -0.07088891
H       -1.59467319       1.78515094      -0.12516609
13
Frame=7 idx=010419 GeodesicLength=0.23156707035838636 rxn_smarts="[C:1]([c:2]1[c:3]([H:11])[n:4]([H:12])[c:5]([O:6][H:13])[n:7]1)([H:8])([H:9])[H:10]>>[C:1]([c:2]1[c:3]([H:11])[n:4]([H:12])[c:5](=[O:6])[n:7]1[H:13])([H:8])([H:9])[H:10]"
C        1.92384809       0.53905508       0.04435538
C        0.52170362       0.05130804       0.01131327
C        0.04146341      -1.21424674      -0.00943626
N       -1.35588383      -1.12438279      -0.07110719
C       -1.67227362       0.16962031       0.12600190
O       -2.69403870       0.90418170      -0.11978576
N       -0.56522219       0.91318716       0.04947294
H        2.10599847       1.15055131       0.93030621
H        2.14201860       1.15133561      -0.83285348
H        2.61645535      -0.30195202       0.06172224
H        0.55368964      -2.16037010       0.02033750
H       -2.02315876      -1.87195759      -0.07505969
H       -1.59460007       1.79367003      -0.13526706
13
Frame=8 idx=010419 GeodesicLength=0.26479664641957196 rxn_smarts="[C:1]([c:2]1[c:3]([H:11])[n:4]([H:12])[c:5]([O:6][H:13])[n:7]1)([H:8])([H:9])[H:10]>>[C:1]([c:2]1[c:3]([H:11])[n:4]([H:12])[c:5](=[O:6])[n:7]1[H:13])([H:8])([H:9])[H:10]"
C        1.92294265       0.53917851       0.04382566
C        0.52136908       0.04957012       0.01163896
C        0.04170004      -1.21585246      -0.00928115
N       -1.35455240      -1.12465499      -0.07366167
C       -1.67275813       0.16732845       0.14037775
O       -2.69167623       0.90092237      -0.12184820
N       -0.56467834       0.91236466       0.05736680
H        2.10550934       1.15131345       0.92929583
H        2.14001085       1.15114702      -0.83392557
H        2.61639811      -0.30116219       0.06153371
H        0.55403217      -2.16191977       0.02007777
H       -2.02389971      -1.87037743      -0.08005687
H       -1.59439742       1.80214228      -0.14534302
13
Frame=9 idx=010419 GeodesicLength=0.2978414271107118 rxn_smarts="[C:1]([c:2]1[c:3]([H:11])[n:4]([H:12])[c:5]([O:6][H:13])[n:7]1)([H:8])([H:9])[H:10]>>[C:1]([c:2]1[c:3]([H:11])[n:4]([H:12])[c:5](=[O:6])[n:7]1[H:13])([H:8])([H:9])[H:10]"
C        1.92192649       0.53935430       0.04284156
C        0.52093799       0.04779819       0.01281932
C        0.04192325      -1.21751192      -0.00843161
N       -1.35311871      -1.12492693      -0.07688680
C       -1.67334254       0.16478937       0.15403351
O       -2.68894253       0.89785398      -0.12419658
N       -0.56426658       0.91135592       0.06699227
H        2.10570255       1.15207684       0.92772442
H        2.13699525       1.15107911      -0.83560198
H        2.61630559      -0.30026585       0.06015833
H        0.55425637      -2.16349056       0.02272139
H       -2.02455952      -1.86868762      -0.08757392
H       -1.59381760       1.81057518      -0.15459990
13
Frame=10 idx=010419 GeodesicLength=0.33093430765310233 rxn_smarts="[C:1]([c:2]1[c:3]([H:11])[n:4]([H:12])[c:5]([O:6][H:13])[n:7]1)([H:8])([H:9])[H:10]>>[C:1]([c:2]1[c:3]([H:11])[n:4]([H:12])[c:5](=[O:6])[n:7]1[H:13])([H:8])([H:9])[H:10]"
C        1.92090030       0.53951508       0.04222847
C        0.52052460       0.04605824       0.01354889
C        0.04215035      -1.21911767      -0.00800418
N       -1.35172502      -1.12516554      -0.07934538
C       -1.67377700       0.16225732       0.16740706
O       -2.68634735       0.89478263      -0.12500205
N       -0.56376939       0.91040194       0.07524540
H        2.10531208       1.15293211       0.92652863
H        2.13458456       1.15085856      -0.83686229
H        2.61614732      -0.29938973       0.05974482
H        0.55453914      -2.16501118       0.02340730
H       -2.02526202      -1.86694144      -0.09383247
H       -1.59327757       1.81881968      -0.16506421
13
Frame=11 idx=010419 GeodesicLength=0.3640666543258218 rxn_smarts="[C:1]([c:2]1[c:3]([H:11])[n:4]([H:12])[c:5]([O:6][H:13])[n:7]1)([H:8])([H:9])[H:10]>>[C:1]([c:2]1[c:3]([H:11])[n:4]([H:12])[c:5](=[O:6])[n:7]1[H:13])([H:8])([H:9])[H:10]"
C        1.91986976       0.53970147       0.04157646
C        0.52009981       0.04431792       0.01429002
C        0.04239059      -1.22074903      -0.00774707
N       -1.35034396      -1.12541529      -0.08179714
C       -1.67423290       0.15961180       0.18042797
O       -2.68371656       0.89181863      -0.12509867
N       -0.56329856       0.90941454       0.08343771
H        2.10494287       1.15379540       0.92531839
H        2.13212179       1.15070350      -0.83814248
H        2.61601156      -0.29848755       0.05922223
H        0.55480526      -2.16655848       0.02483018
H       -2.02599699      -1.86514973      -0.10066036
H       -1.59265266       1.82699684      -0.17565722
13
Frame=12 idx=010419 GeodesicLength=0.39722023044668353 rxn_smarts="[C:1]([c:2]1[c:3]([H:11])[n:4]([H:12])[c:5]([O:6][H:13])[n:7]1)([H:8])([H:9])[H:10]>>[C:1]([c:2]1[c:3]([H:11])[n:4]([H:12])[c:5](=[O:6])[n:7]1[H:13])([H:8])([H:9])[H:10]"
C        1.91881124       0.53991077       0.04086029
C        0.51965723       0.04257547       0.01511977
C        0.04264081      -1.22239273      -0.00762450
N       -1.34895033      -1.12565025      -0.08429076
C       -1.67468117       0.15682641       0.19322526
O       -2.68103290       0.88896035      -0.12450402
N       -0.56284224       0.90837377       0.09171761
H        2.10461927       1.15465837       0.92404422
H        2.12952732       1.15060687      -0.83948386
H        2.61586522      -0.29754872       0.05852709
H        0.55502927      -2.16810888       0.02713221
H       -2.02673827      -1.86326351      -0.10826754
H       -1.59190545       1.83505208      -0.18645577
13
Frame=13 idx=010419 GeodesicLength=0.4303947712170974 rxn_smarts="[C:1]([c:2]1[c:3]([H:11])[n:4]([H:12])[c:5]([O:6][H:13])[n:7]1)([H:8])([H:9])[H:10]>>[C:1]([c:2]1[c:3]([H:11])[n:4]([H:12])[c:5](=[O:6])[n:7]1[H:13])([H:8])([H:9])[H:10]"
C        1.91773026       0.54014521       0.04007277
C        0.51919648       0.04082934       0.01612438
C        0.04289679      -1.22404872      -0.00753795
N       -1.34754372      -1.12586662      -0.08684579
C       -1.67514107       0.15390146       0.20588026
O       -2.67829676       0.88620564      -0.12329952
N       -0.56241248       0.90727502       0.10019700
H        2.10439416       1.15554253       0.92268043
H        2.12675285       1.15055093      -0.84092527
H        2.61572185      -0.29657051       0.05763138
H        0.55520643      -2.16966209       0.03026311
H       -2.02748085      -1.86125983      -0.11673190
H       -1.59102394       1.84295765      -0.19750889
13
Frame=14 idx=010419 GeodesicLength=0.4635561484994245 rxn_smarts="[C:1]([c:2]1[c:3]([H:11])[n:4]([H:12])[c:5]([O:6][H:13])[n:7]1)([H:8])([H:9])[H:10]>>[C:1]([c:2]1[c:3]([H:11])[n:4]([H:12])[c:5](=[O:6])[n:7]1[H:13])([H:8])([H:9])[H:10]"
C        1.91659358       0.54041218       0.03919209
C        0.51871035       0.03907027       0.01743221
C        0.04316217      -1.22572904      -0.00737256
N       -1.34610319      -1.12605963      -0.08954176
C       -1.67557069       0.15079695       0.21834787
O       -2.67547453       0.88357097      -0.12140040
N       -0.56199596       0.90610164       0.10901768
H        2.10429528       1.15651105       0.92113617
H        2.12368679       1.15049407      -0.84252506
H        2.61553943      -0.29553661       0.05650971
H        0.55532408      -2.17122778       0.03433579
H       -2.02822216      -1.85908210      -0.12628029
H       -1.58994515       1.85067805      -0.20885146
13
Frame=15 idx=010419 GeodesicLength=0.49674310225684454 rxn_smarts="[C:1]([c:2]1[c:3]([H:11])[n:4]([H:12])[c:5]([O:6][H:13])[n:7]1)([H:8])([H:9])[H:10]>>[C:1]([c:2]1[c:3]([H:11])[n:4]([H:12])[c:5](=[O:6])[n:7]1[H:13])([H:8])([H:9])[H:10]"
C        1.91543092       0.54069948       0.03831617
C        0.51820967       0.03730378       0.01887439
C        0.04343143      -1.22742277      -0.00722333
N       -1.34465869      -1.12623990      -0.09216627
C       -1.67600912       0.14756916       0.23072372
O       -2.67258543       0.88103651      -0.11902462
N       -0.56159894       0.90488106       0.11782911
H        2.10419499       1.15756412       0.91954791
H        2.12053312       1.15040475      -0.84417036
H        2.61535063      -0.29446799       0.05540650
H        0.55541636      -2.17279871       0.03857091
H       -2.02895858      -1.85678695      -0.13621048
H       -1.58875635       1.85825745      -0.22047366
13
Frame=16 idx=010419 GeodesicLength=0.5299349967226528 rxn_smarts="[C:1]([c:2]1[c:3]([H:11])[n:4]([H:12])[c:5]([O:6][H:13])[n:7]1)([H:8])([H:9])[H:10]>>[C:1]([c:2]1[c:3]([H:11])[n:4]([H:12])[c:5](=[O:6])[n:7]1[H:13])([H:8])([H:9])[H:10]"
C        1.91424598       0.54100282       0.03750213
C        0.51770004       0.03553432       0.02031742
C        0.04370512      -1.22912177      -0.00722856
N       -1.34322173      -1.12641284      -0.09468783
C       -1.67641709       0.14423305       0.24297329
O       -2.66964362       0.87859319      -0.11616004
N       -0.56121283       0.90362341       0.12644178
H        2.10399735       1.15867349       0.91800745
H        2.11740716       1.15029766      -0.84576003
H        2.61514903      -0.29337146       0.05444334
H        0.55549472      -2.17436791       0.04264698
H       -2.02970564      -1.85438799      -0.14607668
H       -1.58749850       1.86570402      -0.23241926
