9
Frame=0 idx=001206 GeodesicLength=0.0 rxn_smarts="[C:1]([C:2]#[C:3][C:4](=[O:5])[H:9])([H:6])([H:7])[H:8]>>[C:1]([C:2](=[C:3]=[C:4]=[O:5])[H:9])([H:6])([H:7])[H:8]"
C       -1.32906528       0.02100039       0.06965952
C        0.04755952      -0.01082142      -0.44146437
C        1.00183795      -0.04444724      -1.32903839
C        1.69448270      -0.02635138      -0.06296888
O        2.79460399      -0.03184489       0.40207975
H       -1.52405620       0.92773818       0.64160605
H       -1.55247941      -0.85530288       0.67754313
H       -1.96844428       0.01349175      -0.81631763
H        0.83556105       0.00653748       0.85890079
9
Frame=1 idx=001206 GeodesicLength=0.10118804257138787 rxn_smarts="[C:1]([C:2]#[C:3][C:4](=[O:5])[H:9])([H:6])([H:7])[H:8]>>[C:1]([C:2](=[C:3]=[C:4]=[O:5])[H:9])([H:6])([H:7])[H:8]"
C       -1.34380772       0.01955638       0.06439465
C        0.04041436      -0.02519426      -0.42334250
C        0.99758269       0.03029389      -1.30320448
C        1.72218423      -0.00824453      -0.06092918
O        2.83236029      -0.07166680       0.37245545
H       -1.55310216       0.94915842       0.59295343
H       -1.56977364      -0.82989560       0.70851235
H       -1.97630452      -0.03381875      -0.82490996
H        0.85044649      -0.03018875       0.87407025
9
Frame=2 idx=001206 GeodesicLength=0.2023557499962586 rxn_smarts="[C:1]([C:2]#[C:3][C:4](=[O:5])[H:9])([H:6])([H:7])[H:8]>>[C:1]([C:2](=[C:3]=[C:4]=[O:5])[H:9])([H:6])([H:7])[H:8]"
C       -1.35840295       0.01871066       0.05851654
C        0.03357847      -0.03587252      -0.40488271
C        0.99226322       0.10245139      -1.27067127
C        1.75032762       0.00885368      -0.05677866
O        2.86976959      -0.10842621       0.33746309
H       -1.58317685       0.96889136       0.54226048
H       -1.58747152      -0.80218000       0.73774781
H       -1.98276311      -0.08123726      -0.83250235
H        0.86587552      -0.07119108       0.88884707
9
Frame=3 idx=001206 GeodesicLength=0.3035678969398407 rxn_smarts="[C:1]([C:2]#[C:3][C:4](=[O:5])[H:9])([H:6])([H:7])[H:8]>>[C:1]([C:2](=[C:3]=[C:4]=[O:5])[H:9])([H:6])([H:7])[H:8]"
C       -1.37314560       0.01880993       0.05216761
C        0.02671845      -0.04256799      -0.38572779
C        0.98647395       0.17140373      -1.23167173
C        1.77901153       0.02271767      -0.05085353
O        2.90719158      -0.13927391       0.29759116
H       -1.61438025       0.98727302       0.48955561
H       -1.60596160      -0.77177664       0.76535057
H       -1.98786529      -0.12846595      -0.83897699
H        0.88195723      -0.11811986       0.90256508
9
Frame=4 idx=001206 GeodesicLength=0.404686723832732 rxn_smarts="[C:1]([C:2]#[C:3][C:4](=[O:5])[H:9])([H:6])([H:7])[H:8]>>[C:1]([C:2](=[C:3]=[C:4]=[O:5])[H:9])([H:6])([H:7])[H:8]"
C       -1.38811611       0.01968140       0.04556195
C        0.01963019      -0.04582881      -0.36571728
C        0.98078131       0.23633349      -1.18672595
C        1.80834761       0.03497381      -0.04341407
O        2.94429663      -0.16515657       0.25357107
H       -1.64645940       1.00402431       0.43519215
H       -1.62555396      -0.73896700       0.79128557
H       -1.99159369      -0.17507411      -0.84414705
H        0.89866742      -0.16998653       0.91439361
9
Frame=5 idx=001206 GeodesicLength=0.5057849154531182 rxn_smarts="[C:1]([C:2]#[C:3][C:4](=[O:5])[H:9])([H:6])([H:7])[H:8]>>[C:1]([C:2](=[C:3]=[C:4]=[O:5])[H:9])([H:6])([H:7])[H:8]"
C       -1.40351125       0.02163293       0.03879314
C        0.01208851      -0.04648155      -0.34432617
C        0.97536606       0.29737311      -1.13578861
C        1.83832595       0.04442071      -0.03473984
O        2.98157328      -0.18351478       0.20596016
H       -1.67903276       1.01974166       0.37852522
H       -1.64689590      -0.70285033       0.81602711
H       -1.99405175      -0.22115583      -0.84777811
H        0.91613785      -0.22916592       0.92332709
9
Frame=6 idx=001206 GeodesicLength=0.6066845578218153 rxn_smarts="[C:1]([C:2]#[C:3][C:4](=[O:5])[H:9])([H:6])([H:7])[H:8]>>[C:1]([C:2](=[C:3]=[C:4]=[O:5])[H:9])([H:6])([H:7])[H:8]"
C       -1.41928478       0.02422712       0.03197055
C        0.00409714      -0.04467961      -0.32124150
C        0.97050092       0.35489919      -1.07894780
C        1.86910693       0.05216528      -0.02503935
O        3.01832898      -0.19705526       0.15500846
H       -1.71199764       1.03373989       0.31977646
H       -1.66996977      -0.66399605       0.83937076
H       -1.99505969      -0.26680589      -0.84977093
H        0.93427791      -0.29249467       0.92887336
9
Frame=7 idx=001206 GeodesicLength=0.7075155827686951 rxn_smarts="[C:1]([C:2]#[C:3][C:4](=[O:5])[H:9])([H:6])([H:7])[H:8]>>[C:1]([C:2](=[C:3]=[C:4]=[O:5])[H:9])([H:6])([H:7])[H:8]"
C       -1.43552691       0.02792254       0.02517556
C       -0.00450368      -0.04149466      -0.29583927
C        0.96613581       0.40860317      -1.01571094
C        1.90057066       0.05744986      -0.01437664
O        3.05498647      -0.20252076       0.10119142
H       -1.74464534       1.04675295       0.25783713
H       -1.69548186      -0.62094050       0.86183184
H       -1.99475885      -0.31226211      -0.84958566
H        0.95322369      -0.36351050       0.92947655
9
Frame=8 idx=001206 GeodesicLength=0.8080616496442216 rxn_smarts="[C:1]([C:2]#[C:3][C:4](=[O:5])[H:9])([H:6])([H:7])[H:8]>>[C:1]([C:2](=[C:3]=[C:4]=[O:5])[H:9])([H:6])([H:7])[H:8]"
C       -1.45207419       0.03207802       0.01843867
C       -0.01360383      -0.03706006      -0.26772899
C        0.96238868       0.45858013      -0.94600176
C        1.93291010       0.06108986      -0.00312751
O        3.09050816      -0.20300827       0.04440193
H       -1.77642024       1.05771738       0.19349313
H       -1.72354156      -0.57488707       0.88256665
H       -1.99296345      -0.35710738      -0.84736776
H        0.97279632      -0.43740261       0.92532565
9
Frame=9 idx=001206 GeodesicLength=0.9084444230666803 rxn_smarts="[C:1]([C:2]#[C:3][C:4](=[O:5])[H:9])([H:6])([H:7])[H:8]>>[C:1]([C:2](=[C:3]=[C:4]=[O:5])[H:9])([H:6])([H:7])[H:8]"
C       -1.46893917       0.03726293       0.01193561
C       -0.02342126      -0.03282797      -0.23631379
C        0.95910988       0.50283878      -0.86986378
C        1.96585288       0.06219603       0.00843911
O        3.12533521      -0.19390529      -0.01409242
H       -1.80589033       1.06744685       0.12608733
H       -1.75490247      -0.52442317       0.90177249
H       -1.99023639      -0.40092512      -0.84237871
H        0.99309166      -0.51766305       0.91441415
9
Frame=10 idx=001206 GeodesicLength=1.008499167210702 rxn_smarts="[C:1]([C:2]#[C:3][C:4](=[O:5])[H:9])([H:6])([H:7])[H:8]>>[C:1]([C:2](=[C:3]=[C:4]=[O:5])[H:9])([H:6])([H:7])[H:8]"
C       -1.48585934       0.04281656       0.00558883
C       -0.03378330      -0.02886565      -0.20096019
C        0.95630152       0.54195628      -0.78677490
C        1.99957901       0.06163265       0.01988367
O        3.15812850      -0.17864084      -0.07509661
H       -1.83232514       1.07495419       0.05622049
H       -1.78971592      -0.47074261       0.91843736
H       -1.98630539      -0.44357679      -0.83496796
H        1.01398005      -0.59953379       0.89766932
9
Frame=11 idx=001206 GeodesicLength=1.1083440978691514 rxn_smarts="[C:1]([C:2]#[C:3][C:4](=[O:5])[H:9])([H:6])([H:7])[H:8]>>[C:1]([C:2](=[C:3]=[C:4]=[O:5])[H:9])([H:6])([H:7])[H:8]"
C       -1.50274806       0.04949003      -0.00020120
C       -0.04507586      -0.02753351      -0.16143568
C        0.95371079       0.57145499      -0.69873645
C        2.03351234       0.05855617       0.03064049
O        3.18953148      -0.15044959      -0.13521349
H       -1.85322338       1.08141468      -0.01601874
H       -1.82842201      -0.41220849       0.93278865
H       -1.98276425      -0.48385374      -0.82399679
H        1.03547896      -0.68687055       0.87217322
9
Frame=12 idx=001206 GeodesicLength=1.2076872336258344 rxn_smarts="[C:1]([C:2]#[C:3][C:4](=[O:5])[H:9])([H:6])([H:7])[H:8]>>[C:1]([C:2](=[C:3]=[C:4]=[O:5])[H:9])([H:6])([H:7])[H:8]"
C       -1.51909979       0.05589682      -0.00600397
C       -0.05676499      -0.02697012      -0.11570964
C        0.95144256       0.59559335      -0.60259670
C        2.06818333       0.05491080       0.04032123
O        3.21636693      -0.11899499      -0.19972819
H       -1.86893377       1.08474730      -0.09011396
H       -1.87134540      -0.35166241       0.94261408
H       -1.97747478      -0.52258303      -0.81141597
H        1.05762590      -0.77093772       0.84263312
9
Frame=13 idx=001206 GeodesicLength=1.3067063466234612 rxn_smarts="[C:1]([C:2]#[C:3][C:4](=[O:5])[H:9])([H:6])([H:7])[H:8]>>[C:1]([C:2](=[C:3]=[C:4]=[O:5])[H:9])([H:6])([H:7])[H:8]"
C       -1.53473317       0.06326840      -0.01108023
C       -0.06955531      -0.03027330      -0.06350863
C        0.94922185       0.60726606      -0.50295693
C        2.10248602       0.04857501       0.04736598
O        3.23992849      -0.07357979      -0.26245201
H       -1.87613418       1.08672964      -0.16589763
H       -1.91839066      -0.28625225       0.94865583
H       -1.97290611      -0.55835222      -0.79526394
H        1.08008307      -0.85738155       0.80513756
9
Frame=14 idx=001206 GeodesicLength=1.4051469118695095 rxn_smarts="[C:1]([C:2]#[C:3][C:4](=[O:5])[H:9])([H:6])([H:7])[H:8]>>[C:1]([C:2](=[C:3]=[C:4]=[O:5])[H:9])([H:6])([H:7])[H:8]"
C       -1.54885914       0.07082221      -0.01563558
C       -0.08326507      -0.03659580      -0.00360253
C        0.94716918       0.60834751      -0.39921844
C        2.13614249       0.04184270       0.05164075
O        3.25745683      -0.01962832      -0.32548639
H       -1.87392456       1.08613257      -0.24248388
H       -1.96898223      -0.21748451       0.94938475
H       -1.96800807      -0.59148676      -0.77651182
H        1.10227058      -0.94194960       0.76191315
9
Frame=15 idx=001206 GeodesicLength=1.5030051285552046 rxn_smarts="[C:1]([C:2]#[C:3][C:4](=[O:5])[H:9])([H:6])([H:7])[H:8]>>[C:1]([C:2](=[C:3]=[C:4]=[O:5])[H:9])([H:6])([H:7])[H:8]"
C       -1.56057221       0.07839245      -0.01960697
C       -0.09798276      -0.04624718       0.06436460
C        0.94545159       0.59864432      -0.29188659
C        2.16835370       0.03589001       0.05340118
O        3.26682123       0.04232106      -0.38861672
H       -1.86062998       1.08230014      -0.31974146
H       -2.02172547      -0.14475965       0.94418812
H       -1.96278026      -0.62235525      -0.75471029
H        1.12306415      -1.02418589       0.71260813
9
Frame=16 idx=001206 GeodesicLength=1.600473945736372 rxn_smarts="[C:1]([C:2]#[C:3][C:4](=[O:5])[H:9])([H:6])([H:7])[H:8]>>[C:1]([C:2](=[C:3]=[C:4]=[O:5])[H:9])([H:6])([H:7])[H:8]"
C       -1.56933033       0.08626117      -0.02213748
C       -0.11406450      -0.06159453       0.13626400
C        0.94403713       0.57338472      -0.19025988
C        2.19783828       0.03036971       0.05204760
O        3.26951478       0.11747518      -0.44262025
H       -1.83469032       1.07522704      -0.39549639
H       -2.07234167      -0.06629836       0.93471619
H       -1.96134397      -0.65001189      -0.72738169
H        1.14038060      -1.10481303       0.65486791
