12
Frame=0 idx=011611 GeodesicLength=0.0 rxn_smarts="[N:1]([C@:2]12[C:3]([H:10])([H:11])[C@@:4]1([H:12])[O:5][C:6]2=[O:7])([H:8])[H:9]>>[N:1]([C:2]([C:3]([C:4](=[O:5])[H:12])([H:10])[H:11])=[C:6]=[O:7])([H:8])[H:9]"
N        0.59628133       1.45851947       0.78183412
C        0.25016370       0.34065464       0.03127191
C       -1.18990806       0.06062991      -0.38588192
C       -0.78408642      -1.29158034      -0.03068220
O       -0.01190439      -1.87522689      -0.86496504
C        1.19316076      -0.55357864      -0.46932159
O        2.30663227      -0.89279108      -0.48403982
H        0.54051029       2.34433112       0.30114169
H        1.44974112       1.37116131       1.30922894
H       -1.87354218       0.54005931       0.30864475
H       -1.43977498       0.23888631      -1.42992516
H       -1.03727341      -1.74106507       0.93269428
12
Frame=1 idx=011611 GeodesicLength=0.0286218012681178 rxn_smarts="[N:1]([C@:2]12[C:3]([H:10])([H:11])[C@@:4]1([H:12])[O:5][C:6]2=[O:7])([H:8])[H:9]>>[N:1]([C:2]([C:3]([C:4](=[O:5])[H:12])([H:10])[H:11])=[C:6]=[O:7])([H:8])[H:9]"
N        0.59335939       1.46148794       0.78210473
C        0.25021642       0.33692353       0.03674892
C       -1.18827764       0.06113431      -0.38346160
C       -0.78633531      -1.29234674      -0.02405112
O       -0.00350749      -1.88025017      -0.84891250
C        1.19708346      -0.55118930      -0.47095550
O        2.31535991      -0.87303348      -0.51357011
H        0.56368727       2.33990958       0.28579397
H        1.43559221       1.36953062       1.32672915
H       -1.87541045       0.53918432       0.30891256
H       -1.43662847       0.23758800      -1.42809148
H       -1.06513930      -1.74893860       0.92875298
12
Frame=2 idx=011611 GeodesicLength=0.05723867069552015 rxn_smarts="[N:1]([C@:2]12[C:3]([H:10])([H:11])[C@@:4]1([H:12])[O:5][C:6]2=[O:7])([H:8])[H:9]>>[N:1]([C:2]([C:3]([C:4](=[O:5])[H:12])([H:10])[H:11])=[C:6]=[O:7])([H:8])[H:9]"
N        0.59057287       1.46445103       0.78235046
C        0.25045566       0.33319588       0.04225300
C       -1.18642081       0.06157799      -0.38109470
C       -0.78848564      -1.29306266      -0.01698812
O        0.00522619      -1.88546105      -0.83178397
C        1.20117183      -0.54888383      -0.47230975
O        2.32331969      -0.85282606      -0.54435732
H        0.58683016       2.33496040       0.27145997
H        1.42132365       1.36833245       1.34386137
H       -1.87711760       0.53850182       0.30886111
H       -1.43310607       0.23589110      -1.42639570
H       -1.09376993      -1.75667706       0.92414364
12
Frame=3 idx=011611 GeodesicLength=0.0855595490885928 rxn_smarts="[N:1]([C@:2]12[C:3]([H:10])([H:11])[C@@:4]1([H:12])[O:5][C:6]2=[O:7])([H:8])[H:9]>>[N:1]([C:2]([C:3]([C:4](=[O:5])[H:12])([H:10])[H:11])=[C:6]=[O:7])([H:8])[H:9]"
N        0.58798445       1.46743860       0.78248418
C        0.25090081       0.32951982       0.04767898
C       -1.18438389       0.06198959      -0.37866503
C       -0.79044808      -1.29374110      -0.00967726
O        0.01421178      -1.89063833      -0.81406537
C        1.20542437      -0.54654232      -0.47368384
O        2.33032848      -0.83285151      -0.57501205
H        0.60945801       2.32964435       0.25814287
H        1.40738427       1.36777999       1.36004981
H       -1.87860408       0.53787378       0.30881737
H       -1.42945540       0.23402071      -1.42463913
H       -1.12280071      -1.76449360       0.91856948
12
Frame=4 idx=011611 GeodesicLength=0.11373485094288988 rxn_smarts="[N:1]([C@:2]12[C:3]([H:10])([H:11])[C@@:4]1([H:12])[O:5][C:6]2=[O:7])([H:8])[H:9]>>[N:1]([C:2]([C:3]([C:4](=[O:5])[H:12])([H:10])[H:11])=[C:6]=[O:7])([H:8])[H:9]"
N        0.58556514       1.47046574       0.78252914
C        0.25154152       0.32591250       0.05302475
C       -1.18217453       0.06235174      -0.37620127
C       -0.79223473      -1.29437323      -0.00202154
O        0.02349386      -1.89584181      -0.79555402
C        1.20984577      -0.54418704      -0.47501340
O        2.33642509      -0.81293905      -0.60599726
H        0.63181128       2.32400215       0.24576123
H        1.39357940       1.36772784       1.37561584
H       -1.87990743       0.53733960       0.30869874
H       -1.42565681       0.23186221      -1.42288007
H       -1.15228856      -1.77232066       0.91203787
12
Frame=5 idx=011611 GeodesicLength=0.1417827905976454 rxn_smarts="[N:1]([C@:2]12[C:3]([H:10])([H:11])[C@@:4]1([H:12])[O:5][C:6]2=[O:7])([H:8])[H:9]>>[N:1]([C:2]([C:3]([C:4](=[O:5])[H:12])([H:10])[H:11])=[C:6]=[O:7])([H:8])[H:9]"
N        0.58330934       1.47355325       0.78249300
C        0.25237951       0.32234567       0.05838730
C       -1.17975806       0.06265776      -0.37367594
C       -0.79384609      -1.29496444       0.00602216
O        0.03310472      -1.90107525      -0.77613937
C        1.21443730      -0.54185335      -0.47618120
O        2.34153681      -0.79301906      -0.63755300
H        0.65392133       2.31804274       0.23420785
H        1.37987450       1.36819980       1.39063379
H       -1.88100850       0.53690686       0.30849574
H       -1.42161972       0.22940626      -1.42108995
H       -1.18233114      -1.78020024       0.90439961
12
Frame=6 idx=011611 GeodesicLength=0.16981947582700246 rxn_smarts="[N:1]([C@:2]12[C:3]([H:10])([H:11])[C@@:4]1([H:12])[O:5][C:6]2=[O:7])([H:8])[H:9]>>[N:1]([C:2]([C:3]([C:4](=[O:5])[H:12])([H:10])[H:11])=[C:6]=[O:7])([H:8])[H:9]"
N        0.58120585       1.47670438       0.78240073
C        0.25342045       0.31883020       0.06377838
C       -1.17712195       0.06288276      -0.37112470
C       -0.79530033      -1.29550482       0.01456740
O        0.04308843      -1.90637869      -0.75558033
C        1.21923176      -0.53957742      -0.47705785
O        2.34558440      -0.77288634      -0.67020261
H        0.67601335       2.31177031       0.22345022
H        1.36608618       1.36909617       1.40537629
H       -1.88193255       0.53660223       0.30810270
H       -1.41727351       0.22653596      -1.41934212
H       -1.21300209      -1.78807475       0.89563190
12
Frame=7 idx=011611 GeodesicLength=0.19754620900124337 rxn_smarts="[N:1]([C@:2]12[C:3]([H:10])([H:11])[C@@:4]1([H:12])[O:5][C:6]2=[O:7])([H:8])[H:9]>>[N:1]([C:2]([C:3]([C:4](=[O:5])[H:12])([H:10])[H:11])=[C:6]=[O:7])([H:8])[H:9]"
N        0.57929453       1.47994633       0.78211760
C        0.25464802       0.31546448       0.06897475
C       -1.17438060       0.06307374      -0.36840377
C       -0.79649215      -1.29598257       0.02341362
O        0.05331773      -1.91148032      -0.73450008
C        1.22413821      -0.53712662      -0.47823408
O        2.34863238      -0.75341298      -0.70209767
H        0.69765406       2.30537556       0.21343418
H        1.35263467       1.37051278       1.41926037
H       -1.88264354       0.53627409       0.30794904
H       -1.41305004       0.22349260      -1.41738180
H       -1.24375327      -1.79613710       0.88546786
12
Frame=8 idx=011611 GeodesicLength=0.2250769335324437 rxn_smarts="[N:1]([C@:2]12[C:3]([H:10])([H:11])[C@@:4]1([H:12])[O:5][C:6]2=[O:7])([H:8])[H:9]>>[N:1]([C:2]([C:3]([C:4](=[O:5])[H:12])([H:10])[H:11])=[C:6]=[O:7])([H:8])[H:9]"
N        0.57756185       1.48328556       0.78169645
C        0.25606172       0.31223417       0.07404319
C       -1.17149982       0.06320901      -0.36554445
C       -0.79745159      -1.29638888       0.03267939
O        0.06383776      -1.91645644      -0.71262687
C        1.22916005      -0.53458654      -0.47951975
O        2.35066226      -0.73438047      -0.73389230
H        0.71898348       2.29886074       0.20415057
H        1.33936820       1.37239265       1.43253716
H       -1.88314857       0.53598809       0.30790658
H       -1.40882263       0.22014870      -1.41527418
H       -1.27471271      -1.80430658       0.87384422
12
Frame=9 idx=011611 GeodesicLength=0.2523350152477676 rxn_smarts="[N:1]([C@:2]12[C:3]([H:10])([H:11])[C@@:4]1([H:12])[O:5][C:6]2=[O:7])([H:8])[H:9]>>[N:1]([C:2]([C:3]([C:4](=[O:5])[H:12])([H:10])[H:11])=[C:6]=[O:7])([H:8])[H:9]"
N        0.57600944       1.48675091       0.78103809
C        0.25762755       0.30919912       0.07885805
C       -1.16858310       0.06332241      -0.36245395
C       -0.79814844      -1.29671778       0.04228930
O        0.07457617      -1.92115213      -0.69027663
C        1.23421045      -0.53181993      -0.48126994
O        2.35186530      -0.71621761      -0.76459800
H        0.73992587       2.29232404       0.19546343
H        1.32642638       1.37471734       1.44498526
H       -1.88347449       0.53566747       0.30823330
H       -1.40488474       0.21664541      -1.41287124
H       -1.30555039      -1.81271924       0.86060233
12
Frame=10 idx=011611 GeodesicLength=0.27931540937309585 rxn_smarts="[N:1]([C@:2]12[C:3]([H:10])([H:11])[C@@:4]1([H:12])[O:5][C:6]2=[O:7])([H:8])[H:9]>>[N:1]([C:2]([C:3]([C:4](=[O:5])[H:12])([H:10])[H:11])=[C:6]=[O:7])([H:8])[H:9]"
N        0.57465872       1.49030309       0.78017585
C        0.25934291       0.30635400       0.08342292
C       -1.16565619       0.06342107      -0.35912716
C       -0.79861205      -1.29696159       0.05226540
O        0.08550762      -1.92553641      -0.66744943
C        1.23926022      -0.52883698      -0.48350300
O        2.35240667      -0.69903729      -0.79411879
H        0.76024973       2.28583785       0.18738609
H        1.31399153       1.37746879       1.45652384
H       -1.88364665       0.53531831       0.30894166
H       -1.40127646       0.21300313      -1.41016990
H       -1.33622603      -1.82133397       0.84565250
12
Frame=11 idx=011611 GeodesicLength=0.3058908860340065 rxn_smarts="[N:1]([C@:2]12[C:3]([H:10])([H:11])[C@@:4]1([H:12])[O:5][C:6]2=[O:7])([H:8])[H:9]>>[N:1]([C:2]([C:3]([C:4](=[O:5])[H:12])([H:10])[H:11])=[C:6]=[O:7])([H:8])[H:9]"
N        0.57349157       1.49400580       0.77903449
C        0.26115618       0.30373297       0.08768249
C       -1.16276255       0.06350231      -0.35548959
C       -0.79884966      -1.29710953       0.06256702
O        0.09654218      -1.92953004      -0.64432197
C        1.24415962      -0.52557801      -0.48640727
O        2.35239630      -0.68299877      -0.82197853
H        0.78012744       2.27940798       0.17976294
H        1.30198028       1.38065138       1.46714995
H       -1.88362878       0.53489862       0.31019699
H       -1.39814099       0.20922696      -1.40704520
H       -1.36647157      -1.83020968       0.82884867
12
Frame=12 idx=011611 GeodesicLength=0.33230091020140406 rxn_smarts="[N:1]([C@:2]12[C:3]([H:10])([H:11])[C@@:4]1([H:12])[O:5][C:6]2=[O:7])([H:8])[H:9]>>[N:1]([C:2]([C:3]([C:4](=[O:5])[H:12])([H:10])[H:11])=[C:6]=[O:7])([H:8])[H:9]"
N        0.57249914       1.49781088       0.77770601
C        0.26309068       0.30128296       0.09177296
C       -1.15985592       0.06356602      -0.35160503
C       -0.79892299      -1.29717399       0.07338504
O        0.10777677      -1.93324271      -0.62046115
C        1.24900403      -0.52220774      -0.48960100
O        2.35179749      -0.66775793      -0.84919120
H        0.79957684       2.27303381       0.17261627
H        1.29030604       1.38418545       1.47710535
H       -1.88348464       0.53451118       0.31177106
H       -1.39525195       0.20525127      -1.40363186
H       -1.39653550      -1.83925920       0.81013355
12
Frame=13 idx=011611 GeodesicLength=0.35836786576481355 rxn_smarts="[N:1]([C@:2]12[C:3]([H:10])([H:11])[C@@:4]1([H:12])[O:5][C:6]2=[O:7])([H:8])[H:9]>>[N:1]([C:2]([C:3]([C:4](=[O:5])[H:12])([H:10])[H:11])=[C:6]=[O:7])([H:8])[H:9]"
N        0.57167629       1.50172031       0.77608824
C        0.26506415       0.29906453       0.09549605
C       -1.15710881       0.06365279      -0.34738062
C       -0.79886152      -1.29714456       0.08452069
O        0.11901610      -1.93647127      -0.59647648
C        1.25358640      -0.51856276      -0.49362680
O        2.35109459      -0.65389010      -0.87425958
H        0.81841678       2.26680230       0.16580981
H        1.27922862       1.38803390       1.48605075
H       -1.88326191       0.53405199       0.31400712
H       -1.39304891       0.20127114      -1.39975833
H       -1.42580179      -1.84852827       0.78952916
12
Frame=14 idx=011611 GeodesicLength=0.38410650120072276 rxn_smarts="[N:1]([C@:2]12[C:3]([H:10])([H:11])[C@@:4]1([H:12])[O:5][C:6]2=[O:7])([H:8])[H:9]>>[N:1]([C:2]([C:3]([C:4](=[O:5])[H:12])([H:10])[H:11])=[C:6]=[O:7])([H:8])[H:9]"
N        0.57100569       1.50571605       0.77423706
C        0.26706740       0.29704312       0.09892621
C       -1.15447428       0.06374969      -0.34284851
C       -0.79871073      -1.29701978       0.09605495
O        0.13027260      -1.93928182      -0.57214614
C        1.25788410      -0.51476414      -0.49826387
O        2.35022591      -0.64119481      -0.89774710
H        0.83668403       2.26069545       0.15936574
H        1.26865310       1.39216085       1.49413635
H       -1.88294053       0.53358370       0.31677543
H       -1.39138314       0.19720105      -1.39546710
H       -1.45428415      -1.85788937       0.76697698
12
Frame=15 idx=011611 GeodesicLength=0.40964339515540577 rxn_smarts="[N:1]([C@:2]12[C:3]([H:10])([H:11])[C@@:4]1([H:12])[O:5][C:6]2=[O:7])([H:8])[H:9]>>[N:1]([C:2]([C:3]([C:4](=[O:5])[H:12])([H:10])[H:11])=[C:6]=[O:7])([H:8])[H:9]"
N        0.57047218       1.50981148       0.77214650
C        0.26908416       0.29518040       0.10215300
C       -1.15197353       0.06385978      -0.33801080
C       -0.79854742      -1.29681918       0.10802094
O        0.14153380      -1.94167902      -0.54740351
C        1.26191108      -0.51088372      -0.50334615
O        2.34920552      -0.62953687      -0.91994888
H        0.85454917       2.25465583       0.15315927
H        1.25846819       1.39656795       1.50151380
H       -1.88258388       0.53311279       0.32004526
H       -1.39021188       0.19307090      -1.39078763
H       -1.48190740      -1.86734034       0.74245821
12
Frame=16 idx=011611 GeodesicLength=0.43501142175422125 rxn_smarts="[N:1]([C@:2]12[C:3]([H:10])([H:11])[C@@:4]1([H:12])[O:5][C:6]2=[O:7])([H:8])[H:9]>>[N:1]([C:2]([C:3]([C:4](=[O:5])[H:12])([H:10])[H:11])=[C:6]=[O:7])([H:8])[H:9]"
N        0.57004688       1.51399373       0.76985270
C        0.27110009       0.29344656       0.10523773
C       -1.14957515       0.06397490      -0.33291114
C       -0.79842660      -1.29653885       0.12045943
O        0.15280746      -1.94369787      -0.52207584
C        1.26566816      -0.50702189      -0.50867410
O        2.34788497      -0.61875240      -0.94136248
H        0.87214250       2.24862251       0.14720815
H        1.24850659       1.40122164       1.50835789
H       -1.88219467       0.53268020       0.32369461
H       -1.38940399       0.18882105      -1.38578283
H       -1.50855625      -1.87674959       0.71599588
