16
Frame=0 idx=006204 GeodesicLength=0.0 rxn_smarts="[C:1]([O:2][C:3]1([H:10])[C:4]([H:11])([H:12])[C:5]([H:13])([H:14])[C:6]1([H:15])[H:16])([H:7])([H:8])[H:9]>>[C:1]([O:2][C:3](=[C:6]([H:15])[H:16])[H:10])([H:7])([H:8])[H:9].[C:4](=[C:5]([H:13])[H:14])([H:11])[H:12]"
C        2.24990714       0.01862421       0.21629485
O        1.10535152      -0.74053998       0.60669381
C        0.09600212      -0.76933215      -0.21883547
C       -0.57587323       1.41487323      -0.12176474
C       -1.67009798       0.50918040      -0.00227828
C       -1.11032364      -1.40193364       0.12379859
H        2.00704138       1.07873605       0.27698594
H        2.54500561      -0.23938119      -0.80312315
H        3.03952015      -0.24799793       0.91305891
H        0.30744268      -0.56694895      -1.26411677
H       -0.26614711       1.96260730       0.75887941
H       -0.38934220       1.88134668      -1.08100675
H       -2.32905649       0.36523017      -0.85270763
H       -2.20180764       0.46444503       0.94161298
H       -1.23450478      -1.71867657       1.14970254
H       -1.57311756      -2.01023264      -0.64319428
16
Frame=1 idx=006204 GeodesicLength=0.05616859056951845 rxn_smarts="[C:1]([O:2][C:3]1([H:10])[C:4]([H:11])([H:12])[C:5]([H:13])([H:14])[C:6]1([H:15])[H:16])([H:7])([H:8])[H:9]>>[C:1]([O:2][C:3](=[C:6]([H:15])[H:16])[H:10])([H:7])([H:8])[H:9].[C:4](=[C:5]([H:13])[H:14])([H:11])[H:12]"
C        2.25718545       0.01107165       0.21717038
O        1.10906986      -0.73868908       0.61080616
C        0.09909856      -0.76373109      -0.22049266
C       -0.58582600       1.41756655      -0.12326155
C       -1.68521278       0.51835444       0.00111860
C       -1.10658100      -1.40252865       0.11769905
H        2.01783167       1.07360611       0.25056298
H        2.56467814      -0.27006712      -0.79270591
H        3.03920720      -0.23840600       0.92890541
H        0.31831003      -0.57515764      -1.26722734
H       -0.27074275       1.96231115       0.75787116
H       -0.41188289       1.89939413      -1.07765305
H       -2.34866489       0.38176857      -0.84709509
H       -2.20740122       0.47036728       0.95026698
H       -1.22647603      -1.72782300       1.14189625
H       -1.56259336      -2.01803731      -0.64786136
16
Frame=2 idx=006204 GeodesicLength=0.11203701113208522 rxn_smarts="[C:1]([O:2][C:3]1([H:10])[C:4]([H:11])([H:12])[C:5]([H:13])([H:14])[C:6]1([H:15])[H:16])([H:7])([H:8])[H:9]>>[C:1]([O:2][C:3](=[C:6]([H:15])[H:16])[H:10])([H:7])([H:8])[H:9].[C:4](=[C:5]([H:13])[H:14])([H:11])[H:12]"
C        2.26430132       0.00361993       0.21819657
O        1.11277189      -0.73696117       0.61481397
C        0.10227301      -0.75826601      -0.22239145
C       -0.59572237       1.42008766      -0.12505544
C       -1.70036609       0.52761776       0.00466851
C       -1.10280546      -1.40310168       0.11141983
H        2.02859603       1.06789000       0.22441888
H        2.58397916      -0.30024884      -0.78154911
H        3.03869620      -0.22834373       0.94426573
H        0.32948113      -0.58397087      -1.27038046
H       -0.27518099       1.96194270       0.75643653
H       -0.43435028       1.91729620      -1.07414675
H       -2.36860964       0.39868625      -0.84104861
H       -2.21273783       0.47649084       0.95910564
H       -1.21832428      -1.73691212       1.13384526
H       -1.55200182      -2.02582694      -0.65259909
16
Frame=3 idx=006204 GeodesicLength=0.16760665157373753 rxn_smarts="[C:1]([O:2][C:3]1([H:10])[C:4]([H:11])([H:12])[C:5]([H:13])([H:14])[C:6]1([H:15])[H:16])([H:7])([H:8])[H:9]>>[C:1]([O:2][C:3](=[C:6]([H:15])[H:16])[H:10])([H:7])([H:8])[H:9].[C:4](=[C:5]([H:13])[H:14])([H:11])[H:12]"
C        2.27125123      -0.00371227       0.21936413
O        1.11647280      -0.73538720       0.61870002
C        0.10552360      -0.75295800      -0.22452992
C       -0.60556101       1.42242376      -0.12714517
C       -1.71556087       0.53697350       0.00833499
C       -1.09900181      -1.40365939       0.10499795
H        2.03932526       1.06161815       0.19873726
H        2.60285791      -0.32973116      -0.76975267
H        3.03804049      -0.21793271       0.95903881
H        0.34094442      -0.59343231      -1.27355748
H       -0.27948857       1.96148195       0.75459307
H       -0.45666638       1.93502694      -1.07047655
H       -2.38884395       0.41597715      -0.83463174
H       -2.21786403       0.48283154       0.96806308
H       -1.21006335      -1.74588968       1.12560670
H       -1.54136572      -2.03363027      -0.65734249
16
Frame=4 idx=006204 GeodesicLength=0.22284405933333312 rxn_smarts="[C:1]([O:2][C:3]1([H:10])[C:4]([H:11])([H:12])[C:5]([H:13])([H:14])[C:6]1([H:15])[H:16])([H:7])([H:8])[H:9]>>[C:1]([O:2][C:3](=[C:6]([H:15])[H:16])[H:10])([H:7])([H:8])[H:9].[C:4](=[C:5]([H:13])[H:14])([H:11])[H:12]"
C        2.27803546      -0.01091467       0.22066107
O        1.12019395      -0.73399592       0.62244840
C        0.10885708      -0.74780880      -0.22690121
C       -0.61534787       1.42456157      -0.12952394
C       -1.73080659       0.54641723       0.01207394
C       -1.09516429      -1.40418874       0.09847216
H        2.05001011       1.05484051       0.17371840
H        2.62124777      -0.35833021      -0.75744904
H        3.03730717      -0.20733540       0.97313008
H        0.35268716      -0.60357720      -1.27673508
H       -0.28370881       1.96090385       0.75236212
H       -0.47875633       1.95254578      -1.06662829
H       -2.40931510       0.43361709      -0.82790788
H       -2.22284716       0.48939752       0.97705517
H       -1.20169871      -1.75467535       1.11723979
H       -1.53069385      -2.04145725      -0.66201569
16
Frame=5 idx=006204 GeodesicLength=0.27782013165533415 rxn_smarts="[C:1]([O:2][C:3]1([H:10])[C:4]([H:11])([H:12])[C:5]([H:13])([H:14])[C:6]1([H:15])[H:16])([H:7])([H:8])[H:9]>>[C:1]([O:2][C:3](=[C:6]([H:15])[H:16])[H:10])([H:7])([H:8])[H:9].[C:4](=[C:5]([H:13])[H:14])([H:11])[H:12]"
C        2.28466991      -0.01798819       0.22208010
O        1.12392258      -0.73276417       0.62606959
C        0.11227228      -0.74281828      -0.22951848
C       -0.62510949       1.42651651      -0.13218855
C       -1.74611462       0.55595630       0.01589418
C       -1.09129373      -1.40470921       0.09183350
H        2.06067181       1.04759623       0.14930857
H        2.63920745      -0.38610059      -0.74466531
H        3.03649093      -0.19655623       0.98659442
H        0.36471009      -0.61440435      -1.27990611
H       -0.28784339       1.96020281       0.74975998
H       -0.50063390       1.96988075      -1.06260069
H       -2.43003122       0.45162647      -0.82087002
H       -2.22769288       0.49618291       0.98609731
H       -1.19323877      -1.76329082       1.10874685
H       -1.51998705      -2.04933014      -0.66663533
16
Frame=6 idx=006204 GeodesicLength=0.3325038854644683 rxn_smarts="[C:1]([O:2][C:3]1([H:10])[C:4]([H:11])([H:12])[C:5]([H:13])([H:14])[C:6]1([H:15])[H:16])([H:7])([H:8])[H:9]>>[C:1]([O:2][C:3](=[C:6]([H:15])[H:16])[H:10])([H:7])([H:8])[H:9].[C:4](=[C:5]([H:13])[H:14])([H:11])[H:12]"
C        2.29116476      -0.02493604       0.22360773
O        1.12765407      -0.73166298       0.62954980
C        0.11576936      -0.73797948      -0.23238641
C       -0.63487438       1.42826866      -0.13513223
C       -1.76149803       0.56558981       0.01979121
C       -1.08738345      -1.40520880       0.08508292
H        2.07132177       1.03988130       0.12547978
H        2.65678420      -0.41305179      -0.73140847
H        3.03559111      -0.18560975       0.99943603
H        0.37701332      -0.62590173      -1.28303025
H       -0.29190450       1.95932688       0.74679595
H       -0.52230504       1.98701360      -1.05835971
H       -2.45099792       0.47002242      -0.81352161
H       -2.23241682       0.50318046       0.99516376
H       -1.18467878      -1.77170367       1.10011694
H       -1.50923964      -2.05722891      -0.67118544
16
Frame=7 idx=006204 GeodesicLength=0.3869358252912536 rxn_smarts="[C:1]([O:2][C:3]1([H:10])[C:4]([H:11])([H:12])[C:5]([H:13])([H:14])[C:6]1([H:15])[H:16])([H:7])([H:8])[H:9]>>[C:1]([O:2][C:3](=[C:6]([H:15])[H:16])[H:10])([H:7])([H:8])[H:9].[C:4](=[C:5]([H:13])[H:14])([H:11])[H:12]"
C        2.29752460      -0.03174712       0.22522965
O        1.13141334      -0.73073739       0.63288881
C        0.11935220      -0.73330105      -0.23550368
C       -0.64464114       1.42983201      -0.13833953
C       -1.77697082       0.57531752       0.02371099
C       -1.08343200      -1.40569922       0.07826830
H        2.08195317       1.03179364       0.10243111
H        2.67391015      -0.43900914      -0.71785991
H        3.03469157      -0.17466920       1.01157985
H        0.38957113      -0.63811645      -1.28609960
H       -0.29593554       1.95827776       0.74352331
H       -0.54366880       2.00394280      -1.05389789
H       -2.47215440       0.48878206      -0.80596509
H       -2.23711325       0.51039721       1.00417526
H       -1.17603099      -1.77985901       1.09144487
H       -1.49846922      -2.06520442      -0.67558644
16
Frame=8 idx=006204 GeodesicLength=0.44114169647239243 rxn_smarts="[C:1]([O:2][C:3]1([H:10])[C:4]([H:11])([H:12])[C:5]([H:13])([H:14])[C:6]1([H:15])[H:16])([H:7])([H:8])[H:9]>>[C:1]([O:2][C:3](=[C:6]([H:15])[H:16])[H:10])([H:7])([H:8])[H:9].[C:4](=[C:5]([H:13])[H:14])([H:11])[H:12]"
C        2.30376328      -0.03840854       0.22691808
O        1.13522104      -0.72999254       0.63605799
C        0.12304169      -0.72880853      -0.23882844
C       -0.65444455       1.43118860      -0.14179468
C       -1.79254832       0.58516639       0.02760271
C       -1.07942058      -1.40619809       0.07143767
H        2.09254508       1.02341154       0.08034820
H        2.69052359      -0.46382960      -0.70419119
H        3.03386336      -0.16394077       1.02296605
H        0.40237511      -0.65104861      -1.28906471
H       -0.29999992       1.95702160       0.73997723
H       -0.56469464       2.02064132      -1.04922974
H       -2.49343180       0.50794270      -0.79829357
H       -2.24183917       0.51786777       1.01305969
H       -1.16730566      -1.78770556       1.08280733
H       -1.48764850      -2.07330767      -0.67977262
16
Frame=9 idx=006204 GeodesicLength=0.49498154884525947 rxn_smarts="[C:1]([O:2][C:3]1([H:10])[C:4]([H:11])([H:12])[C:5]([H:13])([H:14])[C:6]1([H:15])[H:16])([H:7])([H:8])[H:9]>>[C:1]([O:2][C:3](=[C:6]([H:15])[H:16])[H:10])([H:7])([H:8])[H:9].[C:4](=[C:5]([H:13])[H:14])([H:11])[H:12]"
C        2.30989050      -0.04494314       0.22869142
O        1.13902826      -0.72934268       0.63909233
C        0.12681170      -0.72441125      -0.24244652
C       -0.66430143       1.43234460      -0.14549058
C       -1.80823324       0.59507709       0.03154978
C       -1.07536723      -1.40664289       0.06449598
H        2.10315138       1.01470578       0.05886550
H        2.70681183      -0.48783766      -0.69022869
H        3.03300635      -0.15317629       1.03379398
H        0.41543430      -0.66465345      -1.29194529
H       -0.30403363       1.95551688       0.73611881
H       -0.58542530       2.03708401      -1.04431089
H       -2.51491211       0.52744543      -0.79030837
H       -2.24654540       0.52549326       1.02189077
H       -1.15850582      -1.79525161       1.07406997
H       -1.47681016      -2.08140807      -0.68383820
16
Frame=10 idx=006204 GeodesicLength=0.5487033873873893 rxn_smarts="[C:1]([O:2][C:3]1([H:10])[C:4]([H:11])([H:12])[C:5]([H:13])([H:14])[C:6]1([H:15])[H:16])([H:7])([H:8])[H:9]>>[C:1]([O:2][C:3](=[C:6]([H:15])[H:16])[H:10])([H:7])([H:8])[H:9].[C:4](=[C:5]([H:13])[H:14])([H:11])[H:12]"
C        2.31592229      -0.05135440       0.23052712
O        1.14285371      -0.72881181       0.64199847
C        0.13068532      -0.72016502      -0.24633471
C       -0.67424758       1.43334009      -0.14942062
C       -1.82405171       0.60510030       0.03550811
C       -1.07124515      -1.40710606       0.05748551
H        2.11376909       1.00574890       0.03806993
H        2.72274819      -0.51098497      -0.67610334
H        3.03217318      -0.14250293       1.04404264
H        0.42874199      -0.67896204      -1.29472205
H       -0.30808795       1.95379714       0.73202531
H       -0.60586374       2.05336639      -1.03915873
H       -2.53657433       0.54737359      -0.78214128
H       -2.25129196       0.53332508       1.03065120
H       -1.14961522      -1.80253718       1.06532493
H       -1.46591612      -2.08962708      -0.68775248
16
Frame=11 idx=006204 GeodesicLength=0.6021427115012775 rxn_smarts="[C:1]([O:2][C:3]1([H:10])[C:4]([H:11])([H:12])[C:5]([H:13])([H:14])[C:6]1([H:15])[H:16])([H:7])([H:8])[H:9]>>[C:1]([O:2][C:3](=[C:6]([H:15])[H:16])[H:10])([H:7])([H:8])[H:9].[C:4](=[C:5]([H:13])[H:14])([H:11])[H:12]"
C        2.32187264      -0.05762470       0.23238369
O        1.14670415      -0.72835650       0.64473280
C        0.13466599      -0.71606668      -0.25045937
C       -0.68429621       1.43409655      -0.15355012
C       -1.84001793       0.61523039       0.03942414
C       -1.06705248      -1.40755742       0.05044558
H        2.12440556       0.99654094       0.01802560
H        2.73831309      -0.53316337      -0.66189989
H        3.03140206      -0.13200277       1.05363676
H        0.44227793      -0.69393386      -1.29729633
H       -0.31219452       1.95171802       0.72772319
H       -0.62595704       2.06940128      -1.03368569
H       -2.55836517       0.56776091      -0.77387654
H       -2.25614947       0.54136598       1.03922587
H       -1.14064713      -1.80946673       1.05659896
H       -1.45496149      -2.09794203      -0.69142865
16
Frame=12 idx=006204 GeodesicLength=0.6554394039194706 rxn_smarts="[C:1]([O:2][C:3]1([H:10])[C:4]([H:11])([H:12])[C:5]([H:13])([H:14])[C:6]1([H:15])[H:16])([H:7])([H:8])[H:9]>>[C:1]([O:2][C:3](=[C:6]([H:15])[H:16])[H:10])([H:7])([H:8])[H:9].[C:4](=[C:5]([H:13])[H:14])([H:11])[H:12]"
C        2.32774258      -0.06378476       0.23431521
O        1.15052596      -0.72793085       0.64735721
C        0.13875902      -0.71207811      -0.25490698
C       -0.69448259       1.43469209      -0.15792956
C       -1.85612972       0.62545975       0.04341761
C       -1.06278076      -1.40801363       0.04325925
H        2.13509896       0.98709322      -0.00155607
H        2.75364147      -0.55471988      -0.64743735
H        3.03058070      -0.12148058       1.06281901
H        0.45608183      -0.70956591      -1.29974027
H       -0.31628685       1.94939357       0.72313346
H       -0.64583016       2.08524353      -1.02800161
H       -2.58041163       0.58860815      -0.76526442
H       -2.26098450       0.54956997       1.04781323
H       -1.13158512      -1.81617156       1.04777181
H       -1.44393917      -2.10631497      -0.69505055
16
Frame=13 idx=006204 GeodesicLength=0.7086269826614188 rxn_smarts="[C:1]([O:2][C:3]1([H:10])[C:4]([H:11])([H:12])[C:5]([H:13])([H:14])[C:6]1([H:15])[H:16])([H:7])([H:8])[H:9]>>[C:1]([O:2][C:3](=[C:6]([H:15])[H:16])[H:10])([H:7])([H:8])[H:9].[C:4](=[C:5]([H:13])[H:14])([H:11])[H:12]"
C        2.33352683      -0.06983682       0.23635549
O        1.15425707      -0.72745305       0.64989110
C        0.14297095      -0.70819790      -0.25971998
C       -0.70484419       1.43512655      -0.16261451
C       -1.87237478       0.63579878       0.04759893
C       -1.05842769      -1.40849105       0.03582600
H        2.14588823       0.97734912      -0.02091988
H        2.76884497      -0.57588724      -0.63250531
H        3.02957448      -0.11074852       1.07175541
H        0.47020332      -0.72581931      -1.30204834
H       -0.32029306       1.94684541       0.71813980
H       -0.66561227       2.10086739      -1.02218288
H       -2.60281826       0.60998367      -0.75607696
H       -2.26562654       0.55792118       1.05658134
H       -1.12242865      -1.82275958       1.03870352
H       -1.43284041      -2.11469863      -0.69878372
16
Frame=14 idx=006204 GeodesicLength=0.7616000444306271 rxn_smarts="[C:1]([O:2][C:3]1([H:10])[C:4]([H:11])([H:12])[C:5]([H:13])([H:14])[C:6]1([H:15])[H:16])([H:7])([H:8])[H:9]>>[C:1]([O:2][C:3](=[C:6]([H:15])[H:16])[H:10])([H:7])([H:8])[H:9].[C:4](=[C:5]([H:13])[H:14])([H:11])[H:12]"
C        2.33921455      -0.07578093       0.23855252
O        1.15783664      -0.72683722       0.65234037
C        0.14731260      -0.70439111      -0.26494974
C       -0.71541302       1.43535374      -0.16766645
C       -1.88873101       0.64623582       0.05208906
C       -1.05398985      -1.40895421       0.02802925
H        2.15680781       0.96722780      -0.04022081
H        2.78398982      -0.59683192      -0.61687807
H        3.02826746      -0.09964412       1.08056091
H        0.48468967      -0.74265576      -1.30417735
H       -0.32414197       1.94405383       0.71256423
H       -0.68542142       2.11614463      -1.01632133
H       -2.62568950       0.63192760      -0.74601805
H       -2.26989264       0.56640649       1.06566567
H       -1.11317359      -1.82928705       1.02921883
H       -1.42166553      -2.12296759      -0.70278902
16
Frame=15 idx=006204 GeodesicLength=0.8145205318317859 rxn_smarts="[C:1]([O:2][C:3]1([H:10])[C:4]([H:11])([H:12])[C:5]([H:13])([H:14])[C:6]1([H:15])[H:16])([H:7])([H:8])[H:9]>>[C:1]([O:2][C:3](=[C:6]([H:15])[H:16])[H:10])([H:7])([H:8])[H:9].[C:4](=[C:5]([H:13])[H:14])([H:11])[H:12]"
C        2.34480430      -0.08161082       0.24089938
O        1.16126810      -0.72611195       0.65471461
C        0.15178836      -0.70069470      -0.27061004
C       -0.72620158       1.43542177      -0.17308110
C       -1.90520541       0.65678935       0.05687427
C       -1.04946434      -1.40945966       0.01988827
H        2.16786274       0.95678526      -0.05941211
H        2.79905397      -0.61751252      -0.60062642
H        3.02667430      -0.08821258       1.08923504
H        0.49953303      -0.76010760      -1.30615973
H       -0.32785440       1.94107406       0.70646001
H       -0.70520958       2.13114243      -1.01044251
H       -2.64898711       0.65446508      -0.73513594
H       -2.27381748       0.57503680       1.07506991
H       -1.10382613      -1.83578320       1.01938448
H       -1.41041876      -2.13122170      -0.70705812
16
Frame=16 idx=006204 GeodesicLength=0.8672356213697432 rxn_smarts="[C:1]([O:2][C:3]1([H:10])[C:4]([H:11])([H:12])[C:5]([H:13])([H:14])[C:6]1([H:15])[H:16])([H:7])([H:8])[H:9]>>[C:1]([O:2][C:3](=[C:6]([H:15])[H:16])[H:10])([H:7])([H:8])[H:9].[C:4](=[C:5]([H:13])[H:14])([H:11])[H:12]"
C        2.35029299      -0.08731990       0.24338090
O        1.16455447      -0.72525098       0.65697665
C        0.15640343      -0.69709362      -0.27670221
C       -0.73722740       1.43526110      -0.17884127
C       -1.92180369       0.66744279       0.06193967
C       -1.04484467      -1.40995633       0.01140625
H        2.17905471       0.94598606      -0.07845423
H        2.81402203      -0.63786047      -0.58374425
H        3.02480044      -0.07647991       1.09770986
H        0.51472308      -0.77814485      -1.30791462
H       -0.33144933       1.93779516       0.69981271
H       -0.72493859       2.14575565      -1.00450579
H       -2.67267812       0.67761048      -0.72341353
H       -2.27742202       0.58379598       1.08471577
H       -1.09438496      -1.84215002       1.00918181
H       -1.39910237      -2.13939114      -0.71154771
