16
Frame=0 idx=004725 GeodesicLength=0.0 rxn_smarts="[C:1]([C:2]1([C:3]([H:10])([H:11])[H:12])[C:4]([H:13])([H:14])[C@:5]1([O:6][H:16])[H:15])([H:7])([H:8])[H:9]>>[C:1]([H:7])([H:8])([H:9])[H:12].[C:2]1(=[C:3]([H:10])[H:11])[C:4]([H:13])([H:14])[C@:5]1([O:6][H:16])[H:15]"
C       -0.92793349      -0.42844214      -1.36080799
C        0.50219158      -0.02710751       0.03396366
C        1.71316837      -0.73796680      -0.16048774
C        0.24713680       1.39994560       0.36402316
C       -0.24244704       0.32178689       1.29019495
O       -1.61677211       0.23320561       1.45420209
H       -0.93834283      -1.45755547      -1.73803042
H       -1.82280000      -0.23292342      -0.77971366
H       -0.78763630       0.28632062      -2.16897338
H        1.85651638      -1.69589737       0.31934089
H        2.52438542      -0.27881309      -0.70683812
H        0.41666962      -0.77132319      -0.97743594
H        1.10474776       2.00226992       0.63261546
H       -0.54243538       1.91595902      -0.16561200
H        0.34163419       0.11490049       2.18289726
H       -1.82808298      -0.64435916       1.78066176
16
Frame=1 idx=004725 GeodesicLength=0.10757044136670099 rxn_smarts="[C:1]([C:2]1([C:3]([H:10])([H:11])[H:12])[C:4]([H:13])([H:14])[C@:5]1([O:6][H:16])[H:15])([H:7])([H:8])[H:9]>>[C:1]([H:7])([H:8])([H:9])[H:12].[C:2]1(=[C:3]([H:10])[H:11])[C:4]([H:13])([H:14])[C@:5]1([O:6][H:16])[H:15]"
C       -0.93044708      -0.43073035      -1.37140319
C        0.49957658      -0.02502780       0.03656322
C        1.70978519      -0.73584658      -0.16122767
C        0.25082862       1.40189117       0.37283153
C       -0.23760679       0.32145278       1.29689545
O       -1.61226381       0.23083827       1.46188387
H       -0.96534650      -1.46369879      -1.73564239
H       -1.82354426      -0.21655991      -0.79341055
H       -0.79244574       0.27383707      -2.18913550
H        1.86636705      -1.67703002       0.34729459
H        2.51904005      -0.27709660      -0.71159194
H        0.42312980      -0.79081836      -1.00366242
H        1.10845819       2.00286625       0.64472318
H       -0.53765340       1.92081241      -0.15584943
H        0.34554269       0.11824866       2.19117713
H       -1.82342058      -0.65313821       1.77055412
16
Frame=2 idx=004725 GeodesicLength=0.2147047073476353 rxn_smarts="[C:1]([C:2]1([C:3]([H:10])([H:11])[H:12])[C:4]([H:13])([H:14])[C@:5]1([O:6][H:16])[H:15])([H:7])([H:8])[H:9]>>[C:1]([H:7])([H:8])([H:9])[H:12].[C:2]1(=[C:3]([H:10])[H:11])[C:4]([H:13])([H:14])[C@:5]1([O:6][H:16])[H:15]"
C       -0.93258920      -0.43327651      -1.38198794
C        0.49691101      -0.02271373       0.03957735
C        1.70591702      -0.73398674      -0.16236531
C        0.25451179       1.40398584       0.38202123
C       -0.23285712       0.32125039       1.30391594
O       -1.60787497       0.22850276       1.46960361
H       -0.99251656      -1.46945504      -1.73289690
H       -1.82363931      -0.20007907      -0.80741401
H       -0.79711943       0.26066175      -2.20946266
H        1.87641463      -1.65721629       0.37438791
H        2.51328264      -0.27534269      -0.71638929
H        0.42975817      -0.81154558      -1.03042253
H        1.11226517       2.00346686       0.65715552
H       -0.53281533       1.92575081      -0.14585207
H        0.34929970       0.12149603       2.19974496
H       -1.81894819      -0.66149881       1.76038417
16
Frame=3 idx=004725 GeodesicLength=0.32154691847895306 rxn_smarts="[C:1]([C:2]1([C:3]([H:10])([H:11])[H:12])[C:4]([H:13])([H:14])[C@:5]1([O:6][H:16])[H:15])([H:7])([H:8])[H:9]>>[C:1]([H:7])([H:8])([H:9])[H:12].[C:2]1(=[C:3]([H:10])[H:11])[C:4]([H:13])([H:14])[C@:5]1([O:6][H:16])[H:15]"
C       -0.93429799      -0.43610656      -1.39255761
C        0.49419241      -0.02012568       0.04305628
C        1.70149848      -0.73240693      -0.16392864
C        0.25817632       1.40626326       0.39163426
C       -0.22821606       0.32121123       1.31129288
O       -1.60362628       0.22622082       1.47736936
H       -1.01979848      -1.47479568      -1.72981355
H       -1.82301559      -0.18352538      -0.82174322
H       -0.80163586       0.24678056      -2.22992408
H        1.88665404      -1.63644193       0.40053323
H        2.50704013      -0.27356955      -0.72127888
H        0.43656973      -0.83362704      -1.05780033
H        1.11617216       2.00409006       0.66994428
H       -0.52792501       1.93079607      -0.13559938
H        0.35288718       0.12465433       2.20863449
H       -1.81467518      -0.66941758       1.75018090
16
Frame=4 idx=004725 GeodesicLength=0.42824294866251134 rxn_smarts="[C:1]([C:2]1([C:3]([H:10])([H:11])[H:12])[C:4]([H:13])([H:14])[C@:5]1([O:6][H:16])[H:15])([H:7])([H:8])[H:9]>>[C:1]([H:7])([H:8])([H:9])[H:12].[C:2]1(=[C:3]([H:10])[H:11])[C:4]([H:13])([H:14])[C@:5]1([O:6][H:16])[H:15]"
C       -0.93550246      -0.43925322      -1.40310505
C        0.49141870      -0.01721684       0.04705689
C        1.69645101      -0.73113044      -0.16595059
C        0.26181102       1.40876307       0.40171998
C       -0.22370326       0.32137160       1.31906876
O       -1.59954000       0.22401770       1.48519258
H       -1.04713302      -1.47968777      -1.72641077
H       -1.82159419      -0.16694225      -0.83641954
H       -0.80596050       0.23217214      -2.25048664
H        1.89707887      -1.61468451       0.42562760
H        2.50022249      -0.27179795      -0.72632003
H        0.44357996      -0.85720662      -1.08588699
H        1.12018295       2.00475832       0.68312758
H       -0.52298728       1.93597425      -0.12506682
H        0.35628610       0.12773540       2.21788447
H       -1.81061038      -0.67687287       1.73996857
16
Frame=5 idx=004725 GeodesicLength=0.5349967423955748 rxn_smarts="[C:1]([C:2]1([C:3]([H:10])([H:11])[H:12])[C:4]([H:13])([H:14])[C@:5]1([O:6][H:16])[H:15])([H:7])([H:8])[H:9]>>[C:1]([H:7])([H:8])([H:9])[H:12].[C:2]1(=[C:3]([H:10])[H:11])[C:4]([H:13])([H:14])[C@:5]1([O:6][H:16])[H:15]"
C       -0.93610600      -0.44276313      -1.41361589
C        0.48858978      -0.01392533       0.05165605
C        1.69066596      -0.73018643      -0.16848248
C        0.26539965       1.41153847       0.41233992
C       -0.21934249       0.32178167       1.32730020
O       -1.59564231       0.22192330       1.49308888
H       -1.07443187      -1.48410761      -1.72271849
H       -1.81927587      -0.15039258      -0.85145980
H       -0.81005152       0.21681209      -2.27110379
H        1.90765256      -1.59193315       0.44953705
H        2.49271922      -0.27006628      -0.73157732
H        0.45082225      -0.88243014      -1.11482512
H        1.12429891       2.00550650       0.69675202
H       -0.51801123       1.94131643      -0.11422607
H        0.35947477       0.13075999       2.22754581
H       -1.80676180      -0.68383380       1.72978905
16
Frame=6 idx=004725 GeodesicLength=0.6418219538288732 rxn_smarts="[C:1]([C:2]1([C:3]([H:10])([H:11])[H:12])[C:4]([H:13])([H:14])[C@:5]1([O:6][H:16])[H:15])([H:7])([H:8])[H:9]>>[C:1]([H:7])([H:8])([H:9])[H:12].[C:2]1(=[C:3]([H:10])[H:11])[C:4]([H:13])([H:14])[C@:5]1([O:6][H:16])[H:15]"
C       -0.93603048      -0.44667744      -1.42408375
C        0.48570334      -0.01019224       0.05690996
C        1.68404947      -0.72959652      -0.17155339
C        0.26892903       1.41463942       0.42355085
C       -0.21515293       0.32248375       1.33603311
O       -1.59195418       0.21996850       1.50107530
H       -1.10160692      -1.48803194      -1.71876496
H       -1.81597358      -0.13393283      -0.86688509
H       -0.81386492       0.20067686      -2.29174091
H        1.91834354      -1.56818731       0.47211781
H        2.48442233      -0.26839605      -0.73711536
H        0.45831193      -0.90944294      -1.14469190
H        1.12852290       2.00636492       0.71086342
H       -0.51300364       1.94685776      -0.10304518
H        0.36243700       0.13374130       2.23765858
H       -1.80313289      -0.69027522       1.71967151
16
Frame=7 idx=004725 GeodesicLength=0.7488039594860649 rxn_smarts="[C:1]([C:2]1([C:3]([H:10])([H:11])[H:12])[C:4]([H:13])([H:14])[C@:5]1([O:6][H:16])[H:15])([H:7])([H:8])[H:9]>>[C:1]([H:7])([H:8])([H:9])[H:12].[C:2]1(=[C:3]([H:10])[H:11])[C:4]([H:13])([H:14])[C@:5]1([O:6][H:16])[H:15]"
C       -0.93517525      -0.45105161      -1.43449078
C        0.48275981      -0.00594414       0.06289320
C        1.67647551      -0.72938624      -0.17521021
C        0.27237998       1.41812916       0.43541753
C       -0.21115676       0.32353490       1.34532520
O       -1.58849755       0.21818977       1.50917413
H       -1.12854717      -1.49144965      -1.71458776
H       -1.81158102      -0.11764436      -0.88270314
H       -0.81735791       0.18374162      -2.31234650
H        1.92908106      -1.54347864       0.49319091
H        2.47521629      -0.26682766      -0.74298257
H        0.46609925      -0.93837275      -1.17563513
H        1.13285188       2.00737818       0.72551119
H       -0.50797924       1.95263764      -0.09148979
H        0.36515458       0.13670669       2.24827298
H       -1.79972346      -0.69616290       1.70966074
16
Frame=8 idx=004725 GeodesicLength=0.8559827166697445 rxn_smarts="[C:1]([C:2]1([C:3]([H:10])([H:11])[H:12])[C:4]([H:13])([H:14])[C@:5]1([O:6][H:16])[H:15])([H:7])([H:8])[H:9]>>[C:1]([H:7])([H:8])([H:9])[H:12].[C:2]1(=[C:3]([H:10])[H:11])[C:4]([H:13])([H:14])[C@:5]1([O:6][H:16])[H:15]"
C       -0.93342977      -0.45594826      -1.44481493
C        0.47976154      -0.00108931       0.06968174
C        1.66780631      -0.72958369      -0.17949436
C        0.27573040       1.42208706       0.44801148
C       -0.20737866       0.32500286       1.35523581
O       -1.58529528       0.21662929       1.51740811
H       -1.15510418      -1.49434949      -1.71023044
H       -1.80598099      -0.10162578      -0.89891189
H       -0.82047235       0.16598382      -2.33286094
H        1.93977209      -1.51786827       0.51252965
H        2.46495426      -0.26540210      -0.74925539
H        0.47423468      -0.96937484      -1.20777329
H        1.13727897       2.00860532       0.74075713
H       -0.50295218       1.95870706      -0.07951945
H        0.36760598       0.13968782       2.25944289
H       -1.79653080      -0.70146149       1.69979389
16
Frame=9 idx=004725 GeodesicLength=0.963824178751741 rxn_smarts="[C:1]([C:2]1([C:3]([H:10])([H:11])[H:12])[C:4]([H:13])([H:14])[C@:5]1([O:6][H:16])[H:15])([H:7])([H:8])[H:9]>>[C:1]([H:7])([H:8])([H:9])[H:12].[C:2]1(=[C:3]([H:10])[H:11])[C:4]([H:13])([H:14])[C@:5]1([O:6][H:16])[H:15]"
C       -0.93062301      -0.46144731      -1.45504796
C        0.47678115       0.00442291       0.07740742
C        1.65778221      -0.73012698      -0.18447194
C        0.27897681       1.42655997       0.46143724
C       -0.20381537       0.32692416       1.36586124
O       -1.58234142       0.21530900       1.52582235
H       -1.18122884      -1.49680002      -1.70568300
H       -1.79895991      -0.08584704      -0.91550520
H       -0.82306801       0.14728317      -2.35326075
H        1.95010285      -1.49128040       0.53001557
H        2.45340338      -0.26411629      -0.75602814
H        0.48283806      -1.00262797      -1.24153836
H        1.14179225       2.01010700       0.75668835
H       -0.49792614       1.96509392      -0.06708210
H        0.36980385       0.14270487       2.27124071
H       -1.79351785      -0.70615899       1.69014456
16
Frame=10 idx=004725 GeodesicLength=1.0716873126085242 rxn_smarts="[C:1]([C:2]1([C:3]([H:10])([H:11])[H:12])[C:4]([H:13])([H:14])[C@:5]1([O:6][H:16])[H:15])([H:7])([H:8])[H:9]>>[C:1]([H:7])([H:8])([H:9])[H:12].[C:2]1(=[C:3]([H:10])[H:11])[C:4]([H:13])([H:14])[C@:5]1([O:6][H:16])[H:15]"
C       -0.92670706      -0.46759994      -1.46517819
C        0.47376683       0.01070678       0.08608652
C        1.64634722      -0.73109725      -0.19013357
C        0.28208440       1.43164710       0.47572700
C       -0.20050208       0.32938975       1.37722685
O       -1.57966890       0.21429602       1.53443572
H       -1.20661922      -1.49876582      -1.70104293
H       -1.79049625      -0.07056691      -0.93248346
H       -0.82517879       0.12772117      -2.37346282
H        1.96009143      -1.46397672       0.54530018
H        2.44049294      -0.26308270      -0.76333526
H        0.49190751      -1.03809667      -1.27676379
H        1.14638588       2.01194392       0.77332953
H       -0.49293154       1.97186644      -0.05414678
H        0.37171955       0.14580972       2.28369565
H       -1.79069192      -0.71019490       1.68074535
16
Frame=11 idx=004725 GeodesicLength=1.1794654681852026 rxn_smarts="[C:1]([C:2]1([C:3]([H:10])([H:11])[H:12])[C:4]([H:13])([H:14])[C@:5]1([O:6][H:16])[H:15])([H:7])([H:8])[H:9]>>[C:1]([H:7])([H:8])([H:9])[H:12].[C:2]1(=[C:3]([H:10])[H:11])[C:4]([H:13])([H:14])[C@:5]1([O:6][H:16])[H:15]"
C       -0.92158909      -0.47446853      -1.47521642
C        0.47073494       0.01783130       0.09578288
C        1.63334864      -0.73248358      -0.19647752
C        0.28503617       1.43741114       0.49093392
C       -0.19744190       0.33245764       1.38938876
O       -1.57727801       0.21363258       1.54329286
H       -1.23106950      -1.50029943      -1.69635677
H       -1.78049489      -0.05590521      -0.94983408
H       -0.82676662       0.10728390      -2.39342811
H        1.96951595      -1.43612477       0.55816928
H        2.42609143      -0.26235951      -0.77120607
H        0.50151137      -1.07573157      -1.31361563
H        1.15104575       2.01418157       0.79071584
H       -0.48799615       1.97906477      -0.04068113
H        0.37336834       0.14904693       2.29685102
H       -1.78801642      -0.71353724       1.67168118
16
Frame=12 idx=004725 GeodesicLength=1.2870427794939796 rxn_smarts="[C:1]([C:2]1([C:3]([H:10])([H:11])[H:12])[C:4]([H:13])([H:14])[C@:5]1([O:6][H:16])[H:15])([H:7])([H:8])[H:9]>>[C:1]([H:7])([H:8])([H:9])[H:12].[C:2]1(=[C:3]([H:10])[H:11])[C:4]([H:13])([H:14])[C@:5]1([O:6][H:16])[H:15]"
C       -0.91520046      -0.48211301      -1.48516593
C        0.46769366       0.02586471       0.10653533
C        1.61864894      -0.73426910      -0.20349525
C        0.28781577       1.44391508       0.50709807
C       -0.19463475       0.33618362       1.40238640
O       -1.57516179       0.21336676       1.55243740
H       -1.25438113      -1.50146141      -1.69167919
H       -1.76888465      -0.04199871      -0.96753135
H       -0.82781607       0.08597430      -2.41311398
H        1.97816099      -1.40794927       0.56841384
H        2.41009286      -0.26198243      -0.77964052
H        0.51174026      -1.11546055      -1.35222648
H        1.15575727       2.01688213       0.80887444
H       -0.48314237       1.98673526      -0.02664936
H        0.37476680       0.15246269       2.31073279
H       -1.78545532      -0.71615005       1.66302379
16
Frame=13 idx=004725 GeodesicLength=1.3943366148324468 rxn_smarts="[C:1]([C:2]1([C:3]([H:10])([H:11])[H:12])[C:4]([H:13])([H:14])[C@:5]1([O:6][H:16])[H:15])([H:7])([H:8])[H:9]>>[C:1]([H:7])([H:8])([H:9])[H:12].[C:2]1(=[C:3]([H:10])[H:11])[C:4]([H:13])([H:14])[C@:5]1([O:6][H:16])[H:15]"
C       -0.90748805      -0.49058937      -1.49503778
C        0.46466672       0.03486805       0.11837240
C        1.60211571      -0.73641457      -0.21115192
C        0.29040744       1.45121753       0.52424069
C       -0.19206796       0.34062064       1.41625012
O       -1.57329911       0.21353765       1.56191823
H       -1.27634030      -1.50233543      -1.68707338
H       -1.75561026      -0.02899199      -0.98552871
H       -0.82833206       0.06380744      -2.43247845
H        1.98574572      -1.37974568       0.57584720
H        2.39241090      -0.26200719      -0.78861579
H        0.52270603      -1.15711885      -1.39274279
H        1.16049355       2.02012329       0.82781597
H       -0.47840296       1.99491497      -0.01202979
H        0.37594890       0.15611893       2.32536167
H       -1.78295426      -0.71800541       1.65485233
16
Frame=14 idx=004725 GeodesicLength=1.5012718161272536 rxn_smarts="[C:1]([C:2]1([C:3]([H:10])([H:11])[H:12])[C:4]([H:13])([H:14])[C@:5]1([O:6][H:16])[H:15])([H:7])([H:8])[H:9]>>[C:1]([H:7])([H:8])([H:9])[H:12].[C:2]1(=[C:3]([H:10])[H:11])[C:4]([H:13])([H:14])[C@:5]1([O:6][H:16])[H:15]"
C       -0.89844322      -0.49993804      -1.50485217
C        0.46166253       0.04487854       0.13128432
C        1.58366690      -0.73887923      -0.21940106
C        0.29280146       1.45935695       0.54235657
C       -0.18971999       0.34580361       1.43098529
O       -1.57165747       0.21418278       1.57178482
H       -1.29677051      -1.50301417      -1.68259897
H       -1.74065853      -0.01701823      -1.00377240
H       -0.82834289       0.04081154      -2.45149600
H        1.99198912      -1.35184335       0.58036014
H        2.37301036      -0.26243985      -0.79807171
H        0.53452698      -1.20048163      -1.43526762
H        1.16523320       2.02396226       0.84752419
H       -0.47380625       2.00363506       0.00319255
H        0.37696286       0.16006592       2.34072963
H       -1.78045455      -0.71908215       1.64724242
16
Frame=15 idx=004725 GeodesicLength=1.6078731218369935 rxn_smarts="[C:1]([C:2]1([C:3]([H:10])([H:11])[H:12])[C:4]([H:13])([H:14])[C@:5]1([O:6][H:16])[H:15])([H:7])([H:8])[H:9]>>[C:1]([H:7])([H:8])([H:9])[H:12].[C:2]1(=[C:3]([H:10])[H:11])[C:4]([H:13])([H:14])[C@:5]1([O:6][H:16])[H:15]"
C       -0.88808452      -0.51019047      -1.51463500
C        0.45869994       0.05591418       0.14524389
C        1.56323419      -0.74160056      -0.22817457
C        0.29499349       1.46835717       0.56141719
C       -0.18755834       0.35175711       1.44658169
O       -1.57019258       0.21533228       1.58208596
H       -1.31550837      -1.50360387      -1.67831315
H       -1.72404666      -0.00620744      -1.02219352
H       -0.82790786       0.01702444      -2.47014240
H        1.99659330      -1.32461328       0.58189671
H        2.35189194      -0.26329123      -0.80791157
H        0.54733904      -1.24524740      -1.47992155
H        1.16995041       2.02845524       0.86796296
H       -0.46938008       2.01291428       0.01901728
H        0.37786755       0.16436324       2.35681795
H       -1.77789144      -0.71936369       1.64026812
16
Frame=16 idx=004725 GeodesicLength=1.7142341394613763 rxn_smarts="[C:1]([C:2]1([C:3]([H:10])([H:11])[H:12])[C:4]([H:13])([H:14])[C@:5]1([O:6][H:16])[H:15])([H:7])([H:8])[H:9]>>[C:1]([H:7])([H:8])([H:9])[H:12].[C:2]1(=[C:3]([H:10])[H:11])[C:4]([H:13])([H:14])[C@:5]1([O:6][H:16])[H:15]"
C       -0.87647091      -0.52136954      -1.52442013
C        0.45579604       0.06796560       0.16020065
C        1.54078549      -0.74450384      -0.23738969
C        0.29698759       1.47821995       0.58137131
C       -0.18554198       0.35848857       1.46301124
O       -1.56885199       0.21701050       1.59286849
H       -1.33242921      -1.50421529      -1.67427352
H       -1.70582911       0.00332997      -1.04072023
H       -0.82710319      -0.00750481      -2.48840531
H        1.99928686      -1.29842628       0.58048248
H        2.32908979      -0.26455676      -0.81802577
H        0.56127577      -1.29106238      -1.52679011
H        1.17462410       2.03364107       0.88907637
H       -0.46514561       2.02275767       0.03543222
H        0.37872990       0.16906515       2.37359196
H       -1.77520352      -0.71883959       1.63399005
