17
Frame=0 idx=009622 GeodesicLength=0.0 rxn_smarts="[C:1]1([H:8])([H:9])[C:2]([H:10])([H:11])[C:3]12[C:4]([H:12])([H:13])[C:5]([H:14])=[C:6]([H:15])[C:7]2([H:16])[H:17]>>[C:1]1([H:8])([H:9])[C:2]([H:10])([H:11])[C:3]12[C:4]([H:13])=[C:5]([H:14])[C:6]([H:15])=[C:7]2[H:17].[H:12][H:16]"
C       -1.31174788      -0.69671615       1.09633188
C       -1.89742326       0.10563047      -0.02991685
C       -0.41949793      -0.03328008       0.08082558
C        0.53293102       1.06326586       0.42301727
C        1.81786572       0.49365024       0.37861945
C        1.76204341      -0.64212860      -0.41115053
C        0.44201212      -0.79382825      -0.86864716
H       -1.40392213      -1.77419011       1.06012104
H       -1.33836031      -0.27540717       2.09212061
H       -2.33187894       1.06952771       0.20213685
H       -2.39025826      -0.43042395      -0.83160766
H        0.44817391       1.33899947      -1.10655640
H        0.26092275       1.91617629       1.03319663
H        2.72104300       0.96101309       0.74473167
H        2.61159668      -1.20982761      -0.76497730
H        0.41000850       0.55042106      -1.65649067
H        0.08649156      -1.64288234      -1.44175437
17
Frame=1 idx=009622 GeodesicLength=0.07473375287252541 rxn_smarts="[C:1]1([H:8])([H:9])[C:2]([H:10])([H:11])[C:3]12[C:4]([H:12])([H:13])[C:5]([H:14])=[C:6]([H:15])[C:7]2([H:16])[H:17]>>[C:1]1([H:8])([H:9])[C:2]([H:10])([H:11])[C:3]12[C:4]([H:13])=[C:5]([H:14])[C:6]([H:15])=[C:7]2[H:17].[H:12][H:16]"
C       -1.31598928      -0.69677543       1.09643923
C       -1.89467539       0.10743179      -0.03103575
C       -0.41620002      -0.03719870       0.08580515
C        0.53321030       1.06550422       0.42267688
C        1.81940435       0.49435903       0.37929531
C        1.76383703      -0.64217283      -0.41110258
C        0.44264145      -0.79489533      -0.87077413
H       -1.41133533      -1.77391760       1.05781576
H       -1.34475099      -0.27434547       2.09174122
H       -2.32576291       1.07354550       0.19805861
H       -2.38538523      -0.42508376      -0.83632272
H        0.44315520       1.35151831      -1.11276982
H        0.26207095       1.89851837       1.06056282
H        2.72345589       0.96637242       0.73752775
H        2.61531514      -1.20336754      -0.77088251
H        0.40271991       0.55335667      -1.68111174
H        0.08828894      -1.66284964      -1.41592350
17
Frame=2 idx=009622 GeodesicLength=0.14939567685348498 rxn_smarts="[C:1]1([H:8])([H:9])[C:2]([H:10])([H:11])[C:3]12[C:4]([H:12])([H:13])[C:5]([H:14])=[C:6]([H:15])[C:7]2([H:16])[H:17]>>[C:1]1([H:8])([H:9])[C:2]([H:10])([H:11])[C:3]12[C:4]([H:13])=[C:5]([H:14])[C:6]([H:15])=[C:7]2[H:17].[H:12][H:16]"
C       -1.32027168      -0.69684507       1.09658929
C       -1.89186600       0.10921834      -0.03212068
C       -0.41288077      -0.04117953       0.09092578
C        0.53344289       1.06774164       0.42247640
C        1.82091406       0.49502680       0.38007396
C        1.76560377      -0.64224358      -0.41097168
C        0.44321933      -0.79604160      -0.87282391
H       -1.41881186      -1.77363834       1.05553709
H       -1.35123094      -0.27329130       2.09139612
H       -2.31957976       1.07752144       0.19403464
H       -2.38040970      -0.41976488      -0.84098796
H        0.43802470       1.36419012      -1.11887893
H        0.26353728       1.88036607       1.08716389
H        2.72576531       0.97162599       0.73047996
H        2.61894589      -1.19684131      -0.77677313
H        0.39513571       0.55604372      -1.70619258
H        0.09046177      -1.68188852      -1.38992825
17
Frame=3 idx=009622 GeodesicLength=0.22400665474605333 rxn_smarts="[C:1]1([H:8])([H:9])[C:2]([H:10])([H:11])[C:3]12[C:4]([H:12])([H:13])[C:5]([H:14])=[C:6]([H:15])[C:7]2([H:16])[H:17]>>[C:1]1([H:8])([H:9])[C:2]([H:10])([H:11])[C:3]12[C:4]([H:13])=[C:5]([H:14])[C:6]([H:15])=[C:7]2[H:17].[H:12][H:16]"
C       -1.32459569      -0.69692979       1.09678624
C       -1.88899113       0.11098839      -0.03316601
C       -0.40953878      -0.04522713       0.09619744
C        0.53363464       1.06996284       0.42243878
C        1.82240181       0.49564673       0.38096851
C        1.76735057      -0.64234412      -0.41075019
C        0.44375160      -0.79727342      -0.87477723
H       -1.42635305      -1.77335639       1.05328388
H       -1.35780223      -0.27224958       2.09108933
H       -2.31332719       1.08145243       0.19007328
H       -2.37532875      -0.41446693      -0.84559846
H        0.43278816       1.37702544      -1.12485530
H        0.26530282       1.86179184       1.11295727
H        2.72797864       0.97677260       0.72359556
H        2.62249128      -1.19025372      -0.78264062
H        0.38724840       0.55844768      -1.73175440
H        0.09298893      -1.69998688      -1.36384808
17
Frame=4 idx=009622 GeodesicLength=0.29858967852326934 rxn_smarts="[C:1]1([H:8])([H:9])[C:2]([H:10])([H:11])[C:3]12[C:4]([H:12])([H:13])[C:5]([H:14])=[C:6]([H:15])[C:7]2([H:16])[H:17]>>[C:1]1([H:8])([H:9])[C:2]([H:10])([H:11])[C:3]12[C:4]([H:13])=[C:5]([H:14])[C:6]([H:15])=[C:7]2[H:17].[H:12][H:16]"
C       -1.32896036      -0.69703299       1.09703285
C       -1.88604671       0.11274064      -0.03416723
C       -0.40617256      -0.04934472       0.10162742
C        0.53379160       1.07215365       0.42258424
C        1.82387520       0.49621424       0.38198793
C        1.76908448      -0.64247662      -0.41043285
C        0.44424390      -0.79859602      -0.87661786
H       -1.43395778      -1.77307482       1.05105433
H       -1.36446502      -0.27122380       2.09082333
H       -2.30700315       1.08533588       0.18618160
H       -2.37013999      -0.40918966      -0.85014936
H        0.42745043       1.39003995      -1.13066970
H        0.26734711       1.84286865       1.13791487
H        2.73010143       0.98180742       0.71688662
H        2.62595381      -1.18361003      -0.78847771
H        0.37904826       0.56052890      -1.75782348
H        0.09584937      -1.71714067      -1.33775501
17
Frame=5 idx=009622 GeodesicLength=0.3731778355173658 rxn_smarts="[C:1]1([H:8])([H:9])[C:2]([H:10])([H:11])[C:3]12[C:4]([H:12])([H:13])[C:5]([H:14])=[C:6]([H:15])[C:7]2([H:16])[H:17]>>[C:1]1([H:8])([H:9])[C:2]([H:10])([H:11])[C:3]12[C:4]([H:13])=[C:5]([H:14])[C:6]([H:15])=[C:7]2[H:17].[H:12][H:16]"
C       -1.33336551      -0.69715680       1.09733069
C       -1.88302799       0.11447544      -0.03512148
C       -0.40278035      -0.05353454       0.10722280
C        0.53392046       1.07430144       0.42293183
C        1.82534162       0.49672573       0.38314087
C        1.77081286      -0.64264156      -0.41001562
C        0.44470288      -0.80001405      -0.87832887
H       -1.44162613      -1.77279512       1.04884546
H       -1.37122056      -0.27021638       2.09059943
H       -2.30060488       1.08917113       0.18236491
H       -2.36483966      -0.40393079      -0.85463811
H        0.42201672       1.40325404      -1.13629137
H        0.26964876       1.82365966       1.16202705
H        2.73214263       0.98673146       0.71036045
H        2.62933711      -1.17691293      -0.79427855
H        0.37052231       0.56224314      -1.78443520
H        0.09901973      -1.73335988      -1.31171428
17
Frame=6 idx=009622 GeodesicLength=0.44776914121129785 rxn_smarts="[C:1]1([H:8])([H:9])[C:2]([H:10])([H:11])[C:3]12[C:4]([H:12])([H:13])[C:5]([H:14])=[C:6]([H:15])[C:7]2([H:16])[H:17]>>[C:1]1([H:8])([H:9])[C:2]([H:10])([H:11])[C:3]12[C:4]([H:13])=[C:5]([H:14])[C:6]([H:15])=[C:7]2[H:17].[H:12][H:16]"
C       -1.33780894      -0.69730287       1.09767965
C       -1.87993098       0.11619317      -0.03602622
C       -0.39936077      -0.05779749       0.11298735
C        0.53402721       1.07639540       0.42349693
C        1.82680816       0.49717717       0.38443599
C        1.77254259      -0.64283919      -0.40949547
C        0.44513399      -0.80152861      -0.87989941
H       -1.44935479      -1.77251847       1.04665292
H       -1.37806653      -0.26922965       2.09041754
H       -2.29413046       1.09295723       0.17862883
H       -2.35942585      -0.39868857      -0.85906191
H        0.41649224       1.41668593      -1.14169580
H        0.27218839       1.80422856       1.18529060
H        2.73410738       0.99154107       0.70402913
H        2.63264364      -1.17016600      -0.80003731
H        0.36165499       0.56354984      -1.81162159
H        0.10247975      -1.74865751      -1.28578121
17
Frame=7 idx=009622 GeodesicLength=0.5223953015855641 rxn_smarts="[C:1]1([H:8])([H:9])[C:2]([H:10])([H:11])[C:3]12[C:4]([H:12])([H:13])[C:5]([H:14])=[C:6]([H:15])[C:7]2([H:16])[H:17]>>[C:1]1([H:8])([H:9])[C:2]([H:10])([H:11])[C:3]12[C:4]([H:13])=[C:5]([H:14])[C:6]([H:15])=[C:7]2[H:17].[H:12][H:16]"
C       -1.34228962      -0.69747168       1.09807773
C       -1.87675075       0.11789653      -0.03688103
C       -0.39591207      -0.06213338       0.11892444
C        0.53411874       1.07842558       0.42429699
C        1.82828191       0.49756586       0.38588158
C        1.77428096      -0.64306529      -0.40887368
C        0.44554380      -0.80313957      -0.88131870
H       -1.45714249      -1.77224474       1.04446989
H       -1.38500297      -0.26826564       2.09027596
H       -2.28757695       1.09669583       0.17497734
H       -2.35389504      -0.39345800      -0.86342069
H        0.41088272       1.43036499      -1.14685025
H        0.27494594       1.78463091       1.20771952
H        2.73600493       0.99623637       0.69790210
H        2.63587751      -1.16336808      -0.80575299
H        0.35242507       0.56438891      -1.83942856
H        0.10620831      -1.76305858      -1.25999965
17
Frame=8 idx=009622 GeodesicLength=0.5970535489148013 rxn_smarts="[C:1]1([H:8])([H:9])[C:2]([H:10])([H:11])[C:3]12[C:4]([H:12])([H:13])[C:5]([H:14])=[C:6]([H:15])[C:7]2([H:16])[H:17]>>[C:1]1([H:8])([H:9])[C:2]([H:10])([H:11])[C:3]12[C:4]([H:13])=[C:5]([H:14])[C:6]([H:15])=[C:7]2[H:17].[H:12][H:16]"
C       -1.34680508      -0.69766212       1.09852270
C       -1.87348292       0.11958824      -0.03768589
C       -0.39243262      -0.06654040       0.12503555
C        0.53420111       1.08038516       0.42534419
C        1.82976967       0.49789090       0.38748340
C        1.77603497      -0.64331694      -0.40815001
C        0.44593838      -0.80484614      -0.88257762
H       -1.46498553      -1.77197236       1.04229078
H       -1.39202777      -0.26732412       2.09017260
H       -2.28094200       1.10038861       0.17141339
H       -2.34824461      -0.38823523      -0.86771388
H        0.40519325       1.44431846      -1.15172955
H        0.27790499       1.76491067       1.22933312
H        2.73784052       1.00081477       0.69199409
H        2.63904256      -1.15651787      -0.81142364
H        0.34280776       0.56470738      -1.86789949
H        0.11018730      -1.77658900      -1.23440973
17
Frame=9 idx=009622 GeodesicLength=0.6719857863207802 rxn_smarts="[C:1]1([H:8])([H:9])[C:2]([H:10])([H:11])[C:3]12[C:4]([H:12])([H:13])[C:5]([H:14])=[C:6]([H:15])[C:7]2([H:16])[H:17]>>[C:1]1([H:8])([H:9])[C:2]([H:10])([H:11])[C:3]12[C:4]([H:13])=[C:5]([H:14])[C:6]([H:15])=[C:7]2[H:17].[H:12][H:16]"
C       -1.35135608      -0.69786287       1.09899363
C       -1.87011787       0.12128831      -0.03845744
C       -0.38891853      -0.07100603       0.13130903
C        0.53428651       1.08226389       0.42666179
C        1.83128632       0.49816295       0.38923566
C        1.77782116      -0.64356165      -0.40735761
C        0.44632751      -0.80663980      -0.88367191
H       -1.47289472      -1.77168824       1.04009005
H       -1.39915331      -0.26640243       2.09008889
H       -2.27421453       1.10405598       0.16792581
H       -2.34246747      -0.38299758      -0.87195887
H        0.39942320       1.45864450      -1.15626373
H        0.28105333       1.74506149       1.25027946
H        2.73962862       1.00528429       0.68631375
H        2.64215184      -1.14958244      -0.81708772
H        0.33273273       0.56431761      -1.89715745
H        0.11441128      -1.78933800      -1.20894335
17
Frame=10 idx=009622 GeodesicLength=0.7469721679171872 rxn_smarts="[C:1]1([H:8])([H:9])[C:2]([H:10])([H:11])[C:3]12[C:4]([H:12])([H:13])[C:5]([H:14])=[C:6]([H:15])[C:7]2([H:16])[H:17]>>[C:1]1([H:8])([H:9])[C:2]([H:10])([H:11])[C:3]12[C:4]([H:13])=[C:5]([H:14])[C:6]([H:15])=[C:7]2[H:17].[H:12][H:16]"
C       -1.35593721      -0.69807918       1.09949934
C       -1.86665382       0.12298899      -0.03918495
C       -0.38536927      -0.07553533       0.13775462
C        0.53437755       1.08406112       0.42824931
C        1.83283135       0.49837350       0.39115131
C        1.77963779      -0.64381475      -0.40647624
C        0.44671435      -0.80852069      -0.88459506
H       -1.48085389      -1.77139788       1.03787281
H       -1.40636512      -0.26550200       2.09003234
H       -2.26739792       1.10768795       0.16452813
H       -2.33656277      -0.37775149      -0.87614382
H        0.39358108       1.47332707      -1.16045417
H        0.28436733       1.72516324       1.27051147
H        2.74137248       1.00963523       0.68088293
H        2.64520139      -1.14258057      -0.82271608
H        0.32220403       0.56324123      -1.92720211
H        0.11885265      -1.80129644      -1.18370982
17
Frame=11 idx=009622 GeodesicLength=0.8220198158587612 rxn_smarts="[C:1]1([H:8])([H:9])[C:2]([H:10])([H:11])[C:3]12[C:4]([H:12])([H:13])[C:5]([H:14])=[C:6]([H:15])[C:7]2([H:16])[H:17]>>[C:1]1([H:8])([H:9])[C:2]([H:10])([H:11])[C:3]12[C:4]([H:13])=[C:5]([H:14])[C:6]([H:15])=[C:7]2[H:17].[H:12][H:16]"
C       -1.36054579      -0.69830756       1.10003303
C       -1.86308516       0.12469788      -0.03987102
C       -0.38178299      -0.08012321       0.14437083
C        0.53448042       1.08577376       0.43011934
C        1.83441112       0.49852579       0.39323261
C        1.78149173      -0.64406530      -0.40551404
C        0.44710393      -0.81048206      -0.88534386
H       -1.48886042      -1.77109684       1.03562750
H       -1.41366157      -0.26462278       2.08999700
H       -2.26048839       1.11129082       0.16122241
H       -2.33052700      -0.37248723      -0.88027171
H        0.38766914       1.48841297      -1.16426281
H        0.28783615       1.70524242       1.29007486
H        2.74307743       1.01386072       0.67572681
H        2.64819547      -1.13549932      -0.82831823
H        0.31118564       0.56138467      -1.95810376
H        0.12350028      -1.81250474      -1.15871896
17
Frame=12 idx=009622 GeodesicLength=0.8970988161710972 rxn_smarts="[C:1]1([H:8])([H:9])[C:2]([H:10])([H:11])[C:3]12[C:4]([H:12])([H:13])[C:5]([H:14])=[C:6]([H:15])[C:7]2([H:16])[H:17]>>[C:1]1([H:8])([H:9])[C:2]([H:10])([H:11])[C:3]12[C:4]([H:13])=[C:5]([H:14])[C:6]([H:15])=[C:7]2[H:17].[H:12][H:16]"
C       -1.36518022      -0.69854370       1.10058729
C       -1.85940592       0.12642295      -0.04051972
C       -0.37815750      -0.08476479       0.15115623
C        0.53460188       1.08739972       0.43228150
C        1.83603130       0.49861983       0.39548673
C        1.78338939      -0.64430434      -0.40447581
C        0.44750271      -0.81251796      -0.88591479
H       -1.49691227      -1.77077983       1.03334222
H       -1.42104276      -0.26376362       2.08997633
H       -2.25348117       1.11487214       0.15800905
H       -2.32435529      -0.36719420      -0.88434711
H        0.38169385       1.50394250      -1.16765831
H        0.29144801       1.68531768       1.30902593
H        2.74475155       1.01796039       0.67086255
H        2.65113862      -1.12832221      -0.83390573
H        0.29963489       0.55865924      -1.98992759
H        0.12834292      -1.82300380      -1.13397874
17
Frame=13 idx=009622 GeodesicLength=0.97218501649517 rxn_smarts="[C:1]1([H:8])([H:9])[C:2]([H:10])([H:11])[C:3]12[C:4]([H:12])([H:13])[C:5]([H:14])=[C:6]([H:15])[C:7]2([H:16])[H:17]>>[C:1]1([H:8])([H:9])[C:2]([H:10])([H:11])[C:3]12[C:4]([H:13])=[C:5]([H:14])[C:6]([H:15])=[C:7]2[H:17].[H:12][H:16]"
C       -1.36983802      -0.69878318       1.10115404
C       -1.85560994       0.12817313      -0.04113465
C       -0.37449037      -0.08945429       0.15810870
C        0.53474849       1.08893802       0.43474711
C        1.83769798       0.49865899       0.39791673
C        1.78533772      -0.64451918      -0.40337109
C        0.44791609      -0.81462069      -0.88630636
H       -1.50500728      -1.77044162       1.03100410
H       -1.42850782      -0.26292403       2.08996364
H       -2.24637126       1.11843995       0.15488963
H       -2.31804322      -0.36186029      -0.88837422
H        0.37565882       1.51996504      -1.17060304
H        0.29519374       1.66540255       1.32741703
H        2.74640010       1.02192703       0.66631746
H        2.65403561      -1.12103295      -0.83948973
H        0.28750572       0.55495865      -2.02274775
H        0.13337364      -1.83282712      -1.10949162
17
Frame=14 idx=009622 GeodesicLength=1.0472534061711358 rxn_smarts="[C:1]1([H:8])([H:9])[C:2]([H:10])([H:11])[C:3]12[C:4]([H:12])([H:13])[C:5]([H:14])=[C:6]([H:15])[C:7]2([H:16])[H:17]>>[C:1]1([H:8])([H:9])[C:2]([H:10])([H:11])[C:3]12[C:4]([H:13])=[C:5]([H:14])[C:6]([H:15])=[C:7]2[H:17].[H:12][H:16]"
C       -1.37451908      -0.69902078       1.10172296
C       -1.85169005       0.12996008      -0.04172163
C       -0.37077920      -0.09418545       0.16522642
C        0.53492760       1.09038715       0.43753079
C        1.83941713       0.49864318       0.40053242
C        1.78734370      -0.64469787      -0.40220595
C        0.44835071      -0.81678189      -0.88651615
H       -1.51314690      -1.77007545       1.02859638
H       -1.43605951      -0.26210406       2.08995016
H       -2.23915224       1.12200546       0.15186465
H       -2.31158473      -0.35646976      -0.89236051
H        0.36957168       1.53653380      -1.17305198
H        0.29906617       1.64550207       1.34531067
H        2.74803386       1.02576313       0.66210904
H        2.65689116      -1.11360521      -0.84508938
H        0.27474225       0.55015824      -2.05664340
H        0.13858744      -1.84201263      -1.08525450
17
Frame=15 idx=009622 GeodesicLength=1.1222736554133252 rxn_smarts="[C:1]1([H:8])([H:9])[C:2]([H:10])([H:11])[C:3]12[C:4]([H:12])([H:13])[C:5]([H:14])=[C:6]([H:15])[C:7]2([H:16])[H:17]>>[C:1]1([H:8])([H:9])[C:2]([H:10])([H:11])[C:3]12[C:4]([H:13])=[C:5]([H:14])[C:6]([H:15])=[C:7]2[H:17].[H:12][H:16]"
C       -1.37922218      -0.69925085       1.10228316
C       -1.84763860       0.13179655      -0.04228608
C       -0.36702106      -0.09895076       0.17250690
C        0.53514661       1.09174731       0.44064777
C        1.84119524       0.49857573       0.40334015
C        1.78941487      -0.64482409      -0.40099108
C        0.44881309      -0.81899247      -0.88654278
H       -1.52133139      -1.76967417       1.02610134
H       -1.44369973      -0.26130425       2.08992701
H       -2.23181713       1.12558057       0.14893590
H       -2.30497360      -0.35100545      -0.89631292
H        0.36343850       1.55370905      -1.17495644
H        0.30306044       1.62561594       1.36276634
H        2.74965994       1.02946397       0.65826594
H        2.65971046      -1.10601316      -0.85072202
H        0.26128202       0.54411512      -2.09169927
H        0.14398251      -1.85058902      -1.06126395
17
Frame=16 idx=009622 GeodesicLength=1.19720937608275 rxn_smarts="[C:1]1([H:8])([H:9])[C:2]([H:10])([H:11])[C:3]12[C:4]([H:12])([H:13])[C:5]([H:14])=[C:6]([H:15])[C:7]2([H:16])[H:17]>>[C:1]1([H:8])([H:9])[C:2]([H:10])([H:11])[C:3]12[C:4]([H:13])=[C:5]([H:14])[C:6]([H:15])=[C:7]2[H:17].[H:12][H:16]"
C       -1.38394743      -0.69946771       1.10282279
C       -1.84344704       0.13369676      -0.04283376
C       -0.36321287      -0.10374293       0.17994891
C        0.53541347       1.09301826       0.44411646
C        1.84303887       0.49845820       0.40635023
C        1.79155906      -0.64488158      -0.39973543
C        0.44931022      -0.82124188      -0.88638450
H       -1.52956325      -1.76923035       1.02349887
H       -1.45143256      -0.26052581       2.08988495
H       -2.22435758       1.12917897       0.14610542
H       -2.29820228      -0.34544717      -0.90023975
H        0.35726757       1.57155349      -1.17626253
H        0.30717310       1.60573900       1.37984169
H        2.75128792       1.03302692       0.65481715
H        2.66249812      -1.09822323      -0.85641108
H        0.24705562       0.53667281      -2.12800532
H        0.14955907      -1.85858375      -1.03751408
