14
Frame=0 idx=005321 GeodesicLength=0.0 rxn_smarts="[O:1]([C:2]([C:3]([C@@:4]1([H:12])[C:5]([H:13])([H:14])[O:6]1)([H:10])[H:11])([H:8])[H:9])[H:7]>>[C:3](=[C:4]([C:5]([O:6][H:7])([H:13])[H:14])[H:12])([H:10])[H:11].[O:1]=[C:2]([H:8])[H:9]"
O        1.35783465       1.06442817       0.65154882
C        1.61934864      -0.07022598       0.08610389
C        0.17604949      -1.15321191       0.16930023
C       -0.84565219      -0.45441147      -0.47750486
C       -1.56849356       0.68941139       0.10577601
O       -0.66570068       1.57427566      -0.50267628
H        0.33267725       1.48723442       0.05154817
H        1.80291649      -0.07202872      -0.99897044
H        2.32715562      -0.71853025       0.61637676
H        0.52848739      -2.04284756      -0.34427013
H        0.07223948      -1.25883645       1.24556424
H       -1.00328174      -0.59712966      -1.54151391
H       -1.54842195       0.71784715       1.19974844
H       -2.58515892       0.83402516      -0.26103089
14
Frame=1 idx=005321 GeodesicLength=0.0797811954085761 rxn_smarts="[O:1]([C:2]([C:3]([C@@:4]1([H:12])[C:5]([H:13])([H:14])[O:6]1)([H:10])[H:11])([H:8])[H:9])[H:7]>>[C:3](=[C:4]([C:5]([O:6][H:7])([H:13])[H:14])[H:12])([H:10])[H:11].[O:1]=[C:2]([H:8])[H:9]"
O        1.37795586       1.07210690       0.64375416
C        1.63549437      -0.06841741       0.08674943
C        0.16926437      -1.15384484       0.16841144
C       -0.84783653      -0.44860567      -0.48133022
C       -1.57943500       0.68604966       0.10880353
O       -0.67133015       1.56647042      -0.49921828
H        0.34118437       1.49413344       0.05557867
H        1.81459348      -0.07428854      -0.99926004
H        2.34773354      -0.71078940       0.61830563
H        0.51087470      -2.05063045      -0.34039319
H        0.05914157      -1.25927045       1.24436589
H       -1.00443734      -0.59412680      -1.54525156
H       -1.55918315       0.71044634       1.20257543
H       -2.59402008       0.83076682      -0.26309090
14
Frame=2 idx=005321 GeodesicLength=0.15957788358432345 rxn_smarts="[O:1]([C:2]([C:3]([C@@:4]1([H:12])[C:5]([H:13])([H:14])[O:6]1)([H:10])[H:11])([H:8])[H:9])[H:7]>>[C:3](=[C:4]([C:5]([O:6][H:7])([H:13])[H:14])[H:12])([H:10])[H:11].[O:1]=[C:2]([H:8])[H:9]"
O        1.39839554       1.07979735       0.63560644
C        1.65190574      -0.06664854       0.08733136
C        0.16231882      -1.15451132       0.16764915
C       -0.85010640      -0.44280144      -0.48503295
C       -1.59060462       0.68255722       0.11172565
O       -0.67695318       1.55877703      -0.49512928
H        0.34991613       1.50100486       0.05980875
H        1.82624278      -0.07679879      -0.99963157
H        2.36908241      -0.70266838       0.61989917
H        0.49274070      -2.05844512      -0.33626819
H        0.04592000      -1.25958423       1.24327860
H       -1.00532874      -0.59090432      -1.54895655
H       -1.57059296       0.70268057       1.20530393
H       -2.60293622       0.82754510      -0.26558452
14
Frame=3 idx=005321 GeodesicLength=0.23939292639415427 rxn_smarts="[O:1]([C:2]([C:3]([C@@:4]1([H:12])[C:5]([H:13])([H:14])[O:6]1)([H:10])[H:11])([H:8])[H:9])[H:7]>>[C:3](=[C:4]([C:5]([O:6][H:7])([H:13])[H:14])[H:12])([H:10])[H:11].[O:1]=[C:2]([H:8])[H:9]"
O        1.41915999       1.08749634       0.62708987
C        1.66859541      -0.06492128       0.08785053
C        0.15520525      -1.15521492       0.16702133
C       -0.85246272      -0.43699816      -0.48860609
C       -1.60201494       0.67893007       0.11453641
O       -0.68257133       1.55118873      -0.49039415
H        0.35888068       1.50784206       0.06425733
H        1.83786357      -0.07956946      -1.00007851
H        2.39124045      -0.69414655       0.62112372
H        0.47406562      -2.06628556      -0.33188376
H        0.03256646      -1.25977585       1.24231136
H       -1.00593841      -0.58744743      -1.55262337
H       -1.58268359       0.69453291       1.20792402
H       -2.61190643       0.82436911      -0.26852868
14
Frame=4 idx=005321 GeodesicLength=0.3192253358812575 rxn_smarts="[O:1]([C:2]([C:3]([C@@:4]1([H:12])[C:5]([H:13])([H:14])[O:6]1)([H:10])[H:11])([H:8])[H:9])[H:7]>>[C:3](=[C:4]([C:5]([O:6][H:7])([H:13])[H:14])[H:12])([H:10])[H:11].[O:1]=[C:2]([H:8])[H:9]"
O        1.44025517       1.09520118       0.61818530
C        1.68557629      -0.06323784       0.08830748
C        0.14791646      -1.15595909       0.16653657
C       -0.85490622      -0.43119526      -0.49204232
C       -1.61367902       0.67516314       0.11722995
O       -0.68818630       1.54369717      -0.48499209
H        0.36808696       1.51463826       0.06894310
H        1.84945508      -0.08261248      -1.00059378
H        2.41424677      -0.68520258       0.62194330
H        0.45482786      -2.07414345      -0.32722597
H        0.01907324      -1.25984208       1.24147375
H       -1.00624730      -0.58373924      -1.55624631
H       -1.59549032       0.68598237       1.21042405
H       -2.62092866       0.82124989      -0.27194304
14
Frame=5 idx=005321 GeodesicLength=0.39907884078960915 rxn_smarts="[O:1]([C:2]([C:3]([C@@:4]1([H:12])[C:5]([H:13])([H:14])[O:6]1)([H:10])[H:11])([H:8])[H:9])[H:7]>>[C:3](=[C:4]([C:5]([O:6][H:7])([H:13])[H:14])[H:12])([H:10])[H:11].[O:1]=[C:2]([H:8])[H:9]"
O        1.46168458       1.10290697       0.60887491
C        1.70286116      -0.06160037       0.08870479
C        0.14044390      -1.15674849       0.16620408
C       -0.85743782      -0.42539252      -0.49533541
C       -1.62560888       0.67125293       0.11979885
O       -0.69380070       1.53629589      -0.47890554
H        0.37754366       1.52138547       0.07389031
H        1.86101618      -0.08594056      -1.00116969
H        2.43814118      -0.67581008       0.62231742
H        0.43500819      -2.08201404      -0.32228133
H        0.00542976      -1.25977993       1.24077601
H       -1.00623543      -0.57976458      -1.55982182
H       -1.60904587       0.67701127       1.21279166
H       -2.62999990       0.81819803      -0.27584423
14
Frame=6 idx=005321 GeodesicLength=0.4789553847560166 rxn_smarts="[O:1]([C:2]([C:3]([C@@:4]1([H:12])[C:5]([H:13])([H:14])[O:6]1)([H:10])[H:11])([H:8])[H:9])[H:7]>>[C:3](=[C:4]([C:5]([O:6][H:7])([H:13])[H:14])[H:12])([H:10])[H:11].[O:1]=[C:2]([H:8])[H:9]"
O        1.48345380       1.11061123       0.59913609
C        1.72046456      -0.06001258       0.08904444
C        0.13277856      -1.15758727       0.16603483
C       -0.86005776      -0.41958888      -0.49847621
C       -1.63781948       0.66719358       0.12223489
O       -0.69941675       1.52897392      -0.47210787
H        0.38726138       1.52807521       0.07912141
H        1.87254507      -0.08956819      -1.00179631
H        2.46296589      -0.66594354       0.62219974
H        0.41458351      -2.08988654      -0.31703474
H       -0.00837286      -1.25958451       1.24022992
H       -1.00587960      -0.57550435      -1.56334126
H       -1.62339043       0.66759496       1.21501072
H       -2.63911589       0.81522696      -0.28025564
14
Frame=7 idx=005321 GeodesicLength=0.5588580079078672 rxn_smarts="[O:1]([C:2]([C:3]([C@@:4]1([H:12])[C:5]([H:13])([H:14])[O:6]1)([H:10])[H:11])([H:8])[H:9])[H:7]>>[C:3](=[C:4]([C:5]([O:6][H:7])([H:13])[H:14])[H:12])([H:10])[H:11].[O:1]=[C:2]([H:8])[H:9]"
O        1.50556655       1.11831071       0.58894559
C        1.73840116      -0.05847667       0.08932906
C        0.12490957      -1.15848087       0.16604054
C       -0.86276693      -0.41378418      -0.50145624
C       -1.65032443       0.66298065       0.12452925
O       -0.70503677       1.52172152      -0.46457288
H        0.39724898       1.53469784       0.08466301
H        1.88403925      -0.09351140      -1.00246290
H        2.48876217      -0.65557424       0.62154077
H        0.39353600      -2.09775431      -0.31147242
H       -0.02234590      -1.25925144       1.23984807
H       -1.00515579      -0.57094088      -1.56679716
H       -1.63856349       0.65771141       1.21706503
H       -2.64827036       0.81235186      -0.28519973
14
Frame=8 idx=005321 GeodesicLength=0.6387882449606589 rxn_smarts="[O:1]([C:2]([C:3]([C@@:4]1([H:12])[C:5]([H:13])([H:14])[O:6]1)([H:10])[H:11])([H:8])[H:9])[H:7]>>[C:3](=[C:4]([C:5]([O:6][H:7])([H:13])[H:14])[H:12])([H:10])[H:11].[O:1]=[C:2]([H:8])[H:9]"
O        1.52802642       1.12600119       0.57827545
C        1.75668688      -0.05699499       0.08956096
C        0.11682760      -1.15943430       0.16623392
C       -0.86556485      -0.40797726      -0.50426606
C       -1.66313848       0.65860865       0.12667177
O       -0.71066548       1.51452839      -0.45626636
H        0.40751789       1.54124320       0.09054207
H        1.89549699      -0.09778963      -1.00315832
H        2.51557097      -0.64467252       0.62028686
H        0.37184074      -2.10560668      -0.30557566
H       -0.03649847      -1.25877278       1.23964417
H       -1.00403494      -0.56605180      -1.57018131
H       -1.65460869       0.64733123       1.21893406
H       -2.65745660       0.80958731      -0.29070156
14
Frame=9 idx=005321 GeodesicLength=0.7187673282834051 rxn_smarts="[O:1]([C:2]([C:3]([C@@:4]1([H:12])[C:5]([H:13])([H:14])[O:6]1)([H:10])[H:11])([H:8])[H:9])[H:7]>>[C:3](=[C:4]([C:5]([O:6][H:7])([H:13])[H:14])[H:12])([H:10])[H:11].[O:1]=[C:2]([H:8])[H:9]"
O        1.55082950       1.13367721       0.56710080
C        1.77534225      -0.05556733       0.08974426
C        0.10851766      -1.16045571       0.16662788
C       -0.86845164      -0.40216507      -0.50690111
C       -1.67627222       0.65407768       0.12865116
O       -0.71630644       1.50739105      -0.44716952
H        0.41808096       1.54769789       0.09680278
H        1.90691598      -0.10242665      -1.00386936
H        2.54342928      -0.63319843       0.61838293
H        0.34948457      -2.11344747      -0.29933415
H       -0.05084649      -1.25814315       1.23963294
H       -1.00249074      -0.56082159      -1.57349312
H       -1.67155845       0.63644039       1.22060034
H       -2.66667424       0.80694118      -0.29677584
14
Frame=10 idx=005321 GeodesicLength=0.7987730295863139 rxn_smarts="[O:1]([C:2]([C:3]([C@@:4]1([H:12])[C:5]([H:13])([H:14])[O:6]1)([H:10])[H:11])([H:8])[H:9])[H:7]>>[C:3](=[C:4]([C:5]([O:6][H:7])([H:13])[H:14])[H:12])([H:10])[H:11].[O:1]=[C:2]([H:8])[H:9]"
O        1.57397961       1.14133880       0.55538281
C        1.79438075      -0.05419862       0.08988414
C        0.09997145      -1.16154930       0.16723771
C       -0.87142698      -0.39634954      -0.50934509
C       -1.68974458       0.64937668       0.13045663
O       -0.72196252       1.50028623      -0.43722527
H        0.42894643       1.55405007       0.10346333
H        1.91829369      -0.10744374      -1.00457847
H        2.57238246      -0.62112030       0.61575897
H        0.32643726      -2.12125456      -0.29272373
H       -0.06539609      -1.25735422       1.23982966
H       -1.00048769      -0.55522073      -1.57671216
H       -1.68947293       0.62499329       1.22203263
H       -2.67590087       0.80444593      -0.30346117
14
Frame=11 idx=005321 GeodesicLength=0.8788083302640755 rxn_smarts="[O:1]([C:2]([C:3]([C@@:4]1([H:12])[C:5]([H:13])([H:14])[O:6]1)([H:10])[H:11])([H:8])[H:9])[H:7]>>[C:3](=[C:4]([C:5]([O:6][H:7])([H:13])[H:14])[H:12])([H:10])[H:11].[O:1]=[C:2]([H:8])[H:9]"
O        1.59747193       1.14898317       0.54308432
C        1.81382140      -0.05288862       0.08998663
C        0.09117748      -1.16272238       0.16807735
C       -0.87448964      -0.39052952      -0.51158715
C       -1.70356918       0.64450026       0.13207534
O       -0.72763873       1.49319915      -0.42639398
H        0.44012650       1.56028589       0.11055954
H        1.92962889      -0.11286818      -1.00526759
H        2.60246655      -0.60839989       0.61235021
H        0.30267610      -2.12901638      -0.28572743
H       -0.08015793      -1.25639906       1.24024938
H       -0.99799249      -0.54922568      -1.57982877
H       -1.70839687       0.61295956       1.22320526
H       -2.68512400       0.80212170      -0.31078313
14
Frame=12 idx=005321 GeodesicLength=0.9588733716796742 rxn_smarts="[O:1]([C:2]([C:3]([C@@:4]1([H:12])[C:5]([H:13])([H:14])[O:6]1)([H:10])[H:11])([H:8])[H:9])[H:7]>>[C:3](=[C:4]([C:5]([O:6][H:7])([H:13])[H:14])[H:12])([H:10])[H:11].[O:1]=[C:2]([H:8])[H:9]"
O        1.62130417       1.15660888       0.53016116
C        1.83368417      -0.05163958       0.09005802
C        0.08212224      -1.16398246       0.16916588
C       -0.87763879      -0.38470486      -0.51361322
C       -1.71776103       0.63944276       0.13349152
O       -0.73334174       1.48611177      -0.41462000
H        0.45163388       1.56639002       0.11812684
H        1.94091710      -0.11872788      -1.00591555
H        2.63371756      -0.59499769       0.60807686
H        0.27818256      -2.13672277      -0.27832452
H       -0.09514398      -1.25526685       1.24091162
H       -0.99496510      -0.54280697      -1.58282652
H       -1.72838673       0.60029892       1.22408320
H       -2.69432431       0.79999670      -0.31877528
14
Frame=13 idx=005321 GeodesicLength=1.038964949351245 rxn_smarts="[O:1]([C:2]([C:3]([C@@:4]1([H:12])[C:5]([H:13])([H:14])[O:6]1)([H:10])[H:11])([H:8])[H:9])[H:7]>>[C:3](=[C:4]([C:5]([O:6][H:7])([H:13])[H:14])[H:12])([H:10])[H:11].[O:1]=[C:2]([H:8])[H:9]"
O        1.64546524       1.16421383       0.51656083
C        1.85399002      -0.05044568       0.09010539
C        0.07279319      -1.16533744       0.17051939
C       -0.88087266      -0.37887427      -0.51540971
C       -1.73233273       0.63419910       0.13469297
O       -0.73907838       1.47900654      -0.40184987
H        0.46348101       1.57234718       0.12620026
H        1.95215878      -0.12505993      -1.00650048
H        2.66615954      -0.58087194       0.60287222
H        0.25293909      -2.14436331      -0.27050118
H       -0.11036459      -1.25395062       1.24183326
H       -0.99136490      -0.53593609      -1.58569279
H       -1.74949196       0.58697456       1.22463259
H       -2.70348165       0.79809808      -0.32746285
14
Frame=14 idx=005321 GeodesicLength=1.119089503566321 rxn_smarts="[O:1]([C:2]([C:3]([C@@:4]1([H:12])[C:5]([H:13])([H:14])[O:6]1)([H:10])[H:11])([H:8])[H:9])[H:7]>>[C:3](=[C:4]([C:5]([O:6][H:7])([H:13])[H:14])[H:12])([H:10])[H:11].[O:1]=[C:2]([H:8])[H:9]"
O        1.66994399       1.17179895       0.50222939
C        1.87476416      -0.04930735       0.09013621
C        0.06317571      -1.16679692       0.17215887
C       -0.88418740      -0.37303704      -0.51696073
C       -1.74729923       0.62876247       0.13566070
O       -0.74485494       1.47185908      -0.38802019
H        0.47568287       1.57813703       0.13482922
H        1.96335044      -0.13190042      -1.00699376
H        2.69982124      -0.56597171       0.59663801
H        0.22691897      -2.15192590      -0.26223298
H       -0.12583254      -1.25243833       1.24303597
H       -0.98714181      -0.52858023      -1.58840789
H       -1.77177274       0.57294144       1.22480801
H       -2.71256872       0.79645894      -0.33688084
14
Frame=15 idx=005321 GeodesicLength=1.199244204949557 rxn_smarts="[O:1]([C:2]([C:3]([C@@:4]1([H:12])[C:5]([H:13])([H:14])[O:6]1)([H:10])[H:11])([H:8])[H:9])[H:7]>>[C:3](=[C:4]([C:5]([O:6][H:7])([H:13])[H:14])[H:12])([H:10])[H:11].[O:1]=[C:2]([H:8])[H:9]"
O        1.69472131       1.17936569       0.48710113
C        1.89603328      -0.04821937       0.09015990
C        0.05325623      -1.16837149       0.17410433
C       -0.88757906      -0.36719217      -0.51825037
C       -1.76267245       0.62312737       0.13637798
O       -0.75067846       1.46464477      -0.37306037
H        0.48825428       1.58373905       0.14405540
H        1.97449190      -0.13929199      -1.00736534
H        2.73471554      -0.55024656       0.58928613
H        0.20010133      -2.15940063      -0.25350068
H       -0.14155915      -1.25071945       1.24454075
H       -0.98224283      -0.52070322      -1.59095362
H       -1.79528649       0.55815297       1.22456373
H       -2.72155541       0.79511504      -0.34705898
14
Frame=16 idx=005321 GeodesicLength=1.279429205132382 rxn_smarts="[O:1]([C:2]([C:3]([C@@:4]1([H:12])[C:5]([H:13])([H:14])[O:6]1)([H:10])[H:11])([H:8])[H:9])[H:7]>>[C:3](=[C:4]([C:5]([O:6][H:7])([H:13])[H:14])[H:12])([H:10])[H:11].[O:1]=[C:2]([H:8])[H:9]"
O        1.71977370       1.18691716       0.47109658
C        1.91782587      -0.04717115       0.09018300
C        0.04302041      -1.17007239       0.17637763
C       -0.89104214      -0.36133796      -0.51926014
C       -1.77846403       0.61728772       0.13682639
O       -0.75655795       1.45733507      -0.35688851
H        0.50121143       1.58913178       0.15392631
H        1.98558501      -0.14728692      -1.00758074
H        2.77084764      -0.53364303       0.58072421
H        0.17246432      -2.16677651      -0.24428443
H       -0.15755522      -1.24878275       1.24636989
H       -0.97660812      -0.51226391      -1.59330680
H       -1.82009602       0.54255515       1.22384506
H       -2.73040491       0.79410775      -0.35802845
