19
Frame=0 idx=009425 GeodesicLength=0.0 rxn_smarts="[C:1]([C:2]([O:3][C@@:4]1([H:13])[C:5]([H:14])([H:15])[C@:6]1([C:7]([H:17])([H:18])[H:19])[H:16])([H:11])[H:12])([H:8])([H:9])[H:10]>>[C:1]([C:2]([O:3][H:15])([H:11])[H:12])([H:8])([H:9])[H:10].[C:4]1([H:13])=[C:5]([H:14])[C:6]1([C:7]([H:17])([H:18])[H:19])[H:16]"
C        2.80307323       0.60918697       0.42501468
C        1.80458606      -0.47410391       0.09376280
O        0.52532330       0.11314977      -0.21092139
C       -0.69395443      -0.99810222      -0.22516905
C       -1.35572380      -0.70526080       0.99442606
C       -2.02495922      -0.35455777      -0.31301885
C       -2.25778084       1.07272027      -0.75635547
H        2.49437725       1.16540033       1.31133888
H        2.90852239       1.30841295      -0.40467697
H        3.77791848       0.16220072       0.62718771
H        1.67054983      -1.17131358       0.92768454
H        2.10345257      -1.03696092      -0.79089330
H       -0.29708315      -1.85974153      -0.74720050
H       -1.71720091      -1.45442137       1.68594491
H        0.01489246       0.33037808       0.69478689
H       -2.77655118      -1.03772928      -0.71913309
H       -2.27803613       1.16051562      -1.84646079
H       -3.21616529       1.42884744      -0.37169821
H       -1.48524065       1.74137932      -0.37461885
19
Frame=1 idx=009425 GeodesicLength=0.12267176406623628 rxn_smarts="[C:1]([C:2]([O:3][C@@:4]1([H:13])[C:5]([H:14])([H:15])[C@:6]1([C:7]([H:17])([H:18])[H:19])[H:16])([H:11])[H:12])([H:8])([H:9])[H:10]>>[C:1]([C:2]([O:3][H:15])([H:11])[H:12])([H:8])([H:9])[H:10].[C:4]1([H:13])=[C:5]([H:14])[C:6]1([C:7]([H:17])([H:18])[H:19])[H:16]"
C        2.82538439       0.60635543       0.42274957
C        1.81552700      -0.46323921       0.08100476
O        0.52908002       0.13429465      -0.15004824
C       -0.69792900      -0.99618635      -0.20783580
C       -1.38465274      -0.70411039       0.99507892
C       -2.03282850      -0.36344211      -0.32479969
C       -2.26186885       1.06158370      -0.77630813
H        2.55059009       1.11969552       1.34533177
H        2.89672389       1.34437509      -0.37652966
H        3.80864094       0.15437144       0.56398574
H        1.71653698      -1.19837047       0.88697362
H        2.08396948      -0.98286256      -0.83993990
H       -0.29624422      -1.86627458      -0.71179693
H       -1.78678899      -1.40252862       1.71473649
H       -0.00388765       0.31224674       0.77598927
H       -2.77556828      -1.05160569      -0.73767937
H       -2.26262643       1.14559305      -1.86685716
H       -3.22746130       1.41741295      -0.40988862
H       -1.49659683       1.73269140      -0.38416664
19
Frame=2 idx=009425 GeodesicLength=0.24455087539813264 rxn_smarts="[C:1]([C:2]([O:3][C@@:4]1([H:13])[C:5]([H:14])([H:15])[C@:6]1([C:7]([H:17])([H:18])[H:19])[H:16])([H:11])[H:12])([H:8])([H:9])[H:10]>>[C:1]([C:2]([O:3][H:15])([H:11])[H:12])([H:8])([H:9])[H:10].[C:4]1([H:13])=[C:5]([H:14])[C:6]1([C:7]([H:17])([H:18])[H:19])[H:16]"
C        2.84562827       0.60516189       0.41870132
C        1.82488661      -0.45138769       0.06823736
O        0.53263266       0.15155119      -0.08452197
C       -0.70232099      -0.99679267      -0.18935153
C       -1.41457313      -0.70538749       0.99584887
C       -2.03936675      -0.37295036      -0.33663377
C       -2.26159094       1.05040073      -0.79586909
H        2.60703132       1.07300470       1.37491041
H        2.88180726       1.38101728      -0.34650169
H        3.83553787       0.15232600       0.49672555
H        1.76252868      -1.22401647       0.84237613
H        2.06006175      -0.92472366      -0.88689978
H       -0.29596610      -1.87540651      -0.67440748
H       -1.85983050      -1.34612573       1.74157060
H       -0.02414108       0.28714231       0.86038147
H       -2.77377552      -1.06477021      -0.75720800
H       -2.24154038       1.13114452      -1.88643807
H       -3.23387300       1.40727430      -0.44871094
H       -1.50313603       1.72253789      -0.39220939
19
Frame=3 idx=009425 GeodesicLength=0.36562940182001413 rxn_smarts="[C:1]([C:2]([O:3][C@@:4]1([H:13])[C:5]([H:14])([H:15])[C@:6]1([C:7]([H:17])([H:18])[H:19])[H:16])([H:11])[H:12])([H:8])([H:9])[H:10]>>[C:1]([C:2]([O:3][H:15])([H:11])[H:12])([H:8])([H:9])[H:10].[C:4]1([H:13])=[C:5]([H:14])[C:6]1([C:7]([H:17])([H:18])[H:19])[H:16]"
C        2.86341638       0.60575857       0.41291105
C        1.83238868      -0.43861496       0.05555443
O        0.53612478       0.16415081      -0.01436446
C       -0.70718273      -1.00020445      -0.16983841
C       -1.44525648      -0.70916548       0.99668089
C       -2.04448406      -0.38308061      -0.34841997
C       -2.25661060       1.03918278      -0.81493392
H        2.66335503       1.02574124       1.39966956
H        2.86350832       1.41807420      -0.31450430
H        3.85796183       0.15650141       0.42582644
H        1.80819377      -1.24795771       0.79370798
H        2.03130684      -0.86270763      -0.93116361
H       -0.29638403      -1.88730444      -0.63534500
H       -1.93519445      -1.28424690       1.76599246
H       -0.04599856       0.25444621       0.94748682
H       -2.77126966      -1.07712436      -0.77747027
H       -2.21473367       1.11701709      -1.90505269
H       -3.23483875       1.39873611      -0.48784952
H       -1.50430265       1.71079812      -0.39888748
19
Frame=4 idx=009425 GeodesicLength=0.48590969932195754 rxn_smarts="[C:1]([C:2]([O:3][C@@:4]1([H:13])[C:5]([H:14])([H:15])[C@:6]1([C:7]([H:17])([H:18])[H:19])[H:16])([H:11])[H:12])([H:8])([H:9])[H:10]>>[C:1]([C:2]([O:3][H:15])([H:11])[H:12])([H:8])([H:9])[H:10].[C:4]1([H:13])=[C:5]([H:14])[C:6]1([C:7]([H:17])([H:18])[H:19])[H:16]"
C        2.87828703       0.60831101       0.40542835
C        1.83771378      -0.42501747       0.04314464
O        0.53973598       0.17127077       0.06026588
C       -0.71258927      -1.00667465      -0.14947121
C       -1.47642976      -0.71545301       0.99752275
C       -2.04811191      -0.39378393      -0.36003601
C       -2.24658297       1.02795709      -0.83335707
H        2.71911853       0.97854828       1.41915989
H        2.84148668       1.45520021      -0.28057514
H        3.87517958       0.16729605       0.35183038
H        1.85309704      -1.26981641       0.74096735
H        1.99732659      -0.79727090      -0.97191305
H       -0.29769224      -1.90210848      -0.59502109
H       -2.01128404      -1.21615841       1.78734536
H       -0.06961944       0.21367110       1.03665248
H       -2.76819607      -1.08850177      -0.79820191
H       -2.18221572       1.10304571      -1.92253007
H       -3.22974958       1.39215548      -0.52688658
H       -1.49947420       1.69732932      -0.40432496
19
Frame=5 idx=009425 GeodesicLength=0.6054946173679348 rxn_smarts="[C:1]([C:2]([O:3][C@@:4]1([H:13])[C:5]([H:14])([H:15])[C@:6]1([C:7]([H:17])([H:18])[H:19])[H:16])([H:11])[H:12])([H:8])([H:9])[H:10]>>[C:1]([C:2]([O:3][H:15])([H:11])[H:12])([H:8])([H:9])[H:10].[C:4]1([H:13])=[C:5]([H:14])[C:6]1([C:7]([H:17])([H:18])[H:19])[H:16]"
C        2.88974661       0.61292963       0.39647263
C        1.84056264      -0.41074595       0.03111565
O        0.54370385       0.17204958       0.13889642
C       -0.71863403      -1.01643831      -0.12844626
C       -1.50777823      -0.72412797       0.99839946
C       -2.05025656      -0.40498852      -0.37129337
C       -2.23125469       1.01672590      -0.85105890
H        2.77371570       0.93190110       1.43321731
H        2.81543282       1.49211418      -0.24454083
H        3.88646875       0.18499289       0.27549910
H        1.89671127      -1.28927307       0.68406451
H        1.95784139      -0.72879916      -1.00849797
H       -0.30011315      -1.91998533      -0.55390617
H       -2.08586250      -1.14109712       1.80515040
H       -0.09515407       0.16464864       1.12692834
H       -2.76482369      -1.09873742      -0.81894319
H       -2.14417108       1.08891598      -1.93882013
H       -3.21807840       1.38792268      -0.56538942
H       -1.48805664       1.68199229      -0.40884756
19
Frame=6 idx=009425 GeodesicLength=0.7245698362587647 rxn_smarts="[C:1]([C:2]([O:3][C@@:4]1([H:13])[C:5]([H:14])([H:15])[C@:6]1([C:7]([H:17])([H:18])[H:19])[H:16])([H:11])[H:12])([H:8])([H:9])[H:10]>>[C:1]([C:2]([O:3][H:15])([H:11])[H:12])([H:8])([H:9])[H:10].[C:4]1([H:13])=[C:5]([H:14])[C:6]1([C:7]([H:17])([H:18])[H:19])[H:16]"
C        2.89727029       0.61973507       0.38620154
C        1.84061005      -0.39596967       0.01969279
O        0.54827316       0.16573554       0.22092303
C       -0.72547183      -1.02960397      -0.10692003
C       -1.53904353      -0.73488402       0.99933357
C       -2.05094283      -0.41653799      -0.38199932
C       -2.21033991       1.00549493      -0.86792468
H        2.82659506       0.88645690       1.44159824
H        2.78491110       1.52844585      -0.20640212
H        3.89108962       0.20986913       0.19751377
H        1.93844455      -1.30588948       0.62320205
H        1.91267155      -0.65812383      -1.04006471
H       -0.30398113      -1.94096794      -0.51239215
H       -2.15647767      -1.05907941       1.81865506
H       -0.12278715       0.10755000       1.21730066
H       -2.76143378      -1.10756056      -0.83927148
H       -2.10070286       1.07431794      -1.95382882
H       -3.19926136       1.38639766      -0.60293708
H       -1.46942334       1.66461385      -0.41268029
19
Frame=7 idx=009425 GeodesicLength=0.8435066594631482 rxn_smarts="[C:1]([C:2]([O:3][C@@:4]1([H:13])[C:5]([H:14])([H:15])[C@:6]1([C:7]([H:17])([H:18])[H:19])[H:16])([H:11])[H:12])([H:8])([H:9])[H:10]>>[C:1]([C:2]([O:3][H:15])([H:11])[H:12])([H:8])([H:9])[H:10].[C:4]1([H:13])=[C:5]([H:14])[C:6]1([C:7]([H:17])([H:18])[H:19])[H:16]"
C        2.90038813       0.62876465       0.37489380
C        1.83757474      -0.38086171       0.00899435
O        0.55375005       0.15173189       0.30545948
C       -0.73328616      -1.04617288      -0.08495098
C       -1.56994888      -0.74706127       1.00047918
C       -2.05025524      -0.42820758      -0.39191179
C       -2.18365654       0.99424420      -0.88396017
H        2.87722013       0.84265211       1.44430038
H        2.74959014       1.56389567      -0.16591879
H        3.88835079       0.24203186       0.11861299
H        1.97765718      -1.31930535       0.55846037
H        1.86171497      -0.58597329      -1.06600549
H       -0.30968977      -1.96509556      -0.47068080
H       -2.22046222      -0.97079781       1.82730608
H       -0.15263013       0.04309614       1.30665623
H       -2.75837613      -1.11469626      -0.85861931
H       -2.05201320       1.05878778      -1.96763088
H       -3.17284913       1.38790177      -0.63927863
H       -1.44307873       1.64506562      -0.41620601
19
Frame=8 idx=009425 GeodesicLength=0.9628711262213906 rxn_smarts="[C:1]([C:2]([O:3][C@@:4]1([H:13])[C:5]([H:14])([H:15])[C@:6]1([C:7]([H:17])([H:18])[H:19])[H:16])([H:11])[H:12])([H:8])([H:9])[H:10]>>[C:1]([C:2]([O:3][H:15])([H:11])[H:12])([H:8])([H:9])[H:10].[C:4]1([H:13])=[C:5]([H:14])[C:6]1([C:7]([H:17])([H:18])[H:19])[H:16]"
C        2.89876196       0.63995362       0.36287015
C        1.83124760      -0.36557097      -0.00091290
O        0.56053282       0.12972666       0.39140643
C       -0.74225246      -1.06596131      -0.06253841
C       -1.60018700      -0.75964802       1.00206002
C       -2.04833172      -0.43968869      -0.40080411
C       -2.15117491       0.98292443      -0.89928435
H        2.92521461       0.80073036       1.44141859
H        2.70930682       1.59814461      -0.12269700
H        3.87765892       0.28139899       0.03952661
H        2.01367857      -1.32916630       0.48990884
H        1.80498418      -0.51308634      -1.08584926
H       -0.31762428      -1.99228984      -0.42879567
H       -2.27534915      -0.87786059       1.83083653
H       -0.18466513      -0.02743819       1.39393926
H       -2.75603857      -1.11983028      -0.87638763
H       -1.99839273       1.04179584      -1.98043546
H       -3.13858561       1.39262900      -0.67439296
H       -1.40878392       1.62323700      -0.41986868
19
Frame=9 idx=009425 GeodesicLength=1.0831474244202215 rxn_smarts="[C:1]([C:2]([O:3][C@@:4]1([H:13])[C:5]([H:14])([H:15])[C@:6]1([C:7]([H:17])([H:18])[H:19])[H:16])([H:11])[H:12])([H:8])([H:9])[H:10]>>[C:1]([C:2]([O:3][H:15])([H:11])[H:12])([H:8])([H:9])[H:10].[C:4]1([H:13])=[C:5]([H:14])[C:6]1([C:7]([H:17])([H:18])[H:19])[H:16]"
C        2.89231523       0.65309746       0.35060304
C        1.82154210      -0.35018411      -0.01011399
O        0.56898012       0.09977985       0.47718908
C       -0.75253578      -1.08865570      -0.03981648
C       -1.62922834      -0.77144287       1.00427706
C       -2.04531030      -0.45070598      -0.40847831
C       -2.11312099       0.97139733      -0.91402270
H        2.97015040       0.76081092       1.43323973
H        2.66457116       1.63076659      -0.07628123
H        3.85868799       0.32755857      -0.03864616
H        2.04568149      -1.33510667       0.41758519
H        1.74284820      -0.44001831      -1.09938287
H       -0.32822573      -2.02243925      -0.38684146
H       -2.31921587      -0.78228120       1.82944597
H       -0.21875288      -0.10208735       1.47795583
H       -2.75477124      -1.12279940      -0.89189899
H       -1.94049452       1.02273846      -1.99250523
H       -3.09645113       1.40048828      -0.70819596
H       -1.36666992       1.59908336      -0.42411251
19
Frame=10 idx=009425 GeodesicLength=1.20515184956698 rxn_smarts="[C:1]([C:2]([O:3][C@@:4]1([H:13])[C:5]([H:14])([H:15])[C@:6]1([C:7]([H:17])([H:18])[H:19])[H:16])([H:11])[H:12])([H:8])([H:9])[H:10]>>[C:1]([C:2]([O:3][H:15])([H:11])[H:12])([H:8])([H:9])[H:10].[C:4]1([H:13])=[C:5]([H:14])[C:6]1([C:7]([H:17])([H:18])[H:19])[H:16]"
C        2.88109790       0.66800382       0.33833188
C        1.80856232      -0.33485712      -0.01850199
O        0.57960482       0.06220309       0.56152360
C       -0.76418063      -1.11375147      -0.01699067
C       -1.65672464      -0.78150756       1.00712129
C       -2.04135922      -0.46096023      -0.41490186
C       -2.06985377       0.95955476      -0.92828483
H        3.01202852       0.72307968       1.41976395
H        2.61568243       1.66122519      -0.02649795
H        3.83129798       0.38019329      -0.11518632
H        2.07317307      -1.33677406       0.34195792
H        1.67584687      -0.36783928      -1.10629024
H       -0.34165933      -2.05505885      -0.34493325
H       -2.35123317      -0.68604756       1.82356379
H       -0.25462022      -0.17921551       1.55802338
H       -2.75487843      -1.12331459      -0.90480443
H       -1.87870388       1.00137447      -2.00395011
H       -3.04679253       1.41113652      -0.74092008
H       -1.31728808       1.57255540      -0.42902407
19
Frame=11 idx=009425 GeodesicLength=1.3294577971433343 rxn_smarts="[C:1]([C:2]([O:3][C@@:4]1([H:13])[C:5]([H:14])([H:15])[C@:6]1([C:7]([H:17])([H:18])[H:19])[H:16])([H:11])[H:12])([H:8])([H:9])[H:10]>>[C:1]([C:2]([O:3][H:15])([H:11])[H:12])([H:8])([H:9])[H:10].[C:4]1([H:13])=[C:5]([H:14])[C:6]1([C:7]([H:17])([H:18])[H:19])[H:16]"
C        2.86546141       0.68432594       0.32654199
C        1.79262095      -0.31973199      -0.02607873
O        0.59278906       0.01767193       0.64270166
C       -0.77714318      -1.14068380       0.00541444
C       -1.68203397      -0.78911679       1.01050906
C       -2.03669767      -0.47028243      -0.42010646
C       -2.02222369       0.94719753      -0.94215646
H        3.05074140       0.68760246       1.40135847
H        2.56363182       1.68892638       0.02689319
H        3.79572774       0.43859752      -0.18887392
H        2.09563368      -1.33393575       0.26362092
H        1.60506466      -0.29744526      -1.10659559
H       -0.35802097      -2.08966008      -0.30361863
H       -2.37069454      -0.59024369       1.81400054
H       -0.29182722      -0.25697407       1.63333910
H       -2.75665410      -1.12133791      -0.91475366
H       -1.81406757       0.97746940      -2.01492021
H       -2.99047211       1.42388176      -0.77261150
H       -1.26183570       1.54373884      -0.43466421
19
Frame=12 idx=009425 GeodesicLength=1.4559419428441607 rxn_smarts="[C:1]([C:2]([O:3][C@@:4]1([H:13])[C:5]([H:14])([H:15])[C@:6]1([C:7]([H:17])([H:18])[H:19])[H:16])([H:11])[H:12])([H:8])([H:9])[H:10]>>[C:1]([C:2]([O:3][H:15])([H:11])[H:12])([H:8])([H:9])[H:10].[C:4]1([H:13])=[C:5]([H:14])[C:6]1([C:7]([H:17])([H:18])[H:19])[H:16]"
C        2.84643728       0.70152776       0.31578814
C        1.77459833      -0.30515550      -0.03250054
O        0.60880392      -0.03223569       0.71855867
C       -0.79117968      -1.16842197       0.02626321
C       -1.70427883      -0.79382166       1.01411532
C       -2.03187266      -0.47840471      -0.42434886
C       -1.97226896       0.93438397      -0.95564544
H        3.08586129       0.65552067       1.37882617
H        2.51055145       1.71300501       0.08272370
H        3.75340904       0.50080749      -0.25745126
H        2.11281017      -1.32661656       0.18472759
H        1.53294670      -0.23079302      -1.10040575
H       -0.37711477      -2.12522675      -0.26428041
H       -2.37689156      -0.49670058       1.80180177
H       -0.32953534      -0.33346861       1.70303707
H       -2.76061134      -1.11682725      -0.92167676
H       -1.74923056       0.95146257      -2.02560995
H       -2.92970747       1.43786709      -0.80276586
H       -1.20272700       1.51309774      -0.44115681
19
Frame=13 idx=009425 GeodesicLength=1.5848407324568992 rxn_smarts="[C:1]([C:2]([O:3][C@@:4]1([H:13])[C:5]([H:14])([H:15])[C@:6]1([C:7]([H:17])([H:18])[H:19])[H:16])([H:11])[H:12])([H:8])([H:9])[H:10]>>[C:1]([C:2]([O:3][H:15])([H:11])[H:12])([H:8])([H:9])[H:10].[C:4]1([H:13])=[C:5]([H:14])[C:6]1([C:7]([H:17])([H:18])[H:19])[H:16]"
C        2.82452482       0.71919551       0.30653868
C        1.75487530      -0.29106347      -0.03802558
O        0.62753330      -0.08649538       0.78808754
C       -0.80621026      -1.19652466       0.04537810
C       -1.72315562      -0.79556739       1.01790488
C       -2.02699586      -0.48545965      -0.42758880
C       -1.92085191       0.92077962      -0.96894579
H        3.11795104       0.62554111       1.35273244
H        2.45723780       1.73323643       0.14183404
H        3.70481854       0.56655108      -0.32056609
H        2.12472275      -1.31485883       0.10554700
H        1.46031553      -0.16762896      -1.08850402
H       -0.39891548      -2.16132474      -0.22696936
H       -2.36976733      -0.40452702       1.78734808
H       -0.36747644      -0.40776096       1.76702509
H       -2.76665851      -1.11015000      -0.92522852
H       -1.68466964       0.92304479      -2.03608576
H       -2.86566399       1.45200250      -0.83209601
H       -1.14161403       1.48101004      -0.44838590
19
Frame=14 idx=009425 GeodesicLength=1.7152353808528338 rxn_smarts="[C:1]([C:2]([O:3][C@@:4]1([H:13])[C:5]([H:14])([H:15])[C@:6]1([C:7]([H:17])([H:18])[H:19])[H:16])([H:11])[H:12])([H:8])([H:9])[H:10]>>[C:1]([C:2]([O:3][H:15])([H:11])[H:12])([H:8])([H:9])[H:10].[C:4]1([H:13])=[C:5]([H:14])[C:6]1([C:7]([H:17])([H:18])[H:19])[H:16]"
C        2.80120550       0.73686870       0.29903797
C        1.73478991      -0.27795172      -0.04210740
O        0.64889916      -0.14289481       0.85006306
C       -0.82187676      -1.22376732       0.06168788
C       -1.73823350      -0.79442843       1.02145304
C       -2.02279953      -0.49113712      -0.43021000
C       -1.87047745       0.90678182      -0.98206592
H        3.14671290       0.59951269       1.32425264
H        2.40590969       1.74912941       0.20175099
H        3.65248573       0.63320600      -0.37629537
H        2.13212126      -1.29933869       0.02917863
H        1.39015322      -0.11026459      -1.07155840
H       -0.42292685      -2.19662326      -0.19303267
H       -2.34965467      -0.31598489       1.77144571
H       -0.40496635      -0.47913897       1.82524045
H       -2.77528288      -1.10124200      -0.92576264
H       -1.62350525       0.89328749      -2.04656499
H       -2.80130476       1.46566679      -0.85997203
H       -1.08124938       1.44831888      -0.45654097
19
Frame=15 idx=009425 GeodesicLength=1.846490915460897 rxn_smarts="[C:1]([C:2]([O:3][C@@:4]1([H:13])[C:5]([H:14])([H:15])[C@:6]1([C:7]([H:17])([H:18])[H:19])[H:16])([H:11])[H:12])([H:8])([H:9])[H:10]>>[C:1]([C:2]([O:3][H:15])([H:11])[H:12])([H:8])([H:9])[H:10].[C:4]1([H:13])=[C:5]([H:14])[C:6]1([C:7]([H:17])([H:18])[H:19])[H:16]"
C        2.77724204       0.75426794       0.29340717
C        1.71504366      -0.26594152      -0.04476614
O        0.67256725      -0.20011320       0.90436906
C       -0.83797764      -1.24961119       0.07505553
C       -1.74951811      -0.79066430       1.02466770
C       -2.01951625      -0.49542627      -0.43231290
C       -1.82229374       0.89250709      -0.99517270
H        3.17245686       0.57732147       1.29426298
H        2.35734405       1.76083042       0.26178868
H        3.59774113       0.69975974      -0.42445300
H        2.13583330      -1.28071215      -0.04325637
H        1.32368854      -0.05898652      -1.05065602
H       -0.44885242      -2.23055062      -0.16253265
H       -2.31721146      -0.23139515       1.75439775
H       -0.44202879      -0.54758873       1.87817656
H       -2.78637533      -1.09029190      -0.92337205
H       -1.56677445       0.86257679      -2.05720489
H       -2.73817591       1.47835006      -0.88668409
H       -1.02319273       1.41566803      -0.46571463
19
Frame=16 idx=009425 GeodesicLength=1.9777938188086208 rxn_smarts="[C:1]([C:2]([O:3][C@@:4]1([H:13])[C:5]([H:14])([H:15])[C@:6]1([C:7]([H:17])([H:18])[H:19])[H:16])([H:11])[H:12])([H:8])([H:9])[H:10]>>[C:1]([C:2]([O:3][H:15])([H:11])[H:12])([H:8])([H:9])[H:10].[C:4]1([H:13])=[C:5]([H:14])[C:6]1([C:7]([H:17])([H:18])[H:19])[H:16]"
C        2.75334374       0.77122081       0.28957131
C        1.69633147      -0.25519764      -0.04600064
O        0.69819215      -0.25694271       0.95127239
C       -0.85429982      -1.27360548       0.08543197
C       -1.75717791      -0.78464222       1.02743656
C       -2.01732823      -0.49829201      -0.43401549
C       -1.77726144       0.87821913      -1.00832325
H        3.19531238       0.55930361       1.26367237
H        2.31210889       1.76866882       0.32069665
H        3.54204712       0.76503598      -0.46503127
H        2.13690738      -1.25978545      -0.11059194
H        1.26202088      -0.01417277      -1.02692442
H       -0.47633889      -2.26259918      -0.13544800
H       -2.27349041      -0.15159143       1.73642679
H       -0.47900854      -0.61322929       1.92644649
H       -2.79974626      -1.07742851      -0.91831269
H       -1.51544870       0.83151763      -2.06809801
H       -2.67760103       1.48985690      -0.91221773
H       -0.96856276       1.38366382      -0.47599110
