18
Frame=0 idx=008104 GeodesicLength=0.0 rxn_smarts="[C:1]([C:2]([N:3]([C:4]([H:13])([H:14])[H:15])[C:5](=[O:6])[C:7]([H:16])([H:17])[H:18])([H:11])[H:12])([H:8])([H:9])[H:10]>>[C:1]([O:6][C:5](=[N+:3]([C-:2]([H:11])[H:12])[C:4]([H:13])([H:14])[H:15])[C:7]([H:16])([H:17])[H:18])([H:8])([H:9])[H:10]"
C       -1.64838947       0.46897916      -1.57400258
C       -1.42721283      -0.49735407       0.68521092
N       -0.05799147      -0.31510559       0.69024347
C        0.57746984       0.24004080       1.87158780
C        0.56172131      -0.43248753      -0.48218037
O       -0.18489010      -0.70958747      -1.47168452
C        2.01562831      -0.12620781      -0.68237474
H       -2.62333337       0.01033095      -1.49351888
H       -1.30693626       0.55020053      -2.59896927
H       -1.56659877       1.40384686      -1.03377275
H       -1.77992956      -1.39451374       0.19950798
H       -1.91468848      -0.21015593       1.60934099
H        0.75486907      -0.54157875       2.61138975
H        1.51978094       0.71913684       1.61958202
H       -0.08482248       0.98898056       2.30560394
H        2.33591017      -0.59370800      -1.61095926
H        2.63699312      -0.51155149       0.12566622
H        2.19242006       0.95073467      -0.77067080
18
Frame=1 idx=008104 GeodesicLength=0.04718913996356035 rxn_smarts="[C:1]([C:2]([N:3]([C:4]([H:13])([H:14])[H:15])[C:5](=[O:6])[C:7]([H:16])([H:17])[H:18])([H:11])[H:12])([H:8])([H:9])[H:10]>>[C:1]([O:6][C:5](=[N+:3]([C-:2]([H:11])[H:12])[C:4]([H:13])([H:14])[H:15])[C:7]([H:16])([H:17])[H:18])([H:8])([H:9])[H:10]"
C       -1.65002811       0.47053806      -1.55459056
C       -1.42658937      -0.50366794       0.67327858
N       -0.05614973      -0.32106212       0.68438574
C        0.57104025       0.24314085       1.86577284
C        0.56986271      -0.43680536      -0.48581646
O       -0.17236587      -0.70618742      -1.48225550
C        2.02464484      -0.13022876      -0.67773905
H       -2.64014069       0.04743311      -1.45675552
H       -1.34541445       0.53083369      -2.59293679
H       -1.54825900       1.42017662      -1.04269722
H       -1.77053569      -1.40371585       0.18605557
H       -1.91615094      -0.22520389       1.59886344
H        0.75528730      -0.53792967       2.60455054
H        1.50878273       0.73263183       1.61698879
H       -0.09820942       0.98597034       2.29954523
H        2.35454199      -0.61142909      -1.59622896
H        2.64118176      -0.50014726       0.14105772
H        2.19850169       0.94565287      -0.78147840
18
Frame=2 idx=008104 GeodesicLength=0.09438783516366317 rxn_smarts="[C:1]([C:2]([N:3]([C:4]([H:13])([H:14])[H:15])[C:5](=[O:6])[C:7]([H:16])([H:17])[H:18])([H:11])[H:12])([H:8])([H:9])[H:10]>>[C:1]([O:6][C:5](=[N+:3]([C-:2]([H:11])[H:12])[C:4]([H:13])([H:14])[H:15])[C:7]([H:16])([H:17])[H:18])([H:8])([H:9])[H:10]"
C       -1.65174219       0.47209805      -1.53535282
C       -1.42595799      -0.51011143       0.66138994
N       -0.05436692      -0.32685301       0.67842224
C        0.56452871       0.24627174       1.85981616
C        0.57792315      -0.44084220      -0.48953866
O       -0.15981064      -0.70213977      -1.49297112
C        2.03362337      -0.13425265      -0.67302545
H       -2.65555652       0.08550711      -1.41931510
H       -1.38435036       0.51083527      -2.58532916
H       -1.53024939       1.43564195      -1.05286975
H       -1.76125029      -1.41262205       0.17212251
H       -1.91749108      -0.24077690       1.58851757
H        0.75576191      -0.53418183       2.59754498
H        1.49754209       0.74614092       1.61415902
H       -0.11164981       0.98285427       2.29342954
H        2.37297994      -0.62909616      -1.58109068
H        2.64503036      -0.48873564       0.15630326
H        2.20503568       0.94026232      -0.79221247
18
Frame=3 idx=008104 GeodesicLength=0.14168435366713905 rxn_smarts="[C:1]([C:2]([N:3]([C:4]([H:13])([H:14])[H:15])[C:5](=[O:6])[C:7]([H:16])([H:17])[H:18])([H:11])[H:12])([H:8])([H:9])[H:10]>>[C:1]([O:6][C:5](=[N+:3]([C-:2]([H:11])[H:12])[C:4]([H:13])([H:14])[H:15])[C:7]([H:16])([H:17])[H:18])([H:8])([H:9])[H:10]"
C       -1.65351012       0.47386453      -1.51609063
C       -1.42528024      -0.51693323       0.64951135
N       -0.05262071      -0.33264450       0.67233141
C        0.55782795       0.24960372       1.85359971
C        0.58590929      -0.44464711      -0.49339297
O       -0.14722596      -0.69726038      -1.50391503
C        2.04258603      -0.13842170      -0.66822457
H       -2.66943387       0.12466461      -1.38106047
H       -1.42378159       0.49042763      -2.57593821
H       -1.51249489       1.45035490      -1.06402161
H       -1.75198548      -1.42141008       0.15751806
H       -1.91866620      -0.25733472       1.57832005
H        0.75630593      -0.52999080       2.59039555
H        1.48586812       0.75993628       1.61089740
H       -0.12537079       0.97976047       2.28700426
H        2.39125600      -0.64702254      -1.56543048
H        2.64850614      -0.47733535       0.17149838
H        2.21211040       0.93438827      -0.80300220
18
Frame=4 idx=008104 GeodesicLength=0.18900201561318872 rxn_smarts="[C:1]([C:2]([N:3]([C:4]([H:13])([H:14])[H:15])[C:5](=[O:6])[C:7]([H:16])([H:17])[H:18])([H:11])[H:12])([H:8])([H:9])[H:10]>>[C:1]([O:6][C:5](=[N+:3]([C-:2]([H:11])[H:12])[C:4]([H:13])([H:14])[H:15])[C:7]([H:16])([H:17])[H:18])([H:8])([H:9])[H:10]"
C       -1.65532669       0.47571743      -1.49695506
C       -1.42462035      -0.52381798       0.63767987
N       -0.05095463      -0.33825088       0.66612908
C        0.55104162       0.25292036       1.84724575
C        0.59378330      -0.44815650      -0.49734216
O       -0.13464092      -0.69169820      -1.51498026
C        2.05146371      -0.14256829      -0.66336909
H       -2.68160441       0.16449126      -1.34221002
H       -1.46352704       0.46935868      -2.56483814
H       -1.49521961       1.46425128      -1.07646305
H       -1.74284307      -1.42985461       0.14247463
H       -1.91972604      -0.27427336       1.56821711
H        0.75684744      -0.52576039       2.58306438
H        1.47397568       0.77363846       1.60741455
H       -0.13910641       0.97653985       2.28053558
H        2.40924223      -0.66483183      -1.54940914
H        2.65162128      -0.46593682       0.18648033
H        2.21959391       0.92823154      -0.81367437
18
Frame=5 idx=008104 GeodesicLength=0.23643677253950918 rxn_smarts="[C:1]([C:2]([N:3]([C:4]([H:13])([H:14])[H:15])[C:5](=[O:6])[C:7]([H:16])([H:17])[H:18])([H:11])[H:12])([H:8])([H:9])[H:10]>>[C:1]([O:6][C:5](=[N+:3]([C-:2]([H:11])[H:12])[C:4]([H:13])([H:14])[H:15])[C:7]([H:16])([H:17])[H:18])([H:8])([H:9])[H:10]"
C       -1.65717241       0.47785051      -1.47777596
C       -1.42395104      -0.53098958       0.62586002
N       -0.04934385      -0.34382507       0.65980029
C        0.54408834       0.25637848       1.84065792
C        0.60155383      -0.45141958      -0.50142657
O       -0.12206667      -0.68529225      -1.52624456
C        2.06028936      -0.14682346      -0.65844306
H       -2.69197491       0.20504232      -1.30268942
H       -1.50363250       0.44784847      -2.55183746
H       -1.47840229       1.47745061      -1.08995885
H       -1.73376332      -1.43812159       0.12681463
H       -1.92063565      -0.29200082       1.55821653
H        0.75741338      -0.52118767       2.57558521
H        1.46171477       0.78750180       1.60354455
H       -0.15304531       0.97331725       2.27380555
H        2.42697084      -0.68280127      -1.53292416
H        2.65436673      -0.45457011       0.20134552
H        2.22759069       0.92164196      -0.82433018
18
Frame=6 idx=008104 GeodesicLength=0.28393517727142586 rxn_smarts="[C:1]([C:2]([N:3]([C:4]([H:13])([H:14])[H:15])[C:5](=[O:6])[C:7]([H:16])([H:17])[H:18])([H:11])[H:12])([H:8])([H:9])[H:10]>>[C:1]([O:6][C:5](=[N+:3]([C-:2]([H:11])[H:12])[C:4]([H:13])([H:14])[H:15])[C:7]([H:16])([H:17])[H:18])([H:8])([H:9])[H:10]"
C       -1.65900915       0.48023419      -1.45861225
C       -1.42331026      -0.53827975       0.61407827
N       -0.04781342      -0.34929190       0.65336122
C        0.53701856       0.25987088       1.83389474
C        0.60919216      -0.45442396      -0.50562447
O       -0.10953029      -0.67812730      -1.53764145
C        2.06901011      -0.15111064      -0.65347746
H       -2.70041533       0.24595642      -1.26271145
H       -1.54389241       0.42588876      -2.53692312
H       -1.46222064       1.48991839      -1.10459617
H       -1.72480851      -1.44608827       0.11067587
H       -1.92142284      -0.31017824       1.54829062
H        0.75796044      -0.51646250       2.56794881
H        1.44919332       0.80133276       1.59938188
H       -0.16704916       0.97002856       2.26693675
H        2.44434484      -0.70075672      -1.51607428
H        2.65674342      -0.44322502       0.21599559
H        2.23600913       0.91471433      -0.83490312
18
Frame=7 idx=008104 GeodesicLength=0.33156793299249276 rxn_smarts="[C:1]([C:2]([N:3]([C:4]([H:13])([H:14])[H:15])[C:5](=[O:6])[C:7]([H:16])([H:17])[H:18])([H:11])[H:12])([H:8])([H:9])[H:10]>>[C:1]([O:6][C:5](=[N+:3]([C-:2]([H:11])[H:12])[C:4]([H:13])([H:14])[H:15])[C:7]([H:16])([H:17])[H:18])([H:8])([H:9])[H:10]"
C       -1.66079628       0.48298236      -1.43935976
C       -1.42267060      -0.54579166       0.60230638
N       -0.04634582      -0.35472245       0.64679730
C        0.52978508       0.26347274       1.82689518
C        0.61670253      -0.45717998      -0.50996071
O       -0.09703062      -0.67009302      -1.54920185
C        2.07763499      -0.15550570      -0.64845885
H       -2.70685110       0.28717295      -1.22224449
H       -1.58428312       0.40362007      -2.51994834
H       -1.44676734       1.50172801      -1.12024376
H       -1.71592139      -1.45381968       0.09396555
H       -1.92205623      -0.32898657       1.53841535
H        0.75848256      -0.51142671       2.56016315
H        1.43633085       0.81523573       1.59483198
H       -0.18121287       0.96673639       2.25979400
H        2.46136231      -0.71884362      -1.49879536
H        2.65873515      -0.43192887       0.23047855
H        2.24490188       0.90735001      -0.84543435
18
Frame=8 idx=008104 GeodesicLength=0.3793009295373948 rxn_smarts="[C:1]([C:2]([N:3]([C:4]([H:13])([H:14])[H:15])[C:5](=[O:6])[C:7]([H:16])([H:17])[H:18])([H:11])[H:12])([H:8])([H:9])[H:10]>>[C:1]([O:6][C:5](=[N+:3]([C-:2]([H:11])[H:12])[C:4]([H:13])([H:14])[H:15])[C:7]([H:16])([H:17])[H:18])([H:8])([H:9])[H:10]"
C       -1.66246881       0.48606417      -1.42008648
C       -1.42208390      -0.55335830       0.59057484
N       -0.04496453      -0.36007548       0.64013853
C        0.52244648       0.26707273       1.81973206
C        0.62406239      -0.45972795      -0.51440406
O       -0.08459965      -0.66134398      -1.56085176
C        2.08611452      -0.15992137      -0.64342947
H       -2.71122581       0.32835669      -1.18154699
H       -1.62456316       0.38105260      -2.50092678
H       -1.43218169       1.51285061      -1.13695772
H       -1.70720420      -1.46119931       0.07682785
H       -1.92258821      -0.34806960       1.52857038
H        0.75895156      -0.50627103       2.55224116
H        1.42324781       0.82902734       1.59000405
H       -0.19539525       0.96338416       2.25251253
H        2.47794862      -0.73687190      -1.48121086
H        2.66036826      -0.42063962       0.24468804
H        2.25413555       0.89967025      -0.85587530
18
Frame=9 idx=008104 GeodesicLength=0.42706944395784185 rxn_smarts="[C:1]([C:2]([N:3]([C:4]([H:13])([H:14])[H:15])[C:5](=[O:6])[C:7]([H:16])([H:17])[H:18])([H:11])[H:12])([H:8])([H:9])[H:10]>>[C:1]([O:6][C:5](=[N+:3]([C-:2]([H:11])[H:12])[C:4]([H:13])([H:14])[H:15])[C:7]([H:16])([H:17])[H:18])([H:8])([H:9])[H:10]"
C       -1.66395208       0.48942157      -1.40088841
C       -1.42158965      -0.56078522       0.57892292
N       -0.04369171      -0.36529322       0.63342009
C        0.51507662       0.27054038       1.81249083
C        0.63124378      -0.46210264      -0.51891243
O       -0.07226984      -0.65206837      -1.57250064
C        2.09437946      -0.16425791      -0.63842957
H       -2.71351810       0.36916739      -1.14092588
H       -1.66446145       0.35821246      -2.47991902
H       -1.41861744       1.52322665      -1.15481055
H       -1.69874642      -1.46809155       0.05944788
H       -1.92306373      -0.36701621       1.51873723
H        0.75934762      -0.50122092       2.54419639
H        1.41008194       0.84249444       1.58503180
H       -0.20942484       0.95989737       2.24524683
H        2.49401822      -0.75461207      -1.46345705
H        2.66165288      -0.40932244       0.25851800
H        2.26353472       0.89181030      -0.86616842
18
Frame=10 idx=008104 GeodesicLength=0.47480539754466944 rxn_smarts="[C:1]([C:2]([N:3]([C:4]([H:13])([H:14])[H:15])[C:5](=[O:6])[C:7]([H:16])([H:17])[H:18])([H:11])[H:12])([H:8])([H:9])[H:10]>>[C:1]([O:6][C:5](=[N+:3]([C-:2]([H:11])[H:12])[C:4]([H:13])([H:14])[H:15])[C:7]([H:16])([H:17])[H:18])([H:8])([H:9])[H:10]"
C       -1.66519015       0.49297865      -1.38189254
C       -1.42123300      -0.56785637       0.56739402
N       -0.04255061      -0.37029461       0.62667862
C        0.50777003       0.27373801       1.80528023
C        0.63822039      -0.46432009      -0.52344295
O       -0.06007334      -0.64247863      -1.58406233
C        2.10237200      -0.16841006      -0.63349728
H       -2.71377977       0.40926421      -1.10073470
H       -1.70371289       0.33511234      -2.45704462
H       -1.40625500       1.53278706      -1.17388209
H       -1.69064267      -1.47435936       0.04203065
H       -1.92354330      -0.38537794       1.50890647
H        0.75966753      -0.49653366       2.53604528
H        1.39700405       0.85541617       1.58008846
H       -0.22310427       0.95619723       2.23819342
H        2.50950244      -0.77181780      -1.44569296
H        2.66261103      -0.39796771       0.27186805
H        2.27293754       0.88392256      -0.87623574
18
Frame=11 idx=008104 GeodesicLength=0.5224560389252061 rxn_smarts="[C:1]([C:2]([N:3]([C:4]([H:13])([H:14])[H:15])[C:5](=[O:6])[C:7]([H:16])([H:17])[H:18])([H:11])[H:12])([H:8])([H:9])[H:10]>>[C:1]([O:6][C:5](=[N+:3]([C-:2]([H:11])[H:12])[C:4]([H:13])([H:14])[H:15])[C:7]([H:16])([H:17])[H:18])([H:8])([H:9])[H:10]"
C       -1.66615149       0.49667604      -1.36319910
C       -1.42104274      -0.57441259       0.55602618
N       -0.04155497      -0.37501181       0.61994124
C        0.50060246       0.27657931       1.79817691
C        0.64497571      -0.46637571      -0.52796258
O       -0.04802938      -0.63274127      -1.59546701
C        2.11006070      -0.17232189      -0.62865999
H       -2.71213028       0.44828895      -1.06129873
H       -1.74204693       0.31191203      -2.43244200
H       -1.39531190       1.54147703      -1.19413147
H       -1.68294355      -1.47991854       0.02474943
H       -1.92408119      -0.40280511       1.49907410
H        0.75992342      -0.49239066       2.52779173
H        1.38414502       0.86765397       1.57529750
H       -0.23629236       0.95223941       2.23149600
H        2.52436253      -0.78836206      -1.42802552
H        2.66326855      -0.38658745       0.28467471
H        2.28224640       0.87610033      -0.88604139
18
Frame=12 idx=008104 GeodesicLength=0.5700859926989805 rxn_smarts="[C:1]([C:2]([N:3]([C:4]([H:13])([H:14])[H:15])[C:5](=[O:6])[C:7]([H:16])([H:17])[H:18])([H:11])[H:12])([H:8])([H:9])[H:10]>>[C:1]([O:6][C:5](=[N+:3]([C-:2]([H:11])[H:12])[C:4]([H:13])([H:14])[H:15])[C:7]([H:16])([H:17])[H:18])([H:8])([H:9])[H:10]"
C       -1.66682732       0.50057409      -1.34473970
C       -1.42098127      -0.58057520       0.54479676
N       -0.04067659      -0.37950940       0.61319580
C        0.49353743       0.27916793       1.79112469
C        0.65152665      -0.46825900      -0.53249930
O       -0.03612294      -0.62276414      -1.60675811
C        2.11748503      -0.17609099      -0.62389902
H       -2.70870646       0.48618308      -1.02260793
H       -1.77939995       0.28889806      -2.40611204
H       -1.38592182       1.54933889      -1.21530207
H       -1.67557185      -1.48486501       0.00752171
H       -1.92465236      -0.41950745       1.48924013
H        0.76012778      -0.48860501       2.51945600
H        1.37143931       0.87935434       1.57056950
H       -0.24908617       0.94811373       2.22501903
H        2.53864029      -0.80444374      -1.41037847
H        2.66362475      -0.37523364       0.29701579
H        2.29156547       0.86822346      -0.89564276
18
Frame=13 idx=008104 GeodesicLength=0.6176469058865182 rxn_smarts="[C:1]([C:2]([N:3]([C:4]([H:13])([H:14])[H:15])[C:5](=[O:6])[C:7]([H:16])([H:17])[H:18])([H:11])[H:12])([H:8])([H:9])[H:10]>>[C:1]([O:6][C:5](=[N+:3]([C-:2]([H:11])[H:12])[C:4]([H:13])([H:14])[H:15])[C:7]([H:16])([H:17])[H:18])([H:8])([H:9])[H:10]"
C       -1.66720546       0.50458819      -1.32663431
C       -1.42108670      -0.58618280       0.53374588
N       -0.03993014      -0.38372069       0.60647376
C        0.48665678       0.28141357       1.78421647
C        0.65786448      -0.46997802      -0.53701769
O       -0.02436827      -0.61274432      -1.61787362
C        2.12462415      -0.17964937      -0.61924527
H       -2.70370778       0.52267817      -0.98496952
H       -1.81552937       0.26619185      -2.37828644
H       -1.37822834       1.55631171      -1.23733517
H       -1.66859191      -1.48912476      -0.00947582
H       -1.92532338      -0.43514884       1.47941698
H        0.76030387      -0.48536837       2.51105117
H        1.35902677       0.89038388       1.56604876
H       -0.26134102       0.94377126       2.21893233
H        2.55231818      -0.81993480      -1.39286031
H        2.66372317      -0.36388706       0.30883022
H        2.30079496       0.86040041      -0.90501742
18
Frame=14 idx=008104 GeodesicLength=0.6652210832372307 rxn_smarts="[C:1]([C:2]([N:3]([C:4]([H:13])([H:14])[H:15])[C:5](=[O:6])[C:7]([H:16])([H:17])[H:18])([H:11])[H:12])([H:8])([H:9])[H:10]>>[C:1]([O:6][C:5](=[N+:3]([C-:2]([H:11])[H:12])[C:4]([H:13])([H:14])[H:15])[C:7]([H:16])([H:17])[H:18])([H:8])([H:9])[H:10]"
C       -1.66728128       0.50876502      -1.30880334
C       -1.42132843      -0.59138576       0.52285272
N       -0.03928874      -0.38773292       0.59976427
C        0.47990475       0.28343386       1.77738466
C        0.66401525      -0.47154185      -0.54154857
O       -0.01273764      -0.60259711      -1.62886262
C        2.13153057      -0.18309610      -0.61468588
H       -2.69728880       0.55778019      -0.94827953
H       -1.85039800       0.24408537      -2.34901827
H       -1.37227265       1.56244791      -1.25993704
H       -1.66193874      -1.49281797      -0.02634554
H       -1.92607828      -0.44999081       1.46961621
H        0.76045574      -0.48246745       2.50259514
H        1.34681211       0.90092626       1.56161870
H       -0.27318981       0.93930818       2.21308987
H        2.56545497      -0.83505833      -1.37538033
H        2.66357426      -0.35256566       0.32019016
H        2.31005475       0.85250717      -0.91425060
18
Frame=15 idx=008104 GeodesicLength=0.7128637005440719 rxn_smarts="[C:1]([C:2]([N:3]([C:4]([H:13])([H:14])[H:15])[C:5](=[O:6])[C:7]([H:16])([H:17])[H:18])([H:11])[H:12])([H:8])([H:9])[H:10]>>[C:1]([O:6][C:5](=[N+:3]([C-:2]([H:11])[H:12])[C:4]([H:13])([H:14])[H:15])[C:7]([H:16])([H:17])[H:18])([H:8])([H:9])[H:10]"
C       -1.66707672       0.51312891      -1.29116871
C       -1.42164025      -0.59630184       0.51207152
N       -0.03870789      -0.39160715       0.59304494
C        0.47324752       0.28533629       1.77052944
C        0.66999997      -0.47293718      -0.54610019
O       -0.00121345      -0.59220548      -1.63973121
C        2.13823378      -0.18653885      -0.61016646
H       -2.68960960       0.59145467      -0.91245961
H       -1.88397737       0.22286868      -2.31836654
H       -1.36817767       1.56777518      -1.28278314
H       -1.65549792      -1.49601134      -0.04319166
H       -1.92684602      -0.46424925       1.45979143
H        0.76062113      -0.47969151       2.49406178
H        1.33470603       0.91112440       1.55714099
H       -0.28473298       0.93480152       2.20729652
H        2.57806843      -0.85000997      -1.35779758
H        2.66317111      -0.34132486       0.33118683
H        2.31943190       0.84438778      -0.92335837
18
Frame=16 idx=008104 GeodesicLength=0.7605751149392384 rxn_smarts="[C:1]([C:2]([N:3]([C:4]([H:13])([H:14])[H:15])[C:5](=[O:6])[C:7]([H:16])([H:17])[H:18])([H:11])[H:12])([H:8])([H:9])[H:10]>>[C:1]([O:6][C:5](=[N+:3]([C-:2]([H:11])[H:12])[C:4]([H:13])([H:14])[H:15])[C:7]([H:16])([H:17])[H:18])([H:8])([H:9])[H:10]"
C       -1.66659100       0.51763316      -1.27377971
C       -1.42204799      -0.60091282       0.50143007
N       -0.03819420      -0.39534303       0.58633759
C        0.46669778       0.28712067       1.76370170
C        0.67583065      -0.47418178      -0.55067796
O        0.01022112      -0.58165290      -1.65049433
C        2.14475788      -0.18996998      -0.60571857
H       -2.68084972       0.62363312      -0.87756621
H       -1.91616029       0.20264089      -2.28657472
H       -1.36594716       1.57230907      -1.30573818
H       -1.64930479      -1.49873508      -0.05995781
H       -1.92767698      -0.47786313       1.44999078
H        0.76079462      -0.47706985       2.48549354
H        1.32274533       0.92099398       1.55266550
H       -0.29595430       0.93026632       2.20163645
H        2.59018393      -0.86479540      -1.34017356
H        2.66255185      -0.33014799       0.34179995
H        2.32894326       0.83607477      -0.93237452
