17
Frame=0 idx=008924 GeodesicLength=0.0 rxn_smarts="[C:1]([O:2][C:3]([C@@:4]([O:5][H:14])([C:6]([O:7][H:17])([H:15])[H:16])[H:13])([H:11])[H:12])([H:8])([H:9])[H:10]>>[C:1]([O:2][H:14])([H:8])([H:9])[H:10].[C:3]1([H:11])([H:12])[C@@:4]([C:6]([O:7][H:17])([H:15])[H:16])([H:13])[O:5]1"
C        2.48394013       0.93079004       0.09598787
O        1.89476603      -0.28846759       0.49913455
C        0.12729800      -0.75094736      -0.61699758
C       -0.99594296      -0.88472457       0.30712349
O       -0.42609894       0.01323407       1.20195066
C       -2.32869627      -0.35118511      -0.21718325
O       -2.20176103       1.00286737      -0.56332270
H        3.19489316       1.27416484       0.85182541
H        1.72766696       1.70773339      -0.05676477
H        3.02402884       0.76755764      -0.83785329
H        0.15351422       0.15164976      -1.21400379
H        0.77743459      -1.56534783      -0.90143422
H       -1.12102035      -1.90134056       0.70382698
H        1.11166140      -0.09956071       1.10578939
H       -3.06912740      -0.49180879       0.58192265
H       -2.66773045      -0.89955074      -1.10024231
H       -1.68482588       1.38493618       0.16024089
17
Frame=1 idx=008924 GeodesicLength=0.0965240209319118 rxn_smarts="[C:1]([O:2][C:3]([C@@:4]([O:5][H:14])([C:6]([O:7][H:17])([H:15])[H:16])[H:13])([H:11])[H:12])([H:8])([H:9])[H:10]>>[C:1]([O:2][H:14])([H:8])([H:9])[H:10].[C:3]1([H:11])([H:12])[C@@:4]([C:6]([O:7][H:17])([H:15])[H:16])([H:13])[O:5]1"
C        2.51988006       0.91203337       0.10379030
O        1.88294503      -0.28149005       0.50977032
C        0.12466865      -0.70941864      -0.62078149
C       -0.99444230      -0.87215333       0.30490620
O       -0.43449388       0.04984287       1.18381150
C       -2.34208089      -0.37545211      -0.21343663
O       -2.25347167       0.97693552      -0.57849338
H        3.25005869       1.22132656       0.85573012
H        1.79736136       1.72201797      -0.04141021
H        3.04688271       0.73148740      -0.83475931
H        0.13153853       0.19304158      -1.21914321
H        0.76433455      -1.52314171      -0.93144723
H       -1.08590146      -1.88731303       0.71290976
H        1.08766301      -0.07590881       1.12422309
H       -3.07302104      -0.52419852       0.59285724
H       -2.67344435      -0.94330794      -1.08695274
H       -1.74847700       1.38569887       0.13842566
17
Frame=2 idx=008924 GeodesicLength=0.19170366400778027 rxn_smarts="[C:1]([O:2][C:3]([C@@:4]([O:5][H:14])([C:6]([O:7][H:17])([H:15])[H:16])[H:13])([H:11])[H:12])([H:8])([H:9])[H:10]>>[C:1]([O:2][H:14])([H:8])([H:9])[H:10].[C:3]1([H:11])([H:12])[C@@:4]([C:6]([O:7][H:17])([H:15])[H:16])([H:13])[O:5]1"
C        2.55411126       0.89290522       0.11135598
O        1.87075503      -0.27331485       0.51986095
C        0.12205128      -0.66808468      -0.62433859
C       -0.99252776      -0.85948429       0.30264800
O       -0.44311097       0.08577821       1.16590688
C       -2.35381218      -0.39916134      -0.20960025
O       -2.30289269       0.95037115      -0.59304236
H        3.30211453       1.16685238       0.85920479
H        1.86665983       1.73442554      -0.02559489
H        3.06718172       0.69633894      -0.83212106
H        0.10899042       0.23335626      -1.22484588
H        0.75143638      -1.48043707      -0.96025795
H       -1.05102609      -1.87218361       0.72133656
H        1.06300855      -0.05090700       1.14235611
H       -3.07537173      -0.55552604       0.60363004
H       -2.67684539      -0.98591769      -1.07362235
H       -1.81072219       1.38498888       0.11712401
17
Frame=3 idx=008924 GeodesicLength=0.2856772520835227 rxn_smarts="[C:1]([O:2][C:3]([C@@:4]([O:5][H:14])([C:6]([O:7][H:17])([H:15])[H:16])[H:13])([H:11])[H:12])([H:8])([H:9])[H:10]>>[C:1]([O:2][H:14])([H:8])([H:9])[H:10].[C:3]1([H:11])([H:12])[C@@:4]([C:6]([O:7][H:17])([H:15])[H:16])([H:13])[O:5]1"
C        2.58668415       0.87339168       0.11867866
O        1.85823802      -0.26394093       0.52942709
C        0.11943147      -0.62687336      -0.62768500
C       -0.99019199      -0.84669745       0.30035360
O       -0.45196890       0.12108274       1.14825543
C       -2.36392911      -0.42233593      -0.20567949
O       -2.35007593       0.92319190      -0.60695869
H        3.35099986       1.11076717       0.86225376
H        1.93562720       1.74491517      -0.00937871
H        3.08509623       0.66209585      -0.82989484
H        0.08582606       0.27261584      -1.23108626
H        0.73871647      -1.43725121      -0.98790683
H       -1.01637531      -1.85599278       0.72912370
H        1.03771634      -0.02450145       1.16018092
H       -3.07622569      -0.58587944       0.61423499
H       -2.67798886      -1.02737648      -1.06027346
H       -1.87158000       1.38278867       0.09635513
17
Frame=4 idx=008924 GeodesicLength=0.37863002288472025 rxn_smarts="[C:1]([O:2][C:3]([C@@:4]([O:5][H:14])([C:6]([O:7][H:17])([H:15])[H:16])[H:13])([H:11])[H:12])([H:8])([H:9])[H:10]>>[C:1]([O:2][H:14])([H:8])([H:9])[H:10].[C:3]1([H:11])([H:12])[C@@:4]([C:6]([O:7][H:17])([H:15])[H:16])([H:13])[O:5]1"
C        2.61771999       0.85346414       0.12576895
O        1.84542982      -0.25336178       0.53848837
C        0.11678186      -0.58566068      -0.63084246
C       -0.98742683      -0.83374009       0.29803021
O       -0.46108879       0.15587989       1.13085444
C       -2.37250526      -0.44503905      -0.20168175
O       -2.39519797       0.89536584      -0.62028305
H        3.39679085       1.05296793       0.86487420
H        2.00443405       1.75346135       0.00731844
H        3.10079259       0.62872266      -0.82807653
H        0.06198105       0.31090603      -1.23783098
H        0.72613815      -1.39353901      -1.01446665
H       -0.98188382      -1.83873311       0.73632576
H        1.01180062       0.00339517       1.17769294
H       -3.07563978      -0.61540326       0.62468049
H       -2.67694552      -1.06777358      -1.04690905
H       -1.93118099       1.37908755       0.07605666
17
Frame=5 idx=008924 GeodesicLength=0.4709967017402563 rxn_smarts="[C:1]([O:2][C:3]([C@@:4]([O:5][H:14])([C:6]([O:7][H:17])([H:15])[H:16])[H:13])([H:11])[H:12])([H:8])([H:9])[H:10]>>[C:1]([O:2][H:14])([H:8])([H:9])[H:10].[C:3]1([H:11])([H:12])[C@@:4]([C:6]([O:7][H:17])([H:15])[H:16])([H:13])[O:5]1"
C        2.64746843       0.83304317       0.13270987
O        1.83235311      -0.24153799       0.54705155
C        0.11409377      -0.54427640      -0.63384607
C       -0.98423561      -0.82051699       0.29568182
O       -0.47053398       0.19034034       1.11361847
C       -2.37965232      -0.46739657      -0.19760843
O       -2.43857116       0.86678383      -0.63311252
H        3.43979620       0.99317747       0.86700044
H        2.07350849       1.76006745       0.02467373
H        3.11438309       0.59621821      -0.82666871
H        0.03748706       0.34835035      -1.24507254
H        0.71365903      -1.34920771      -1.04000634
H       -0.94747331      -1.82034918       0.74298508
H        0.98520154       0.03297698       1.19487536
H       -3.07370121      -0.64425390       0.63499052
H       -2.67377881      -1.10737037      -1.03350102
H       -1.99000432       1.37395129       0.05622879
17
Frame=6 idx=008924 GeodesicLength=0.562697717333955 rxn_smarts="[C:1]([O:2][C:3]([C@@:4]([O:5][H:14])([C:6]([O:7][H:17])([H:15])[H:16])[H:13])([H:11])[H:12])([H:8])([H:9])[H:10]>>[C:1]([O:2][H:14])([H:8])([H:9])[H:10].[C:3]1([H:11])([H:12])[C@@:4]([C:6]([O:7][H:17])([H:15])[H:16])([H:13])[O:5]1"
C        2.67586629       0.81213980       0.13946985
O        1.81906647      -0.22849012       0.55511091
C        0.11133285      -0.50269001      -0.63671767
C       -0.98059704      -0.80702125       0.29331052
O       -0.48028344       0.22449277       1.09659420
C       -2.38536141      -0.48938592      -0.19345464
O       -2.48015242       0.83749530      -0.64542282
H        3.47975758       0.93149955       0.86866498
H        2.14273827       1.76459955       0.04264937
H        3.12604364       0.56460148      -0.82562196
H        0.01224477       0.38494890      -1.25279195
H        0.70125454      -1.30428885      -1.06458835
H       -0.91311374      -1.80086153       0.74915211
H        0.95797597       0.06421008       1.21171568
H       -3.07039722      -0.67248506       0.64517963
H       -2.66851559      -1.14607927      -1.02005038
H       -2.04785954       1.36731455       0.03680052
17
Frame=7 idx=008924 GeodesicLength=0.6537362031421041 rxn_smarts="[C:1]([O:2][C:3]([C@@:4]([O:5][H:14])([C:6]([O:7][H:17])([H:15])[H:16])[H:13])([H:11])[H:12])([H:8])([H:9])[H:10]>>[C:1]([O:2][H:14])([H:8])([H:9])[H:10].[C:3]1([H:11])([H:12])[C@@:4]([C:6]([O:7][H:17])([H:15])[H:16])([H:13])[O:5]1"
C        2.70289223       0.79073576       0.14602464
O        1.80561437      -0.21420885       0.56263867
C        0.10847954      -0.46086021      -0.63946739
C       -0.97648818      -0.79322775       0.29092176
O       -0.49033839       0.25835667       1.07980518
C       -2.38961919      -0.51100074      -0.18921713
O       -2.51992687       0.80751875      -0.65719001
H        3.51643328       0.86798938       0.86989483
H        2.21207761       1.76694080       0.06115652
H        3.13593308       0.53389150      -0.82487777
H       -0.01376150       0.42068393      -1.26095412
H        0.68890503      -1.25879618      -1.08824441
H       -0.87878478      -1.78028381       0.75483873
H        0.93014321       0.09709380       1.22819018
H       -3.06571285      -0.70013693       0.65525182
H       -2.66115586      -1.18385938      -1.00656983
H       -2.10469073       1.35916327       0.01779834
17
Frame=8 idx=008924 GeodesicLength=0.7442916384362688 rxn_smarts="[C:1]([O:2][C:3]([C@@:4]([O:5][H:14])([C:6]([O:7][H:17])([H:15])[H:16])[H:13])([H:11])[H:12])([H:8])([H:9])[H:10]>>[C:1]([O:2][H:14])([H:8])([H:9])[H:10].[C:3]1([H:11])([H:12])[C@@:4]([C:6]([O:7][H:17])([H:15])[H:16])([H:13])[O:5]1"
C        2.72863050       0.76884098       0.15240154
O        1.79205226      -0.19869984       0.56961899
C        0.10551688      -0.41871004      -0.64212579
C       -0.97189892      -0.77908854       0.28851665
O       -0.50069527       0.29203731       1.06321627
C       -2.39248017      -0.53228286      -0.18489279
O       -2.55802513       0.77682470      -0.66847271
H        3.54985447       0.80256460       0.87065109
H        2.28164500       1.76701193       0.08037947
H        3.14413591       0.50415561      -0.82447646
H       -0.04055242       0.45557984      -1.26954148
H        0.67657914      -1.21271379      -1.11102797
H       -0.84443636      -1.75857620       0.76010944
H        0.90170396       0.13163337       1.24430819
H       -3.05967274      -0.72727715       0.66523825
H       -2.65175102      -1.22079935      -0.99302921
H       -2.16060609       1.34949941      -0.00087350
17
Frame=9 idx=008924 GeodesicLength=0.8343596476994037 rxn_smarts="[C:1]([O:2][C:3]([C@@:4]([O:5][H:14])([C:6]([O:7][H:17])([H:15])[H:16])[H:13])([H:11])[H:12])([H:8])([H:9])[H:10]>>[C:1]([O:2][H:14])([H:8])([H:9])[H:10].[C:3]1([H:11])([H:12])[C@@:4]([C:6]([O:7][H:17])([H:15])[H:16])([H:13])[O:5]1"
C        2.75309769       0.74636302       0.15870117
O        1.77841231      -0.18186331       0.57596840
C        0.10245432      -0.37619284      -0.64473706
C       -0.96682606      -0.76450105       0.28609947
O       -0.51134977       0.32561951       1.04674288
C       -2.39391172      -0.55325442      -0.18046159
O       -2.59447753       0.74530568      -0.67934760
H        3.58000628       0.73507479       0.87077725
H        2.35155360       1.76463543       0.10058002
H        3.15053914       0.47563833      -0.82439956
H       -0.06800778       0.48955844      -1.27861545
H        0.66426868      -1.16609025      -1.13292967
H       -0.81009208      -1.73565717       0.76497366
H        0.87265944       0.16787509       1.25999772
H       -3.05224166      -0.75383483       0.67517731
H       -2.64024768      -1.25699843      -0.97937689
H       -2.21583721       1.33832200      -0.01915008
17
Frame=10 idx=008924 GeodesicLength=0.924163065477614 rxn_smarts="[C:1]([O:2][C:3]([C@@:4]([O:5][H:14])([C:6]([O:7][H:17])([H:15])[H:16])[H:13])([H:11])[H:12])([H:8])([H:9])[H:10]>>[C:1]([O:2][H:14])([H:8])([H:9])[H:10].[C:3]1([H:11])([H:12])[C@@:4]([C:6]([O:7][H:17])([H:15])[H:16])([H:13])[O:5]1"
C        2.77632444       0.72337219       0.16483196
O        1.76478122      -0.16379852       0.58168867
C        0.09924180      -0.33327677      -0.64731168
C       -0.96124668      -0.74948566       0.28367008
O       -0.52229298       0.35914857       1.03042471
C       -2.39397103      -0.57392091      -0.17592334
O       -2.62933337       0.71304378      -0.68979735
H        3.60665340       0.66566013       0.87033500
H        2.42173620       1.75974001       0.12169764
H        3.15550231       0.44830403      -0.82464589
H       -0.09623546       0.52269718      -1.28807851
H        0.65192782      -1.11891536      -1.15404911
H       -0.77567465      -1.71154977       0.76952173
H        0.84299285       0.20570830       1.27533049
H       -3.04344845      -0.77993167       0.68508999
H       -2.62673053      -1.29241934      -0.96560373
H       -2.27022690       1.32562381      -0.03718064
17
Frame=11 idx=008924 GeodesicLength=1.0136724766946155 rxn_smarts="[C:1]([O:2][C:3]([C@@:4]([O:5][H:14])([C:6]([O:7][H:17])([H:15])[H:16])[H:13])([H:11])[H:12])([H:8])([H:9])[H:10]>>[C:1]([O:2][H:14])([H:8])([H:9])[H:10].[C:3]1([H:11])([H:12])[C@@:4]([C:6]([O:7][H:17])([H:15])[H:16])([H:13])[O:5]1"
C        2.79825695       0.69989262       0.17077971
O        1.75121735      -0.14450500       0.58673829
C        0.09587962      -0.28997818      -0.64985660
C       -0.95515065      -0.73403372       0.28122678
O       -0.53350035       0.39260391       1.01426941
C       -2.39262771      -0.59423472      -0.17127097
O       -2.66254401       0.68006541      -0.69979673
H        3.62954691       0.59447405       0.86929254
H        2.49203395       1.75218028       0.14364457
H        3.15915233       0.42225704      -0.82516046
H       -0.12516154       0.55491751      -1.29789881
H        0.63956268      -1.07125650      -1.17439152
H       -0.74120749      -1.68626818       0.77375511
H        0.81269359       0.24498296       1.29032180
H       -3.03326791      -0.80552311       0.69498427
H       -2.61119731      -1.32699779      -0.95171588
H       -2.32368642       1.31142343      -0.05492151
17
Frame=12 idx=008924 GeodesicLength=1.1030755327957777 rxn_smarts="[C:1]([O:2][C:3]([C@@:4]([O:5][H:14])([C:6]([O:7][H:17])([H:15])[H:16])[H:13])([H:11])[H:12])([H:8])([H:9])[H:10]>>[C:1]([O:2][H:14])([H:8])([H:9])[H:10].[C:3]1([H:11])([H:12])[C@@:4]([C:6]([O:7][H:17])([H:15])[H:16])([H:13])[O:5]1"
C        2.81897902       0.67595852       0.17654606
O        1.73779314      -0.12396826       0.59108272
C        0.09235808      -0.24628065      -0.65239535
C       -0.94853435      -0.71811708       0.27876894
O       -0.54495893       0.42604370       0.99822777
C       -2.38992426      -0.61422323      -0.16649377
O       -2.69418178       0.64637144      -0.70940289
H        3.64862962       0.52152289       0.86754696
H        2.56251659       1.74186369       0.16659185
H        3.16161348       0.39760026      -0.82599364
H       -0.15472775       0.58622524      -1.30802167
H        0.62716212      -1.02314537      -1.19398456
H       -0.70668055      -1.65978598       0.77771889
H        0.78171068       0.28561644       1.30502205
H       -3.02172748      -0.83062332       0.70489565
H       -2.59369659      -1.36079917      -0.93766616
H       -2.37633105       1.29574088      -0.07244287
17
Frame=13 idx=008924 GeodesicLength=1.1922347653763075 rxn_smarts="[C:1]([O:2][C:3]([C@@:4]([O:5][H:14])([C:6]([O:7][H:17])([H:15])[H:16])[H:13])([H:11])[H:12])([H:8])([H:9])[H:10]>>[C:1]([O:2][H:14])([H:8])([H:9])[H:10].[C:3]1([H:11])([H:12])[C@@:4]([C:6]([O:7][H:17])([H:15])[H:16])([H:13])[O:5]1"
C        2.83842049       0.65154081       0.18217996
O        1.72455460      -0.10213826       0.59463567
C        0.08869823      -0.20224973      -0.65495145
C       -0.94141129      -0.70167546       0.27631663
O       -0.55663028       0.45951076       0.98223805
C       -2.38582218      -0.63383358      -0.16158756
O       -2.72415595       0.61190203      -0.71871353
H        3.66385981       0.44684302       0.86477629
H        2.63312309       1.72854650       0.19098302
H        3.16273360       0.37477800      -0.82722750
H       -0.18477701       0.61642866      -1.31849386
H        0.61474091      -0.97476013      -1.21276696
H       -0.67218589      -1.63205234       0.78148482
H        0.75004652       0.32748523       1.31942275
H       -3.00880700      -0.85505963       0.71484197
H       -2.57420878      -1.39382268      -0.92340584
H       -2.42817887       1.27855680      -0.08973245
17
Frame=14 idx=008924 GeodesicLength=1.2813776186096375 rxn_smarts="[C:1]([O:2][C:3]([C@@:4]([O:5][H:14])([C:6]([O:7][H:17])([H:15])[H:16])[H:13])([H:11])[H:12])([H:8])([H:9])[H:10]>>[C:1]([O:2][H:14])([H:8])([H:9])[H:10].[C:3]1([H:11])([H:12])[C@@:4]([C:6]([O:7][H:17])([H:15])[H:16])([H:13])[O:5]1"
C        2.85661416       0.62673123       0.18757144
O        1.71157128      -0.07899990       0.59741611
C        0.08486185      -0.15785106      -0.65751488
C       -0.93376204      -0.68474658       0.27386188
O       -0.56853920       0.49298142       0.96634051
C       -2.38034519      -0.65308225      -0.15654106
O       -2.75248674       0.57673151      -0.72766607
H        3.67487744       0.37058044       0.86103047
H        2.70377347       1.71215425       0.21652573
H        3.16290892       0.35362662      -0.82880279
H       -0.21531064       0.64564391      -1.32916163
H        0.60229902      -0.92604280      -1.23081195
H       -0.63765457      -1.60310991       0.78506426
H        0.71756863       0.37046074       1.33364700
H       -2.99451620      -0.87893124       0.72483781
H       -2.55276203      -1.42603277      -0.90893585
H       -2.47909819       1.25988638      -0.10686096
17
Frame=15 idx=008924 GeodesicLength=1.370409187302762 rxn_smarts="[C:1]([O:2][C:3]([C@@:4]([O:5][H:14])([C:6]([O:7][H:17])([H:15])[H:16])[H:13])([H:11])[H:12])([H:8])([H:9])[H:10]>>[C:1]([O:2][H:14])([H:8])([H:9])[H:10].[C:3]1([H:11])([H:12])[C@@:4]([C:6]([O:7][H:17])([H:15])[H:16])([H:13])[O:5]1"
C        2.87350241       0.60156835       0.19269508
O        1.69890207      -0.05452876       0.59939429
C        0.08085362      -0.11313143      -0.66007621
C       -0.92558784      -0.66734779       0.27140584
O       -0.58066035       0.52639180       0.95055767
C       -2.37347407      -0.67191532      -0.15135544
O       -2.77908162       0.54091434      -0.73623674
H        3.68146146       0.29304983       0.85623789
H        2.77421906       1.69252738       0.24304323
H        3.16228669       0.33418278      -0.83065936
H       -0.24618988       0.67381314      -1.33994520
H        0.58986758      -0.87707130      -1.24810724
H       -0.60313259      -1.57301351       0.78844643
H        0.68422410       0.41430966       1.34777965
H       -2.97884944      -0.90216700       0.73487584
H       -2.52937904      -1.45733311      -0.89427339
H       -2.52896218       1.23975093      -0.12378234
17
Frame=16 idx=008924 GeodesicLength=1.4593583256320823 rxn_smarts="[C:1]([O:2][C:3]([C@@:4]([O:5][H:14])([C:6]([O:7][H:17])([H:15])[H:16])[H:13])([H:11])[H:12])([H:8])([H:9])[H:10]>>[C:1]([O:2][H:14])([H:8])([H:9])[H:10].[C:3]1([H:11])([H:12])[C@@:4]([C:6]([O:7][H:17])([H:15])[H:16])([H:13])[O:5]1"
C        2.88909549       0.57601853       0.19752962
O        1.68656526      -0.02854826       0.60056004
C        0.07665399      -0.06803917      -0.66264125
C       -0.91688281      -0.64942234       0.26896722
O       -0.59304056       0.55981930       0.93485863
C       -2.36518500      -0.69036298      -0.14602459
O       -2.80394001       0.50435416      -0.74450039
H        3.68344495       0.21415934       0.85013425
H        2.84460979       1.66941406       0.27076597
H        3.16089962       0.31656462      -0.83285965
H       -0.27732818       0.70098709      -1.35078025
H        0.57746916      -0.82782207      -1.26464765
H       -0.56859248      -1.54168619       0.79170110
H        0.64988438       0.45905919       1.36187222
H       -2.96179321      -0.92476785       0.74497338
H       -2.50400039      -1.48780133      -0.87936582
H       -2.57786001       1.21807389      -0.14054282
