13
Frame=0 idx=000681 GeodesicLength=0.0 rxn_smarts="[C:1]([c:2]1[c:3]([H:10])[n:4]([H:11])[c:5]([H:12])[c:6]1[H:13])([H:7])([H:8])[H:9]>>[C:1]([C:2]1=[C-:3][N+:4]([H:10])([H:11])[C:5]([H:12])=[C:6]1[H:13])([H:7])([H:8])[H:9]"
C        2.01509853       0.12245132       0.09879552
C        0.53516651      -0.02461059      -0.07487948
C       -0.04904291      -1.11643257      -0.68522549
N       -1.51666157      -0.79075970      -0.45281366
C       -1.67419440       0.47072485       0.10643145
C       -0.42775213       0.94533315       0.34332268
H        2.28713363       0.20152112       1.15427205
H        2.52524312      -0.74270414      -0.32250169
H        2.38911832       1.01797288      -0.40342747
H       -1.02260590      -1.64382708       0.16556479
H       -2.20290919      -1.21858632      -1.05580636
H       -2.64870590       0.88180637       0.31749488
H       -0.20988807       1.89711067       0.80877280
13
Frame=1 idx=000681 GeodesicLength=0.04396832398484566 rxn_smarts="[C:1]([c:2]1[c:3]([H:10])[n:4]([H:11])[c:5]([H:12])[c:6]1[H:13])([H:7])([H:8])[H:9]>>[C:1]([C:2]1=[C-:3][N+:4]([H:10])([H:11])[C:5]([H:12])=[C:6]1[H:13])([H:7])([H:8])[H:9]"
C        2.01478851       0.12168808       0.10055156
C        0.53517394      -0.02054213      -0.07846020
C       -0.05292311      -1.11004198      -0.68648207
N       -1.51653612      -0.79128572      -0.45017759
C       -1.67444392       0.46855024       0.11569241
C       -0.42851051       0.95010669       0.33932214
H        2.28352161       0.20482548       1.15657253
H        2.52346884      -0.74757987      -0.31418622
H        2.39376389       1.01343533      -0.40469150
H       -1.01790660      -1.66419653       0.15895278
H       -2.20094312      -1.20865223      -1.06252503
H       -2.64911628       0.87677353       0.33137410
H       -0.21033713       1.90691911       0.79405707
13
Frame=2 idx=000681 GeodesicLength=0.0879375203143976 rxn_smarts="[C:1]([c:2]1[c:3]([H:10])[n:4]([H:11])[c:5]([H:12])[c:6]1[H:13])([H:7])([H:8])[H:9]>>[C:1]([C:2]1=[C-:3][N+:4]([H:10])([H:11])[C:5]([H:12])=[C:6]1[H:13])([H:7])([H:8])[H:9]"
C        2.01442692       0.12092714       0.10238919
C        0.53517454      -0.01646601      -0.08205355
C       -0.05681972      -1.10373174      -0.68755690
N       -1.51642326      -0.79175900      -0.44753010
C       -1.67455485       0.46637627       0.12507514
C       -0.42928417       0.95500968       0.33503539
H        2.27980488       0.20830968       1.15892701
H        2.52158581      -0.75250266      -0.30560227
H        2.39842243       1.00877032      -0.40595757
H       -1.01306704      -1.68484377       0.15159311
H       -2.19902759      -1.19848106      -1.06899664
H       -2.64933482       0.87162677       0.34569109
H       -0.21090316       1.91676439       0.77898609
13
Frame=3 idx=000681 GeodesicLength=0.13190337501245036 rxn_smarts="[C:1]([c:2]1[c:3]([H:10])[n:4]([H:11])[c:5]([H:12])[c:6]1[H:13])([H:7])([H:8])[H:9]>>[C:1]([C:2]1=[C-:3][N+:4]([H:10])([H:11])[C:5]([H:12])=[C:6]1[H:13])([H:7])([H:8])[H:9]"
C        2.01401964       0.12020322       0.10423139
C        0.53516768      -0.01240319      -0.08564047
C       -0.06073504      -1.09758400      -0.68831729
N       -1.51632887      -0.79220793      -0.44481408
C       -1.67451978       0.46425086       0.13447081
C       -0.43007354       0.96002694       0.33046886
H        2.27605312       0.21202126       1.16123894
H        2.51960614      -0.75741199      -0.29686335
H        2.40303184       1.00402796      -0.40732165
H       -1.00812523      -1.70574008       0.14361405
H       -2.19715391      -1.18816814      -1.07513895
H       -2.64935928       0.86660743       0.35994339
H       -0.21158278       1.92637766       0.76412834
13
Frame=4 idx=000681 GeodesicLength=0.17586680949106637 rxn_smarts="[C:1]([c:2]1[c:3]([H:10])[n:4]([H:11])[c:5]([H:12])[c:6]1[H:13])([H:7])([H:8])[H:9]>>[C:1]([C:2]1=[C-:3][N+:4]([H:10])([H:11])[C:5]([H:12])=[C:6]1[H:13])([H:7])([H:8])[H:9]"
C        2.01356375       0.11950967       0.10609726
C        0.53515302      -0.00834910      -0.08923324
C       -0.06466950      -1.09159037      -0.68878029
N       -1.51625494      -0.79262969      -0.44202819
C       -1.67433598       0.46217721       0.14388475
C       -0.43088261       0.96514553       0.32564094
H        2.27224837       0.21592999       1.16353107
H        2.51752853      -0.76230600      -0.28795817
H        2.40760303       0.99920716      -0.40874000
H       -1.00307421      -1.72688984       0.13496046
H       -2.19532736      -1.17771327      -1.08095054
H       -2.64918383       0.86167282       0.37423838
H       -0.21236827       1.93583588       0.74933757
13
Frame=5 idx=000681 GeodesicLength=0.2198263002147674 rxn_smarts="[C:1]([c:2]1[c:3]([H:10])[n:4]([H:11])[c:5]([H:12])[c:6]1[H:13])([H:7])([H:8])[H:9]>>[C:1]([C:2]1=[C-:3][N+:4]([H:10])([H:11])[C:5]([H:12])=[C:6]1[H:13])([H:7])([H:8])[H:9]"
C        2.01306099       0.11885950       0.10795861
C        0.53512955      -0.00431199      -0.09282843
C       -0.06862376      -1.08578719      -0.68888846
N       -1.51620569      -0.79303585      -0.43914728
C       -1.67400359       0.46018516       0.15325749
C       -0.43171290       0.97035233       0.32056270
H        2.26841546       0.22005037       1.16576728
H        2.51535958      -0.76715848      -0.27892969
H        2.41211253       0.99432775      -0.41024440
H       -0.99793107      -1.74827978       0.12566829
H       -2.19354222      -1.16716594      -1.08639949
H       -2.64881219       0.85691241       0.38840001
H       -0.21324668       1.94505171       0.73482337
13
Frame=6 idx=000681 GeodesicLength=0.2637829992987845 rxn_smarts="[C:1]([c:2]1[c:3]([H:10])[n:4]([H:11])[c:5]([H:12])[c:6]1[H:13])([H:7])([H:8])[H:9]>>[C:1]([C:2]1=[C-:3][N+:4]([H:10])([H:11])[C:5]([H:12])=[C:6]1[H:13])([H:7])([H:8])[H:9]"
C        2.01250833       0.11824437       0.10983844
C        0.53509702      -0.00028687      -0.09643782
C       -0.07259807      -1.08016313      -0.68866132
N       -1.51618318      -0.79342129      -0.43617354
C       -1.67352238       0.45828080       0.16259136
C       -0.43256717       0.97563621       0.31525292
H        2.26453368       0.22435556       1.16797459
H        2.51309764      -0.77197337      -0.26975608
H        2.41657463       0.98938357      -0.41179137
H       -0.99268886      -1.76991232       0.11567211
H       -2.19180214      -1.15652262      -1.09149216
H       -2.64823809       0.85226772       0.40257135
H       -0.21421139       1.95411138       0.72041152
13
Frame=7 idx=000681 GeodesicLength=0.30773527609099005 rxn_smarts="[C:1]([c:2]1[c:3]([H:10])[n:4]([H:11])[c:5]([H:12])[c:6]1[H:13])([H:7])([H:8])[H:9]>>[C:1]([C:2]1=[C-:3][N+:4]([H:10])([H:11])[C:5]([H:12])=[C:6]1[H:13])([H:7])([H:8])[H:9]"
C        2.01190770       0.11767470       0.11171376
C        0.53505387       0.00371652      -0.10005150
C       -0.07659317      -1.07474672      -0.68804922
N       -1.51619146      -0.79379662      -0.43308191
C       -1.67289631       0.45648811       0.17184370
C       -0.43344668       0.98097761       0.30974114
H        2.26063004       0.22885554       1.17012245
H        2.51074952      -0.77672711      -0.26047630
H        2.42096610       0.98439198      -0.41340752
H       -0.98736040      -1.79177939       0.10499052
H       -2.19010044      -1.14582644      -1.09620281
H       -2.64747076       0.84781990       0.41659702
H       -0.21524801       1.96295194       0.70626066
13
Frame=8 idx=000681 GeodesicLength=0.35167519966841665 rxn_smarts="[C:1]([c:2]1[c:3]([H:10])[n:4]([H:11])[c:5]([H:12])[c:6]1[H:13])([H:7])([H:8])[H:9]>>[C:1]([C:2]1=[C-:3][N+:4]([H:10])([H:11])[C:5]([H:12])=[C:6]1[H:13])([H:7])([H:8])[H:9]"
C        2.01127257       0.11719416       0.11347356
C        0.53499565       0.00766256      -0.10362687
C       -0.08060838      -1.06965409      -0.68685749
N       -1.51624024      -0.79419608      -0.42981727
C       -1.67214848       0.45489973       0.18080901
C       -0.43434981       0.98635097       0.30405559
H        2.25681630       0.23360947       1.17207293
H        2.50834716      -0.78133981      -0.25125852
H        2.42519915       0.97942232      -0.41524005
H       -0.98201133      -1.81383353       0.09384702
H       -2.18840240      -1.13523518      -1.10046530
H       -2.64656300       0.84387736       0.42982108
H       -0.21630720       1.97124209       0.69318630
13
Frame=9 idx=000681 GeodesicLength=0.39560781528436395 rxn_smarts="[C:1]([c:2]1[c:3]([H:10])[n:4]([H:11])[c:5]([H:12])[c:6]1[H:13])([H:7])([H:8])[H:9]>>[C:1]([C:2]1=[C-:3][N+:4]([H:10])([H:11])[C:5]([H:12])=[C:6]1[H:13])([H:7])([H:8])[H:9]"
C        2.01060237       0.11679156       0.11514329
C        0.53492076       0.01155398      -0.10716616
C       -0.08464362      -1.06486567      -0.68511305
N       -1.51633258      -0.79461490      -0.42638141
C       -1.67129036       0.45351362       0.18951450
C       -0.43527918       0.99174606       0.29822701
H        2.25307739       0.23859263       1.17385648
H        2.50589305      -0.78582286      -0.24207536
H        2.42929051       0.97446356      -0.41725147
H       -0.97662811      -1.83608804       0.08216390
H       -2.18670817      -1.12474267      -1.10429846
H       -2.64552887       0.84038071       0.44239353
H       -0.21737319       1.97909202       0.68098719
13
Frame=10 idx=000681 GeodesicLength=0.43951852208326214 rxn_smarts="[C:1]([c:2]1[c:3]([H:10])[n:4]([H:11])[c:5]([H:12])[c:6]1[H:13])([H:7])([H:8])[H:9]>>[C:1]([C:2]1=[C-:3][N+:4]([H:10])([H:11])[C:5]([H:12])=[C:6]1[H:13])([H:7])([H:8])[H:9]"
C        2.00989960       0.11647335       0.11670816
C        0.53482508       0.01537723      -0.11064558
C       -0.08870021      -1.06039743      -0.68277113
N       -1.51647425      -0.79505598      -0.42275747
C       -1.67033849       0.45234741       0.19793692
C       -0.43623220       0.99713722       0.29229093
H        2.24944483       0.24382430       1.17544598
H        2.50339393      -0.79016075      -0.23294258
H        2.43321825       0.96951774      -0.41947322
H       -0.97122061      -1.85853550       0.06993913
H       -2.18500362      -1.11437620      -1.10770503
H       -2.64439420       0.83737588       0.45421686
H       -0.21841812       1.98647273       0.66975701
13
Frame=11 idx=000681 GeodesicLength=0.48343384067096395 rxn_smarts="[C:1]([c:2]1[c:3]([H:10])[n:4]([H:11])[c:5]([H:12])[c:6]1[H:13])([H:7])([H:8])[H:9]>>[C:1]([C:2]1=[C-:3][N+:4]([H:10])([H:11])[C:5]([H:12])=[C:6]1[H:13])([H:7])([H:8])[H:9]"
C        2.00915508       0.11619844       0.11827477
C        0.53471107       0.01914971      -0.11407604
C       -0.09277661      -1.05616063      -0.67996878
N       -1.51666270      -0.79549074      -0.41898308
C       -1.66928527       0.45133731       0.20624358
C       -0.43721164       1.00252969       0.28628578
H        2.24583377       0.24925437       1.17696797
H        2.50083121      -0.79442518      -0.22370200
H        2.43705256       0.96452212      -0.42177961
H       -0.96574707      -1.88122677       0.05688889
H       -2.18330419      -1.10401146      -1.11075972
H       -2.64312194       0.83458712       0.46593002
H       -0.21947426       1.99373602       0.65867822
13
Frame=12 idx=000681 GeodesicLength=0.5273424266189252 rxn_smarts="[C:1]([c:2]1[c:3]([H:10])[n:4]([H:11])[c:5]([H:12])[c:6]1[H:13])([H:7])([H:8])[H:9]>>[C:1]([C:2]1=[C-:3][N+:4]([H:10])([H:11])[C:5]([H:12])=[C:6]1[H:13])([H:7])([H:8])[H:9]"
C        2.00837944       0.11599526       0.11976808
C        0.53457298       0.02284458      -0.11742156
C       -0.09687449      -1.05222938      -0.67657320
N       -1.51690782      -0.79594326      -0.41501159
C       -1.66815844       0.45054265       0.21432401
C       -0.43821512       1.00789952       0.28023759
H        2.24232788       0.25493801       1.17832601
H        2.49822762      -0.79856827      -0.21445368
H        2.44073560       0.95951292      -0.42428472
H       -0.96023915      -1.90413163       0.04313838
H       -2.18158204      -1.09375509      -1.11342550
H       -2.64176929       0.83222763       0.47707660
H       -0.22049716       2.00066705       0.64829959
13
Frame=13 idx=000681 GeodesicLength=0.5712305929430778 rxn_smarts="[C:1]([c:2]1[c:3]([H:10])[n:4]([H:11])[c:5]([H:12])[c:6]1[H:13])([H:7])([H:8])[H:9]>>[C:1]([C:2]1=[C-:3][N+:4]([H:10])([H:11])[C:5]([H:12])=[C:6]1[H:13])([H:7])([H:8])[H:9]"
C        2.00756025       0.11582215       0.12130248
C        0.53441346       0.02647880      -0.12069363
C       -0.10099730      -1.04850790      -0.67270511
N       -1.51720772      -0.79638133      -0.41086688
C       -1.66694076       0.44988941       0.22233894
C       -0.43924099       1.01324386       0.27417004
H        2.23884160       0.26079998       1.17964581
H        2.49556133      -0.80263770      -0.20505605
H        2.44433192       0.95442945      -0.42682336
H       -0.95464905      -1.92726899       0.02838329
H       -2.17986339      -1.08346944      -1.11574329
H       -2.64027646       0.83000892       0.48829493
H       -0.22153289       2.00759281       0.63775282
13
Frame=14 idx=000681 GeodesicLength=0.6151421686020871 rxn_smarts="[C:1]([c:2]1[c:3]([H:10])[n:4]([H:11])[c:5]([H:12])[c:6]1[H:13])([H:7])([H:8])[H:9]>>[C:1]([C:2]1=[C-:3][N+:4]([H:10])([H:11])[C:5]([H:12])=[C:6]1[H:13])([H:7])([H:8])[H:9]"
C        2.00669766       0.11567935       0.12287869
C        0.53423201       0.03004924      -0.12389571
C       -0.10514411      -1.04501708      -0.66835439
N       -1.51756622      -0.79681542      -0.40653702
C       -1.66563878       0.44939356       0.23030659
C       -0.44028960       1.01857504       0.26807777
H        2.23536842       0.26688682       1.18093350
H        2.49283042      -0.80666191      -0.19546404
H        2.44785097       0.94925618      -0.42943633
H       -0.94897384      -1.95065553       0.01254827
H       -2.17813960      -1.07317282      -1.11772405
H       -2.63864772       0.82794565       0.49961786
H       -0.22257962       2.01453693       0.62704886
13
Frame=15 idx=000681 GeodesicLength=0.6590285799994876 rxn_smarts="[C:1]([c:2]1[c:3]([H:10])[n:4]([H:11])[c:5]([H:12])[c:6]1[H:13])([H:7])([H:8])[H:9]>>[C:1]([C:2]1=[C-:3][N+:4]([H:10])([H:11])[C:5]([H:12])=[C:6]1[H:13])([H:7])([H:8])[H:9]"
C        2.00579340       0.11557517       0.12448290
C        0.53402403       0.03354193      -0.12700442
C       -0.10931964      -1.04176333      -0.66345331
N       -1.51798941      -0.79724173      -0.40199674
C       -1.66425951       0.44905309       0.23821304
C       -0.44135990       1.02386616       0.26196575
H        2.23194138       0.27325557       1.18214329
H        2.49003497      -0.81062557      -0.18564780
H        2.45127058       0.94396282      -0.43217444
H       -0.94321771      -1.97424270      -0.00441461
H       -2.17640018      -1.06286817      -1.11935055
H       -2.63689340       0.82606824       0.51094687
H       -0.22362462       2.02141853       0.61629000
13
Frame=16 idx=000681 GeodesicLength=0.7029338145051564 rxn_smarts="[C:1]([c:2]1[c:3]([H:10])[n:4]([H:11])[c:5]([H:12])[c:6]1[H:13])([H:7])([H:8])[H:9]>>[C:1]([C:2]1=[C-:3][N+:4]([H:10])([H:11])[C:5]([H:12])=[C:6]1[H:13])([H:7])([H:8])[H:9]"
C        2.00483122       0.11547687       0.12621069
C        0.53379450       0.03698067      -0.13006535
C       -0.11352552      -1.03869321      -0.65811474
N       -1.51847404      -0.79765292      -0.39724960
C       -1.66277646       0.44882282       0.24620698
C       -0.44245177       1.02914606       0.25581214
H        2.22845486       0.27986825       1.18339772
H        2.48714292      -0.81459779      -0.17545407
H        2.45466531       0.93849749      -0.43491787
H       -0.93733020      -1.99806080      -0.02281434
H       -2.17466952      -1.05246718      -1.12063746
H       -2.63493885       0.82415949       0.52284389
H       -0.22472245       2.02852025       0.60478201
