16
Frame=0 idx=010834 GeodesicLength=0.0 rxn_smarts="[C:1]([C@@:2]([C:3]([C:4]([O:5][H:16])([H:14])[H:15])([H:12])[H:13])([C:6]#[N:7])[H:11])([H:8])([H:9])[H:10]>>[C:1]1([H:9])([H:10])[C:2]([C:6]#[N:7])([H:11])[C:3]([H:12])([H:13])[C:4]1([H:14])[H:15].[O:5]([H:8])[H:16]"
C       -0.64112140      -0.95768489      -0.51483933
C       -0.29596837      -0.65028796       0.93091354
C        0.27028957       0.75770912       0.83560468
C        1.25116279       0.65891229      -0.27415605
O        0.72870067       0.56101929      -2.29397164
C       -1.40176707      -0.76611582       1.88794495
N       -2.28373751      -0.84367687       2.61920365
H        0.17535231      -0.14444150      -1.78254807
H       -1.58438411      -0.48078619      -0.80021892
H       -0.67933903      -2.02075887      -0.75244750
H        0.49295288      -1.32570131       1.27691561
H       -0.53372980       1.45588503       0.58842239
H        0.76418176       1.16342458       1.73225836
H        1.85963178      -0.23344444      -0.32038638
H        1.75928140       1.56126200      -0.58857521
H        0.11849414       1.26468548      -2.54412007
16
Frame=1 idx=010834 GeodesicLength=0.12032972783220694 rxn_smarts="[C:1]([C@@:2]([C:3]([C:4]([O:5][H:16])([H:14])[H:15])([H:12])[H:13])([C:6]#[N:7])[H:11])([H:8])([H:9])[H:10]>>[C:1]1([H:9])([H:10])[C:2]([C:6]#[N:7])([H:11])[C:3]([H:12])([H:13])[C:4]1([H:14])[H:15].[O:5]([H:8])[H:16]"
C       -0.67961180      -0.92277253      -0.51494003
C       -0.29812766      -0.65128053       0.92832069
C        0.25110641       0.76469129       0.84976211
C        1.21361218       0.68461412      -0.27994902
O        0.79861493       0.48058780      -2.30762947
C       -1.37288880      -0.80080972       1.91408075
N       -2.22659698      -0.90808529       2.67454433
H        0.13612287      -0.15991877      -1.79840279
H       -1.62342030      -0.43024267      -0.76986382
H       -0.74892244      -1.97982942      -0.77173040
H        0.50078690      -1.33751885       1.22639832
H       -0.55504433       1.46641745       0.62057057
H        0.74997430       1.16026776       1.74716872
H        1.87045269      -0.17496103      -0.29182823
H        1.71398571       1.59901503      -0.57509770
H        0.26995633       1.20982536      -2.65140402
16
Frame=2 idx=010834 GeodesicLength=0.23696278848075947 rxn_smarts="[C:1]([C@@:2]([C:3]([C:4]([O:5][H:16])([H:14])[H:15])([H:12])[H:13])([C:6]#[N:7])[H:11])([H:8])([H:9])[H:10]>>[C:1]1([H:9])([H:10])[C:2]([C:6]#[N:7])([H:11])[C:3]([H:12])([H:13])[C:4]1([H:14])[H:15].[O:5]([H:8])[H:16]"
C       -0.71842833      -0.88576325      -0.51578642
C       -0.29972050      -0.65205955       0.92349034
C        0.23315285       0.77142413       0.86345375
C        1.17622315       0.71068530      -0.28651040
O        0.86327786       0.39442340      -2.31024169
C       -1.34177791      -0.83655590       1.93655826
N       -2.16733468      -0.97296630       2.72300072
H        0.09008416      -0.16429385      -1.81534023
H       -1.66363696      -0.38005660      -0.73711948
H       -0.81819795      -1.93567731      -0.79138021
H        0.50755826      -1.34802322       1.17196751
H       -0.57478927       1.47711395       0.65394393
H        0.73793116       1.15575840       1.76141259
H        1.88107903      -0.11097196      -0.26343361
H        1.66189678       1.63843593      -0.56824805
H        0.43268234       1.13852682      -2.74576700
16
Frame=3 idx=010834 GeodesicLength=0.3503213737146 rxn_smarts="[C:1]([C@@:2]([C:3]([C:4]([O:5][H:16])([H:14])[H:15])([H:12])[H:13])([C:6]#[N:7])[H:11])([H:8])([H:9])[H:10]>>[C:1]1([H:9])([H:10])[C:2]([C:6]#[N:7])([H:11])[C:3]([H:12])([H:13])[C:4]1([H:14])[H:15].[O:5]([H:8])[H:16]"
C       -0.75690035      -0.84662380      -0.51775041
C       -0.30065119      -0.65239395       0.91600282
C        0.21681427       0.77798479       0.87618811
C        1.14028774       0.73676252      -0.29339975
O        0.91972844       0.30421170      -2.30100197
C       -1.30876006      -0.87278884       1.95443067
N       -2.10647378      -1.03809574       2.76374144
H        0.03993900      -0.15745014      -1.83378096
H       -1.70447724      -0.33085529      -0.70242704
H       -0.88615386      -1.88842415      -0.81157050
H        0.51308939      -1.35688708       1.11377429
H       -0.59227873       1.48802999       0.68725155
H        0.72782805       1.15023943       1.77467363
H        1.89171227      -0.04213658      -0.23585215
H        1.60423290       1.67884462      -0.56814831
H        0.60206315       1.04958251      -2.82213141
16
Frame=4 idx=010834 GeodesicLength=0.46169279585509493 rxn_smarts="[C:1]([C@@:2]([C:3]([C:4]([O:5][H:16])([H:14])[H:15])([H:12])[H:13])([C:6]#[N:7])[H:11])([H:8])([H:9])[H:10]>>[C:1]1([H:9])([H:10])[C:2]([C:6]#[N:7])([H:11])[C:3]([H:12])([H:13])[C:4]1([H:14])[H:15].[O:5]([H:8])[H:16]"
C       -0.79451701      -0.80521929      -0.52111359
C       -0.30100607      -0.65199352       0.90559799
C        0.20234821       0.78450690       0.88772387
C        1.10672971       0.76284053      -0.30024170
O        0.96656706       0.21287521      -2.28030243
C       -1.27451903      -0.90893821       1.96686762
N       -2.04417010      -1.10382453       2.79651875
H       -0.00906981      -0.14310361      -1.85364341
H       -1.74478262      -0.28203855      -0.66690080
H       -0.95282096      -1.83803739      -0.83228524
H        0.51712199      -1.36377243       1.05212905
H       -0.60701680       1.49936156       0.71967294
H        0.71948708       1.14385841       1.78692850
H        1.90232533       0.03093459      -0.20989676
H        1.54248591       1.71967704      -0.57404831
H        0.77083711       0.94287328      -2.87700648
16
Frame=5 idx=010834 GeodesicLength=0.5725069067472132 rxn_smarts="[C:1]([C@@:2]([C:3]([C:4]([O:5][H:16])([H:14])[H:15])([H:12])[H:13])([C:6]#[N:7])[H:11])([H:8])([H:9])[H:10]>>[C:1]1([H:9])([H:10])[C:2]([C:6]#[N:7])([H:11])[C:3]([H:12])([H:13])[C:4]1([H:14])[H:15].[O:5]([H:8])[H:16]"
C       -0.83089350      -0.76195409      -0.52574609
C       -0.30102405      -0.65062957       0.89242129
C        0.18974833       0.79107236       0.89775882
C        1.07577719       0.78868165      -0.30715745
O        1.00403270       0.12356415      -2.24994602
C       -1.23987902      -0.94420504       1.97368059
N       -1.98041341      -1.17022255       2.82172926
H       -0.05301589      -0.12671036      -1.87483997
H       -1.78347477      -0.23342782      -0.63152151
H       -1.01794554      -1.78508767      -0.85297349
H        0.51938713      -1.36833711       0.98794017
H       -0.61887877       1.51119693       0.75042218
H        0.71270479       1.13689022       1.79786957
H        1.91231069       0.10701439      -0.18684796
H        1.47836098       1.75990109      -0.58465819
H        0.93320314       0.82225341      -2.90813121
16
Frame=6 idx=010834 GeodesicLength=0.6837014878956699 rxn_smarts="[C:1]([C@@:2]([C:3]([C:4]([O:5][H:16])([H:14])[H:15])([H:12])[H:13])([C:6]#[N:7])[H:11])([H:8])([H:9])[H:10]>>[C:1]1([H:9])([H:10])[C:2]([C:6]#[N:7])([H:11])[C:3]([H:12])([H:13])[C:4]1([H:14])[H:15].[O:5]([H:8])[H:16]"
C       -0.86574242      -0.71731075      -0.53129414
C       -0.30086870      -0.64828613       0.87691978
C        0.17900331       0.79763376       0.90635598
C        1.04722046       0.81429602      -0.31427557
O        1.03381784       0.03882696      -2.21188967
C       -1.20551716      -0.97824085       1.97513616
N       -1.91558772      -1.23692257       2.83973076
H       -0.09042797      -0.11205628      -1.89694763
H       -1.81992654      -0.18515685      -0.59678959
H       -1.08098946      -1.73018474      -0.87323029
H        0.51982481      -1.37052787       0.92229534
H       -0.62791275       1.52346569       0.77951394
H        0.70759466       1.12924356       1.80749138
H        1.92096716       0.18499804      -0.16761126
H        1.41320205       1.79890867      -0.59849515
H        1.08534245       0.69131333      -2.91691003
16
Frame=7 idx=010834 GeodesicLength=0.7957046693995342 rxn_smarts="[C:1]([C@@:2]([C:3]([C:4]([O:5][H:16])([H:14])[H:15])([H:12])[H:13])([C:6]#[N:7])[H:11])([H:8])([H:9])[H:10]>>[C:1]1([H:9])([H:10])[C:2]([C:6]#[N:7])([H:11])[C:3]([H:12])([H:13])[C:4]1([H:14])[H:15].[O:5]([H:8])[H:16]"
C       -0.89874213      -0.67204960      -0.53737722
C       -0.30065420      -0.64505184       0.85965352
C        0.17005004       0.80408426       0.91346707
C        1.02070377       0.83945068      -0.32191469
O        1.05717401      -0.04000614      -2.16824601
C       -1.17195135      -1.01062896       1.97186064
N       -1.85020534      -1.30306798       2.85109851
H       -0.12226661      -0.10061668      -1.91978997
H       -1.85391732      -0.13821274      -0.56277598
H       -1.14087238      -1.67433243      -0.89272071
H        0.51846020      -1.37047938       0.85645152
H       -0.63424709       1.53597997       0.80681986
H        0.70425230       1.12097323       1.81556251
H        1.92766195       0.26344671      -0.15302089
H        1.34820701       1.83602802      -0.61432829
H        1.22634716       0.55448288      -2.90473987
16
Frame=8 idx=010834 GeodesicLength=0.9086024012693372 rxn_smarts="[C:1]([C@@:2]([C:3]([C:4]([O:5][H:16])([H:14])[H:15])([H:12])[H:13])([C:6]#[N:7])[H:11])([H:8])([H:9])[H:10]>>[C:1]1([H:9])([H:10])[C:2]([C:6]#[N:7])([H:11])[C:3]([H:12])([H:13])[C:4]1([H:14])[H:15].[O:5]([H:8])[H:16]"
C       -0.92961280      -0.62692498      -0.54368589
C       -0.30041338      -0.64108094       0.84117542
C        0.16287609       0.81031126       0.91905380
C        0.99590406       0.86390831      -0.33039088
O        1.07494377      -0.11226179      -2.12100870
C       -1.13949699      -1.04102589       1.96465277
N       -1.78507076      -1.36774082       2.85631795
H       -0.15015943      -0.09262841      -1.94326093
H       -1.88540171      -0.09367748      -0.52941684
H       -1.19666325      -1.61857463      -0.91124005
H        0.51544375      -1.36849897       0.79155479
H       -0.63797737       1.54854528       0.83226080
H        0.70287413       1.11216182       1.82183082
H        1.93205538       0.34100738      -0.14363122
H        1.28434872       1.87087617      -0.63112779
H        1.35634980       0.41560371      -2.87308403
16
Frame=9 idx=010834 GeodesicLength=1.022471933979097 rxn_smarts="[C:1]([C@@:2]([C:3]([C:4]([O:5][H:16])([H:14])[H:15])([H:12])[H:13])([C:6]#[N:7])[H:11])([H:8])([H:9])[H:10]>>[C:1]1([H:9])([H:10])[C:2]([C:6]#[N:7])([H:11])[C:3]([H:12])([H:13])[C:4]1([H:14])[H:15].[O:5]([H:8])[H:16]"
C       -0.95808790      -0.58224935      -0.55007843
C       -0.30010914      -0.63648131       0.82190986
C        0.15744473       0.81625828       0.92334886
C        0.97260329       0.88784160      -0.33961437
O        1.08835594      -0.17736048      -2.07130413
C       -1.10842813      -1.06942563       1.95405827
N       -1.72080821      -1.43074235       2.85571199
H       -0.17524506      -0.08746059      -1.96701277
H       -1.91424033      -0.05195550      -0.49684231
H       -1.24779435      -1.56335848      -0.92896391
H        0.51102554      -1.36489195       0.72836571
H       -0.63926330       1.56099320       0.85617453
H        0.70350616       1.10271952       1.82646891
H        1.93421179       0.41718011      -0.13917756
H        1.22212648       1.90372507      -0.64788914
H        1.47470249       0.27520785      -2.82515553
16
Frame=10 idx=010834 GeodesicLength=1.1371349597226508 rxn_smarts="[C:1]([C@@:2]([C:3]([C:4]([O:5][H:16])([H:14])[H:15])([H:12])[H:13])([C:6]#[N:7])[H:11])([H:8])([H:9])[H:10]>>[C:1]1([H:9])([H:10])[C:2]([C:6]#[N:7])([H:11])[C:3]([H:12])([H:13])[C:4]1([H:14])[H:15].[O:5]([H:8])[H:16]"
C       -0.98408416      -0.53871359      -0.55642829
C       -0.29971554      -0.63149131       0.80223735
C        0.15372917       0.82178865       0.92622521
C        0.95056857       0.91091516      -0.34988016
O        1.09765508      -0.23534412      -2.02104610
C       -1.07878713      -1.09563618       1.94090073
N       -1.65801736      -1.49105146       2.85009780
H       -0.19918333      -0.08448483      -1.99115469
H       -1.94050233      -0.01385983      -0.46509153
H       -1.29392658      -1.50963575      -0.94582169
H        0.50542567      -1.36016066       0.66758080
H       -0.63820364       1.57310928       0.87833438
H        0.70627043       1.09278584       1.82915277
H        1.93411013       0.49076813      -0.13986114
H        1.16213769       1.93443754      -0.66400643
H        1.58252332       0.13657314      -2.76123902
16
Frame=11 idx=010834 GeodesicLength=1.2524920671370254 rxn_smarts="[C:1]([C@@:2]([C:3]([C:4]([O:5][H:16])([H:14])[H:15])([H:12])[H:13])([C:6]#[N:7])[H:11])([H:8])([H:9])[H:10]>>[C:1]1([H:9])([H:10])[C:2]([C:6]#[N:7])([H:11])[C:3]([H:12])([H:13])[C:4]1([H:14])[H:15].[O:5]([H:8])[H:16]"
C       -1.00753798      -0.49660996      -0.56272185
C       -0.29913472      -0.62627834       0.78239675
C        0.15164648       0.82685331       0.92778982
C        0.92966983       0.93319674      -0.36112292
O        1.10362321      -0.28611925      -1.97137321
C       -1.05054593      -1.11981060       1.92569944
N       -1.59707289      -1.54836200       2.84010055
H       -0.22295900      -0.08277423      -2.01562154
H       -1.96416998       0.02040500      -0.43435863
H       -1.33499193      -1.45780470      -0.96201011
H        0.49896351      -1.35467960       0.60948958
H       -0.63500835       1.58472352       0.89886028
H        0.71107383       1.08241000       1.82995933
H        1.93200331       0.56142271      -0.14524600
H        1.10462944       1.96336173      -0.67888537
H        1.67981116       0.00006565      -2.68295611
16
Frame=12 idx=010834 GeodesicLength=1.3684190405844994 rxn_smarts="[C:1]([C@@:2]([C:3]([C:4]([O:5][H:16])([H:14])[H:15])([H:12])[H:13])([C:6]#[N:7])[H:11])([H:8])([H:9])[H:10]>>[C:1]1([H:9])([H:10])[C:2]([C:6]#[N:7])([H:11])[C:3]([H:12])([H:13])[C:4]1([H:14])[H:15].[O:5]([H:8])[H:16]"
C       -1.02839402      -0.45612785      -0.56898291
C       -0.29822181      -0.62096184       0.76255479
C        0.15110235       0.83145679       0.92816288
C        0.90984954       0.95481217      -0.37320099
O        1.10716022      -0.32970015      -1.92311834
C       -1.02357867      -1.14213152       1.90887000
N       -1.53827251      -1.60267466       2.82618605
H       -0.24724057      -0.08145825      -2.04040302
H       -1.98520358       0.05081620      -0.40488890
H       -1.37100870      -1.40811981      -0.97773476
H        0.49201097      -1.34872328       0.55421565
H       -0.62990855       1.59571413       0.91785133
H        0.71774263       1.07170382       1.82902588
H        1.92822876       0.62907865      -0.15473227
H        1.04972747       1.99089096      -0.69206511
H        1.76600648      -0.13457535      -2.59174028
16
Frame=13 idx=010834 GeodesicLength=1.4847485392570479 rxn_smarts="[C:1]([C@@:2]([C:3]([C:4]([O:5][H:16])([H:14])[H:15])([H:12])[H:13])([C:6]#[N:7])[H:11])([H:8])([H:9])[H:10]>>[C:1]1([H:9])([H:10])[C:2]([C:6]#[N:7])([H:11])[C:3]([H:12])([H:13])[C:4]1([H:14])[H:15].[O:5]([H:8])[H:16]"
C       -1.04686457      -0.41751805      -0.57523233
C       -0.29688004      -0.61576503       0.74272551
C        0.15210427       0.83548566       0.92721225
C        0.89092868       0.97555115      -0.38636133
O        1.10866915      -0.36679766      -1.87761682
C       -0.99753695      -1.16274147       1.89086843
N       -1.48172516      -1.65358850       2.80907978
H       -0.27294963      -0.08010638      -2.06573871
H       -2.00374703       0.07741158      -0.37669624
H       -1.40250805      -1.36088135      -0.99299244
H        0.48476219      -1.34272189       0.50153970
H       -0.62291699       1.60597227       0.93524063
H        0.72644625       1.06066475       1.82607449
H        1.92293841       0.69328735      -0.16821082
H        0.99745176       2.01703414      -0.70363596
H        1.84182771      -0.26528658      -2.48625614
16
Frame=14 idx=010834 GeodesicLength=1.6014735844675776 rxn_smarts="[C:1]([C@@:2]([C:3]([C:4]([O:5][H:16])([H:14])[H:15])([H:12])[H:13])([C:6]#[N:7])[H:11])([H:8])([H:9])[H:10]>>[C:1]1([H:9])([H:10])[C:2]([C:6]#[N:7])([H:11])[C:3]([H:12])([H:13])[C:4]1([H:14])[H:15].[O:5]([H:8])[H:16]"
C       -1.06256555      -0.38081153      -0.58158921
C       -0.29483301      -0.61063741       0.72307761
C        0.15440622       0.83913790       0.92524338
C        0.87317792       0.99581996      -0.39996956
O        1.10979320      -0.39727328      -1.83441057
C       -0.97230406      -1.18189647       1.87182421
N       -1.42768852      -1.70169190       2.78884302
H       -0.29973950      -0.07776960      -2.09145271
H       -2.01952883       0.10020963      -0.35033737
H       -1.42893729      -1.31615673      -1.00815416
H        0.47780981      -1.33659194       0.45166583
H       -0.61453337       1.61545004       0.95101766
H        0.73639965       1.04969485       1.82171085
H        1.91671272       0.75458578      -0.18440361
H        0.94803096       2.04234386      -0.71297195
H        1.90379965      -0.39441317      -2.37009341
16
Frame=15 idx=010834 GeodesicLength=1.7186803408191216 rxn_smarts="[C:1]([C@@:2]([C:3]([C:4]([O:5][H:16])([H:14])[H:15])([H:12])[H:13])([C:6]#[N:7])[H:11])([H:8])([H:9])[H:10]>>[C:1]1([H:9])([H:10])[C:2]([C:6]#[N:7])([H:11])[C:3]([H:12])([H:13])[C:4]1([H:14])[H:15].[O:5]([H:8])[H:16]"
C       -1.07588733      -0.34623177      -0.58816869
C       -0.29224988      -0.60592430       0.70354441
C        0.15816868       0.84207846       0.92204973
C        0.85648570       1.01493541      -0.41445978
O        1.11111519      -0.42328976      -1.79432500
C       -0.94796390      -1.19964912       1.85208683
N       -1.37596274      -1.74612664       2.76679456
H       -0.32800076      -0.07509308      -2.11784227
H       -2.03273947       0.11963703      -0.32588705
H       -1.45137164      -1.27412102      -1.02315352
H        0.47086713      -1.33103993       0.40427247
H       -0.60440149       1.62406010       0.96513469
H        0.74813732       1.03837147       1.81553052
H        1.90972578       0.81231340      -0.20336218
H        0.90141329       2.06618551      -0.72083989
H        1.95266412      -0.51610578      -2.24137485
16
Frame=16 idx=010834 GeodesicLength=1.8365062634488734 rxn_smarts="[C:1]([C@@:2]([C:3]([C:4]([O:5][H:16])([H:14])[H:15])([H:12])[H:13])([C:6]#[N:7])[H:11])([H:8])([H:9])[H:10]>>[C:1]1([H:9])([H:10])[C:2]([C:6]#[N:7])([H:11])[C:3]([H:12])([H:13])[C:4]1([H:14])[H:15].[O:5]([H:8])[H:16]"
C       -1.08636862      -0.31384877      -0.59503005
C       -0.28909845      -0.60141525       0.68456180
C        0.16290791       0.84466964       0.91800010
C        0.84133468       1.03307340      -0.42897532
O        1.11425910      -0.44518819      -1.75574388
C       -0.92487287      -1.21582460       1.83203034
N       -1.32636792      -1.78789754       2.74311643
H       -0.35684743      -0.07154616      -2.14458314
H       -2.04316943       0.13558226      -0.30401515
H       -1.46897462      -1.23496583      -1.03816845
H        0.46429967      -1.32585204       0.36012713
H       -0.59322818       1.63199215       0.97719424
H        0.76033220       1.02747454       1.80835273
H        1.90257373       0.86660212      -0.22349879
H        0.85821915       2.08873666      -0.72668307
H        1.98500109      -0.63159242      -2.10668491
