16
Frame=0 idx=010649 GeodesicLength=0.0 rxn_smarts="[C:1]([C@@:2]1([H:11])[N:3]([H:12])[C:4](=[O:5])[C@:6]1([C:7]([H:14])([H:15])[H:16])[H:13])([H:8])([H:9])[H:10]>>[C:1]([C-:2]1[N:3]([H:12])[C+:4]([O:5][H:11])[C@:6]1([C:7]([H:14])([H:15])[H:16])[H:13])([H:8])([H:9])[H:10]"
C        1.44702628      -1.06486526      -0.13533210
C        0.49995346      -0.18168481       0.62545134
N        0.73708950       1.27938116       0.52163145
C       -0.61825397       1.34192623       0.74314366
O       -0.89277410       1.29730006       2.01495162
C       -0.98286801       0.05292071       0.07385989
C       -1.10713981      -0.09399687      -1.42611154
H        1.53249578      -0.80042745      -1.19253348
H        1.11844836      -2.10321700      -0.06069525
H        2.44116049      -0.99056521       0.30973300
H       -0.23301837       0.34097360       2.11521243
H        1.29342620       1.75780313       1.21762854
H       -1.79089007      -0.43030149       0.61291173
H       -0.36375334       0.50644596      -1.95020682
H       -2.09874717       0.22565613      -1.74864405
H       -0.98215520      -1.13734884      -1.72100039
16
Frame=1 idx=010649 GeodesicLength=0.08026607147004586 rxn_smarts="[C:1]([C@@:2]1([H:11])[N:3]([H:12])[C:4](=[O:5])[C@:6]1([C:7]([H:14])([H:15])[H:16])[H:13])([H:8])([H:9])[H:10]>>[C:1]([C-:2]1[N:3]([H:12])[C+:4]([O:5][H:11])[C@:6]1([C:7]([H:14])([H:15])[H:16])[H:13])([H:8])([H:9])[H:10]"
C        1.44966837      -1.06484192      -0.13159551
C        0.49902511      -0.18377696       0.62704320
N        0.73249143       1.27355920       0.52349394
C       -0.62368468       1.34647774       0.74391689
O       -0.90260838       1.30850905       2.01549258
C       -0.97863449       0.05193890       0.07142340
C       -1.11116650      -0.09225035      -1.42794044
H        1.54033535      -0.79738526      -1.18774039
H        1.12163292      -2.10377215      -0.06347354
H        2.44220965      -0.99201000       0.31734045
H       -0.23218778       0.33071095       2.12235355
H        1.30386122       1.75873767       1.20208529
H       -1.78234689      -0.43937578       0.61058337
H       -0.36545743       0.50458946      -1.95300630
H       -2.10201494       0.23460127      -1.74526814
H       -0.99112295      -1.13571181      -1.72470834
16
Frame=2 idx=010649 GeodesicLength=0.16052735385921402 rxn_smarts="[C:1]([C@@:2]1([H:11])[N:3]([H:12])[C:4](=[O:5])[C@:6]1([C:7]([H:14])([H:15])[H:16])[H:13])([H:8])([H:9])[H:10]>>[C:1]([C-:2]1[N:3]([H:12])[C+:4]([O:5][H:11])[C@:6]1([C:7]([H:14])([H:15])[H:16])[H:13])([H:8])([H:9])[H:10]"
C        1.45236655      -1.06478960      -0.12785643
C        0.49810302      -0.18595364       0.62867571
N        0.72789389       1.26768829       0.52567884
C       -0.62909225       1.35099325       0.74466140
O       -0.91279908       1.32005846       2.01585675
C       -0.97438143       0.05094724       0.06902384
C       -1.11520504      -0.09050324      -1.42969062
H        1.54830016      -0.79414547      -1.18286009
H        1.12492402      -2.10428272      -0.06642109
H        2.44327361      -0.99347657       0.32500546
H       -0.23127842       0.31994114       2.12956276
H        1.31434422       1.75957210       1.18599490
H       -1.77387320      -0.44821805       0.60823159
H       -0.36714193       0.50264952      -1.95574289
H       -2.10520178       0.24358916      -1.74180990
H       -1.00023234      -1.13406987      -1.72831023
16
Frame=3 idx=010649 GeodesicLength=0.24077909610119186 rxn_smarts="[C:1]([C@@:2]1([H:11])[N:3]([H:12])[C:4](=[O:5])[C@:6]1([C:7]([H:14])([H:15])[H:16])[H:13])([H:8])([H:9])[H:10]>>[C:1]([C-:2]1[N:3]([H:12])[C+:4]([O:5][H:11])[C@:6]1([C:7]([H:14])([H:15])[H:16])[H:13])([H:8])([H:9])[H:10]"
C        1.45511962      -1.06470895      -0.12411494
C        0.49718705      -0.18821683       0.63035017
N        0.72330253       1.26176614       0.52821093
C       -0.63447242       1.35547478       0.74537914
O       -0.92336640       1.33197424       2.01602878
C       -0.97010738       0.04994854       0.06666412
C       -1.11925034      -0.08875068      -1.43135908
H        1.55638023      -0.79071411      -1.17789200
H        1.12832660      -2.10474735      -0.06952736
H        2.44435617      -0.99495825       0.33271337
H       -0.23028343       0.30862909       2.13684213
H        1.32486697       1.76029458       1.16932802
H       -1.76547618      -0.45682344       0.60586096
H       -0.36880466       0.50063586      -1.95840999
H       -2.10830404       0.25261239      -1.73827086
H       -1.00947430      -1.13241602      -1.73180340
16
Frame=4 idx=010649 GeodesicLength=0.32101634008209057 rxn_smarts="[C:1]([C@@:2]1([H:11])[N:3]([H:12])[C:4](=[O:5])[C@:6]1([C:7]([H:14])([H:15])[H:16])[H:13])([H:8])([H:9])[H:10]>>[C:1]([C-:2]1[N:3]([H:12])[C+:4]([O:5][H:11])[C@:6]1([C:7]([H:14])([H:15])[H:16])[H:13])([H:8])([H:9])[H:10]"
C        1.45792632      -1.06460065      -0.12037106
C        0.49627706      -0.19056882       0.63206844
N        0.71872321       1.25579021       0.53111712
C       -0.63982051       1.35992457       0.74607210
O       -0.93433202       1.34428586       2.01599112
C       -0.96581073       0.04894567       0.06434776
C       -1.12329688      -0.08698754      -1.43294241
H        1.56456580      -0.78709601      -1.17283540
H        1.13184478      -2.10516481      -0.07278264
H        2.44546126      -0.99644915       0.34045011
H       -0.22919530       0.29673700       2.14419417
H        1.33541979       1.76089160       1.15205167
H       -1.75716245      -0.46518755       0.60347693
H       -0.37044369       0.49855987      -1.96100036
H       -2.11131873       0.26166241      -1.73465192
H       -1.01883791      -1.13074265      -1.73518563
16
Frame=5 idx=010649 GeodesicLength=0.40123676316085827 rxn_smarts="[C:1]([C@@:2]1([H:11])[N:3]([H:12])[C:4](=[O:5])[C@:6]1([C:7]([H:14])([H:15])[H:16])[H:13])([H:8])([H:9])[H:10]>>[C:1]([C-:2]1[N:3]([H:12])[C+:4]([O:5][H:11])[C@:6]1([C:7]([H:14])([H:15])[H:16])[H:13])([H:8])([H:9])[H:10]"
C        1.46078571      -1.06446543      -0.11662415
C        0.49537357      -0.19301189       0.63383333
N        0.71416201       1.24975961       0.53442706
C       -0.64513184       1.36434562       0.74674290
O       -0.94572028       1.35702469       2.01572474
C       -0.96149020       0.04794113       0.06207861
C       -1.12733998      -0.08520879      -1.43443822
H        1.57284764      -0.78329406      -1.16768935
H        1.13548134      -2.10553470      -0.07617801
H        2.44659347      -0.99794469       0.34820462
H       -0.22800107       0.28422502       2.15162384
H        1.34599298       1.76134892       1.13412947
H       -1.74893863      -0.47330780       0.60108547
H       -0.37205759       0.49643402      -1.96350771
H       -2.11424423       0.27073122      -1.73095634
H       -1.02831290      -1.12904289      -1.73845626
16
Frame=6 idx=010649 GeodesicLength=0.4814268262377951 rxn_smarts="[C:1]([C@@:2]1([H:11])[N:3]([H:12])[C:4](=[O:5])[C@:6]1([C:7]([H:14])([H:15])[H:16])[H:13])([H:8])([H:9])[H:10]>>[C:1]([C-:2]1[N:3]([H:12])[C+:4]([O:5][H:11])[C@:6]1([C:7]([H:14])([H:15])[H:16])[H:13])([H:8])([H:9])[H:10]"
C        1.46369416      -1.06430336      -0.11287768
C        0.49447526      -0.19554973       0.63564744
N        0.70962295       1.24366452       0.53817297
C       -0.65040064       1.36873854       0.74739423
O       -0.95755485       1.37023205       2.01520544
C       -0.95714180       0.04693926       0.05986388
C       -1.13136785      -0.08340931      -1.43583577
H        1.58122123      -0.77930482      -1.16245090
H        1.13923508      -2.10585103      -0.07971569
H        2.44775106      -0.99944938       0.35596126
H       -0.22670240       0.27104614       2.15912800
H        1.35656541       1.76165187       1.11550892
H       -1.74080731      -0.48117481       0.59869667
H       -0.37364221       0.49427082      -1.96591711
H       -2.11707271       0.27980502      -1.72717446
H       -1.03787538      -1.12730577      -1.74160720
16
Frame=7 idx=010649 GeodesicLength=0.5615987808666926 rxn_smarts="[C:1]([C@@:2]1([H:11])[N:3]([H:12])[C:4](=[O:5])[C@:6]1([C:7]([H:14])([H:15])[H:16])[H:13])([H:8])([H:9])[H:10]>>[C:1]([C-:2]1[N:3]([H:12])[C+:4]([O:5][H:11])[C@:6]1([C:7]([H:14])([H:15])[H:16])[H:13])([H:8])([H:9])[H:10]"
C        1.46665625      -1.06411198      -0.10912602
C        0.49358308      -0.19818726       0.63751880
N        0.70510778       1.23750505       0.54238738
C       -0.65562595       1.37310406       0.74802975
O       -0.96986587       1.38394465       2.01440937
C       -0.95276556       0.04593641       0.05770979
C       -1.13538105      -0.08158559      -1.43713288
H        1.58970003      -0.77510298      -1.15710715
H        1.14310535      -2.10611097      -0.08341727
H        2.44893387      -1.00097481       0.36374422
H       -0.22527965       0.25715115       2.16671893
H        1.36713146       1.76179396       1.09611323
H       -1.73276874      -0.48880446       0.59632069
H       -0.37518983       0.49206797      -1.96822477
H       -2.11979981       0.28890465      -1.72330783
H       -1.04754135      -1.12552984      -1.74463623
16
Frame=8 idx=010649 GeodesicLength=0.6417554472981216 rxn_smarts="[C:1]([C@@:2]1([H:11])[N:3]([H:12])[C:4](=[O:5])[C@:6]1([C:7]([H:14])([H:15])[H:16])[H:13])([H:8])([H:9])[H:10]>>[C:1]([C-:2]1[N:3]([H:12])[C+:4]([O:5][H:11])[C@:6]1([C:7]([H:14])([H:15])[H:16])[H:13])([H:8])([H:9])[H:10]"
C        1.46967515      -1.06389189      -0.10536425
C        0.49269560      -0.20093390       0.63945543
N        0.70061465       1.23126900       0.54710623
C       -0.66080701       1.37743687       0.74865715
O       -0.98268087       1.39820668       2.01331186
C       -0.94835961       0.04492840       0.05562679
C       -1.13937414      -0.07972881      -1.43831931
H        1.59830099      -0.77066401      -1.15164013
H        1.14709580      -2.10631064      -0.08730645
H        2.45013662      -1.00253775       0.37157472
H       -0.22372428       0.24247840       2.17440160
H        1.37766893       1.76177679       1.07582922
H       -1.72482396      -0.49620459       0.59396924
H       -0.37668879       0.48982796      -1.97041475
H       -2.12241495       0.29804986      -1.71934735
H       -1.05731412      -1.12370235      -1.74753998
16
Frame=9 idx=010649 GeodesicLength=0.7219016844080035 rxn_smarts="[C:1]([C@@:2]1([H:11])[N:3]([H:12])[C:4](=[O:5])[C@:6]1([C:7]([H:14])([H:15])[H:16])[H:13])([H:8])([H:9])[H:10]>>[C:1]([C-:2]1[N:3]([H:12])[C+:4]([O:5][H:11])[C@:6]1([C:7]([H:14])([H:15])[H:16])[H:13])([H:8])([H:9])[H:10]"
C        1.47275416      -1.06364203      -0.10158698
C        0.49181244      -0.20379864       0.64146808
N        0.69614396       1.22494606       0.55237441
C       -0.66594124       1.38173391       0.74928399
O       -0.99603271       1.41306748       2.01188213
C       -0.94392106       0.04391216       0.05362605
C       -1.14334064      -0.07783026      -1.43938487
H        1.60704201      -0.76595900      -1.14603053
H        1.15120589      -2.10644352      -0.09141057
H        2.45135385      -1.00415687       0.37947663
H       -0.22202736       0.22696064       2.18218398
H        1.38815501       1.76159333       1.05453229
H       -1.71697094      -0.50338588       0.59165497
H       -0.37812861       0.48755671      -1.97247213
H       -2.12490815       0.30725718      -1.71528319
H       -1.06719660      -1.12181125      -1.75031426
16
Frame=10 idx=010649 GeodesicLength=0.8020448200672111 rxn_smarts="[C:1]([C@@:2]1([H:11])[N:3]([H:12])[C:4](=[O:5])[C@:6]1([C:7]([H:14])([H:15])[H:16])[H:13])([H:8])([H:9])[H:10]>>[C:1]([C-:2]1[N:3]([H:12])[C+:4]([O:5][H:11])[C@:6]1([C:7]([H:14])([H:15])[H:16])[H:13])([H:8])([H:9])[H:10]"
C        1.47589760      -1.06336112      -0.09778641
C        0.49093305      -0.20679240       0.64357072
N        0.69169532       1.21852471       0.55824491
C       -0.67102670       1.38598997       0.74992240
O       -1.00995704       1.42857970       2.01008912
C       -0.93944782       0.04288264       0.05172162
C       -1.14727325      -0.07588129      -1.44031829
H        1.61594593      -0.76095038      -1.14025353
H        1.15543369      -2.10650173      -0.09576639
H        2.45257955      -1.00585672       0.38748040
H       -0.22017616       0.21052080       2.19007813
H        1.39855844       1.76123945       1.03206542
H       -1.70921183      -0.51035804       0.58939234
H       -0.37949376       0.48525692      -1.97437972
H       -2.12726457       0.31655224      -1.71110630
H       -1.07719247      -1.11984475      -1.75295442
16
Frame=11 idx=010649 GeodesicLength=0.8821885384368943 rxn_smarts="[C:1]([C@@:2]1([H:11])[N:3]([H:12])[C:4](=[O:5])[C@:6]1([C:7]([H:14])([H:15])[H:16])[H:13])([H:8])([H:9])[H:10]>>[C:1]([C-:2]1[N:3]([H:12])[C+:4]([O:5][H:11])[C@:6]1([C:7]([H:14])([H:15])[H:16])[H:13])([H:8])([H:9])[H:10]"
C        1.47910949      -1.06304802      -0.09395391
C        0.49005554      -0.20992763       0.64577773
N        0.68726638       1.21198973       0.56478027
C       -0.67606171       1.39019886       0.75058675
O       -1.02449623       1.44480037       2.00789365
C       -0.93493667       0.04183673       0.04993017
C       -1.15116075      -0.07387021      -1.44110283
H        1.62503870      -0.75559634      -1.13427761
H        1.15977940      -2.10647437      -0.10041473
H        2.45380446      -1.00766233       0.39561762
H       -0.21815545       0.19307400       2.19809347
H        1.40883550       1.76069478       1.00823878
H       -1.70154796      -0.51712606       0.58719583
H       -0.38076649       0.48293478      -1.97611188
H       -2.12946505       0.32596148      -1.70680147
H       -1.08729915      -1.11778577      -1.75545183
16
Frame=12 idx=010649 GeodesicLength=0.9623305737652269 rxn_smarts="[C:1]([C@@:2]1([H:11])[N:3]([H:12])[C:4](=[O:5])[C@:6]1([C:7]([H:14])([H:15])[H:16])[H:13])([H:8])([H:9])[H:10]>>[C:1]([C-:2]1[N:3]([H:12])[C+:4]([O:5][H:11])[C@:6]1([C:7]([H:14])([H:15])[H:16])[H:13])([H:8])([H:9])[H:10]"
C        1.48238917      -1.06270410      -0.09008416
C        0.48917811      -0.21321903       0.64810594
N        0.68286084       1.20532324       0.57206424
C       -0.68103928       1.39435570       0.75130156
O       -1.03968614       1.46179291       2.00526084
C       -0.93038317       0.04077804       0.04826983
C       -1.15498340      -0.07177924      -1.44172218
H        1.63432688      -0.74986984      -1.12807901
H        1.16424943      -2.10635564      -0.10536890
H        2.45502632      -1.00959014       0.40389121
H       -0.21595872       0.17450958       2.20623942
H        1.41891608       1.75994672       0.98283973
H       -1.69398986      -0.52367900       0.58507695
H       -0.38191792       0.48060537      -1.97763732
H       -2.13148664       0.33549801      -1.70236430
H       -1.09750170      -1.11561258      -1.75779384
16
Frame=13 idx=010649 GeodesicLength=1.0424870611783736 rxn_smarts="[C:1]([C@@:2]1([H:11])[N:3]([H:12])[C:4](=[O:5])[C@:6]1([C:7]([H:14])([H:15])[H:16])[H:13])([H:8])([H:9])[H:10]>>[C:1]([C-:2]1[N:3]([H:12])[C+:4]([O:5][H:11])[C@:6]1([C:7]([H:14])([H:15])[H:16])[H:13])([H:8])([H:9])[H:10]"
C        1.48574315      -1.06232959      -0.08615963
C        0.48830270      -0.21668274       0.65058374
N        0.67848488       1.19851106       0.58019340
C       -0.68595225       1.39845331       0.75209491
O       -1.05557620       1.47962600       2.00215210
C       -0.92578249       0.03970105       0.04676338
C       -1.15872650      -0.06958809      -1.44216391
H        1.64384337      -0.74372042      -1.12161746
H        1.16884304      -2.10613753      -0.11066735
H        2.45624174      -1.01167206       0.41234530
H       -0.21357301       0.15470850       2.21454248
H        1.42872752       1.75897478       0.95557874
H       -1.68654218      -0.53003122       0.58305476
H       -0.38292082       0.47829015      -1.97893168
H       -2.13330797       0.34519761      -1.69778684
H       -1.10780499      -1.11330082      -1.75998193
16
Frame=14 idx=010649 GeodesicLength=1.1226591017304186 rxn_smarts="[C:1]([C@@:2]1([H:11])[N:3]([H:12])[C:4](=[O:5])[C@:6]1([C:7]([H:14])([H:15])[H:16])[H:13])([H:8])([H:9])[H:10]>>[C:1]([C-:2]1[N:3]([H:12])[C+:4]([O:5][H:11])[C@:6]1([C:7]([H:14])([H:15])[H:16])[H:13])([H:8])([H:9])[H:10]"
C        1.48917550      -1.06192564      -0.08216486
C        0.48742815      -0.22033718       0.65323538
N        0.67413182       1.19152668       0.58928023
C       -0.69079849       1.40247805       0.75300306
O       -1.07222555       1.49837146       1.99851135
C       -0.92112308       0.03860624       0.04544082
C       -1.16235784      -0.06726503      -1.44239270
H        1.65362413      -0.73709284      -1.11483541
H        1.17356413      -2.10580155      -0.11635957
H        2.45743276      -1.01395228       0.42102130
H       -0.21098405       0.13353455       2.22300823
H        1.43813717       1.75772906       0.92607515
H       -1.67919807      -0.53618219       0.58114528
H       -0.38373184       0.47600872      -1.97993744
H       -2.13488393       0.35511019      -1.69303574
H       -1.11819083      -1.11080824      -1.76199509
16
Frame=15 idx=010649 GeodesicLength=1.20285993343868 rxn_smarts="[C:1]([C@@:2]1([H:11])[N:3]([H:12])[C:4](=[O:5])[C@:6]1([C:7]([H:14])([H:15])[H:16])[H:13])([H:8])([H:9])[H:10]>>[C:1]([C-:2]1[N:3]([H:12])[C+:4]([O:5][H:11])[C@:6]1([C:7]([H:14])([H:15])[H:16])[H:13])([H:8])([H:9])[H:10]"
C        1.49269011      -1.06150094      -0.07807029
C        0.48655634      -0.22420760       0.65610444
N        0.66981874       1.18434427       0.59947776
C       -0.69556121       1.40641646       0.75408286
O       -1.08967723       1.51811015       1.99430544
C       -0.91639585       0.03749369       0.04433646
C       -1.16584202      -0.06476981      -1.44239047
H        1.66368595      -0.72995165      -1.10768050
H        1.17841339      -2.10534514      -0.12245589
H        2.45860256      -1.01645677       0.42995338
H       -0.20818490       0.11081132       2.23167257
H        1.44697393       1.75617596       0.89385575
H       -1.67197433      -0.54213176       0.57936690
H       -0.38430516       0.47382386      -1.98060812
H       -2.13617792       0.36527160      -1.68810514
H       -1.12862239      -1.10808364      -1.76384515
16
Frame=16 idx=010649 GeodesicLength=1.2831089944768552 rxn_smarts="[C:1]([C@@:2]1([H:11])[N:3]([H:12])[C:4](=[O:5])[C@:6]1([C:7]([H:14])([H:15])[H:16])[H:13])([H:8])([H:9])[H:10]>>[C:1]([C-:2]1[N:3]([H:12])[C+:4]([O:5][H:11])[C@:6]1([C:7]([H:14])([H:15])[H:16])[H:13])([H:8])([H:9])[H:10]"
C        1.49629283      -1.06106548      -0.07383550
C        0.48568846      -0.22832164       0.65924147
N        0.66555112       1.17693130       0.61097267
C       -0.70023083       1.41024595       0.75541202
O       -1.10799167       1.53892027       1.98949320
C       -0.91158509       0.03636543       0.04349672
C       -1.16912452      -0.06204124      -1.44211831
H        1.67406649      -0.72224132      -1.10006676
H        1.18339336      -2.10475673      -0.12898283
H        2.45974070      -1.01923414       0.43920275
H       -0.20516317       0.08633438       2.24056447
H        1.45498066       1.75423196       0.85824429
H       -1.66487382      -0.54788301       0.57773688
H       -0.38457119       0.47180988      -1.98086272
H       -2.13712608       0.37575323      -1.68296590
H       -1.13904725      -1.10504884      -1.76553244
