12
Frame=0 idx=007064 GeodesicLength=0.0 rxn_smarts="[O:1]=[C:2]1[N:3]([H:8])[C:4]([H:9])([H:10])[C@@:5]2([H:11])[O:6][C@@:7]12[H:12]>>[H:8][H:9].[O:1]=[C:2]1[N:3]=[C:4]([H:10])[C@@:5]2([H:11])[O:6][C@@:7]12[H:12]"
O        0.81014292       2.52002510       0.47581043
C        0.50428259       1.38903730       0.18881989
N        1.30078870       0.44895855      -0.41671672
C        0.51820941      -0.70763513      -0.63920493
C       -0.88538931      -0.54643352      -0.09668265
O       -0.85171635      -0.31680664       1.29473788
C       -0.89436193       0.81570888       0.42587313
H        1.40709807      -0.97850047       0.24333746
H        0.92463278      -1.75587955       0.12385004
H        0.66828401      -1.22121103      -1.59056108
H       -1.72923035      -1.09166343      -0.50073234
H       -1.77274054       1.44439989       0.49146884
12
Frame=1 idx=007064 GeodesicLength=0.10641336248779511 rxn_smarts="[O:1]=[C:2]1[N:3]([H:8])[C:4]([H:9])([H:10])[C@@:5]2([H:11])[O:6][C@@:7]12[H:12]>>[H:8][H:9].[O:1]=[C:2]1[N:3]=[C:4]([H:10])[C@@:5]2([H:11])[O:6][C@@:7]12[H:12]"
O        0.81358240       2.51715200       0.47740876
C        0.49970060       1.38967468       0.18764902
N        1.29473700       0.44339512      -0.41433767
C        0.51316699      -0.70927031      -0.64132702
C       -0.88924906      -0.54421561      -0.09803908
O       -0.85740507      -0.31365675       1.29370604
C       -0.89882321       0.81795804       0.42404288
H        1.43499482      -0.98115571       0.25442228
H        0.94220203      -1.76636403       0.12679586
H        0.65737049      -1.21439244      -1.59800726
H       -1.73455579      -1.08785230      -0.50118667
H       -1.77572119       1.44872733       0.48887285
12
Frame=2 idx=007064 GeodesicLength=0.21261385585348266 rxn_smarts="[O:1]=[C:2]1[N:3]([H:8])[C:4]([H:9])([H:10])[C@@:5]2([H:11])[O:6][C@@:7]12[H:12]>>[H:8][H:9].[O:1]=[C:2]1[N:3]=[C:4]([H:10])[C@@:5]2([H:11])[O:6][C@@:7]12[H:12]"
O        0.81711647       2.51405204       0.47884697
C        0.49511345       1.39014582       0.18642769
N        1.28864684       0.43738667      -0.41156908
C        0.50770651      -0.71096723      -0.64370033
C       -0.89343709      -0.54193382      -0.09950967
O       -0.86330960      -0.31058390       1.29257933
C       -0.90336088       0.82022375       0.42223165
H        1.46378729      -0.98340244       0.26597031
H        0.96040742      -1.77663433       0.12961217
H        0.64627400      -1.20759799      -1.60553398
H       -1.74026689      -1.08387968      -0.50174765
H       -1.77867753       1.45319112       0.48639259
12
Frame=3 idx=007064 GeodesicLength=0.3187043407732689 rxn_smarts="[O:1]=[C:2]1[N:3]([H:8])[C:4]([H:9])([H:10])[C@@:5]2([H:11])[O:6][C@@:7]12[H:12]>>[H:8][H:9].[O:1]=[C:2]1[N:3]=[C:4]([H:10])[C@@:5]2([H:11])[O:6][C@@:7]12[H:12]"
O        0.82075595       2.51069598       0.48007554
C        0.49053287       1.39042029       0.18516502
N        1.28251360       0.43087487      -0.40836706
C        0.50178726      -0.71273383      -0.64635742
C       -0.89798032      -0.53958891      -0.10110388
O       -0.86945119      -0.30760518       1.29135099
C       -0.90797403       0.82250005       0.42044635
H        1.49354232      -0.98519495       0.27808944
H        0.97931030      -1.78663758       0.13228178
H        0.63496091      -1.20080420      -1.61319346
H       -1.74640077      -1.07972589      -0.50242926
H       -1.78159689       1.45779934       0.48404196
12
Frame=4 idx=007064 GeodesicLength=0.42475620273953774 rxn_smarts="[O:1]=[C:2]1[N:3]([H:8])[C:4]([H:9])([H:10])[C@@:5]2([H:11])[O:6][C@@:7]12[H:12]>>[H:8][H:9].[O:1]=[C:2]1[N:3]=[C:4]([H:10])[C@@:5]2([H:11])[O:6][C@@:7]12[H:12]"
O        0.82451905       2.50705496       0.48105436
C        0.48596982       1.39046281       0.18386040
N        1.27632935       0.42379439      -0.40468524
C        0.49536522      -0.71458139      -0.64933148
C       -0.90290884      -0.53718370      -0.10283115
O       -0.87585288      -0.30473636       1.29001398
C       -0.91266232       0.82477987       0.41869159
H        1.52433013      -0.98648144       0.29089547
H        0.99898176      -1.79631230       0.13478138
H        0.62339166      -1.19398638      -1.62103791
H       -1.75299813      -1.07537125      -0.50324419
H       -1.78446482       1.46256078       0.48183279
12
Frame=5 idx=007064 GeodesicLength=0.5308339088476115 rxn_smarts="[O:1]=[C:2]1[N:3]([H:8])[C:4]([H:9])([H:10])[C@@:5]2([H:11])[O:6][C@@:7]12[H:12]>>[H:8][H:9].[O:1]=[C:2]1[N:3]=[C:4]([H:10])[C@@:5]2([H:11])[O:6][C@@:7]12[H:12]"
O        0.82842943       2.50309883       0.48175849
C        0.48143657       1.39023624       0.18251276
N        1.27008095       0.41607740      -0.40049437
C        0.48838977      -0.71652008      -0.65266166
C       -0.90825431      -0.53472032      -0.10470256
O       -0.88253690      -0.30199486       1.28855987
C       -0.91742494       0.82705647       0.41697112
H        1.55622260      -0.98720482       0.30451553
H        1.01949796      -1.80558788       0.13709083
H        0.61152836      -1.18713107      -1.62912292
H       -1.76010333      -1.07079601      -0.50420402
H       -1.78726617       1.46748612       0.47977693
12
Frame=6 idx=007064 GeodesicLength=0.6370192598613267 rxn_smarts="[O:1]=[C:2]1[N:3]([H:8])[C:4]([H:9])([H:10])[C@@:5]2([H:11])[O:6][C@@:7]12[H:12]>>[H:8][H:9].[O:1]=[C:2]1[N:3]=[C:4]([H:10])[C@@:5]2([H:11])[O:6][C@@:7]12[H:12]"
O        0.83251304       2.49877563       0.48212297
C        0.47695002       1.38969050       0.18112342
N        1.26375650       0.40763140      -0.39573097
C        0.48080252      -0.71856505      -0.65639218
C       -0.91405635      -0.53220279      -0.10673092
O       -0.88953409      -0.29940432       1.28697895
C       -0.92225980       0.82931848       0.41529328
H        1.58930923      -0.98728953       0.31910378
H        1.04095156      -1.81437306       0.13918254
H        0.59931641      -1.18019395      -1.63751662
H       -1.76777021      -1.06597309      -0.50532789
H       -1.78997882       1.47258576       0.47789365
12
Frame=7 idx=007064 GeodesicLength=0.7433388100354497 rxn_smarts="[O:1]=[C:2]1[N:3]([H:8])[C:4]([H:9])([H:10])[C@@:5]2([H:11])[O:6][C@@:7]12[H:12]>>[H:8][H:9].[O:1]=[C:2]1[N:3]=[C:4]([H:10])[C@@:5]2([H:11])[O:6][C@@:7]12[H:12]"
O        0.83680786       2.49404078       0.48211790
C        0.47252599       1.38877302       0.17968610
N        1.25733414       0.39836346      -0.39035336
C        0.47254249      -0.72073392      -0.66056594
C       -0.92035562      -0.52963544      -0.10893048
O       -0.89687471      -0.29698751       1.28526050
C       -0.92716524       0.83155524       0.41366189
H        1.62367680      -0.98664938       0.33480411
H        1.06343786      -1.82257131       0.14103411
H        0.58670467      -1.17315000      -1.64628023
H       -1.77605482      -1.06087691      -0.50663164
H       -1.79257942       1.47787197       0.47619705
12
Frame=8 idx=007064 GeodesicLength=0.8497960128866219 rxn_smarts="[O:1]=[C:2]1[N:3]([H:8])[C:4]([H:9])([H:10])[C@@:5]2([H:11])[O:6][C@@:7]12[H:12]>>[H:8][H:9].[O:1]=[C:2]1[N:3]=[C:4]([H:10])[C@@:5]2([H:11])[O:6][C@@:7]12[H:12]"
O        0.84135236       2.48882782       0.48168584
C        0.46818528       1.38742104       0.17820610
N        1.25078818       0.38816506      -0.38430572
C        0.46354529      -0.72304951      -0.66522151
C       -0.92719932      -0.52702156      -0.11131637
O       -0.90459912      -0.29477077       1.28339340
C       -0.93213875       0.83375390       0.41208496
H        1.65942599      -0.98518808       0.35176922
H        1.08706687      -1.83006410       0.14261267
H        0.57363342      -1.16596071      -1.65547342
H       -1.78501992      -1.05547248      -0.50813902
H       -1.79504028       1.48335939       0.47470384
12
Frame=9 idx=007064 GeodesicLength=0.9563008223553102 rxn_smarts="[O:1]=[C:2]1[N:3]([H:8])[C:4]([H:9])([H:10])[C@@:5]2([H:11])[O:6][C@@:7]12[H:12]>>[H:8][H:9].[O:1]=[C:2]1[N:3]=[C:4]([H:10])[C@@:5]2([H:11])[O:6][C@@:7]12[H:12]"
O        0.84619053       2.48308913       0.48080506
C        0.46394575       1.38557101       0.17667482
N        1.24409038       0.37693379      -0.37753794
C        0.45376744      -0.72554384      -0.67037416
C       -0.93463081      -0.52436732      -0.11389925
O       -0.91274841      -0.29277246       1.28136772
C       -0.93717922       0.83590159       0.41056706
H        1.69665868      -0.98278093       0.37005453
H        1.11190101      -1.83678453       0.14393954
H        0.56006315      -1.15857548      -1.66514812
H       -1.79472266      -1.04973340      -0.50986961
H       -1.79733585       1.48906244       0.47342035
12
Frame=10 idx=007064 GeodesicLength=1.0629289982423185 rxn_smarts="[O:1]=[C:2]1[N:3]([H:8])[C:4]([H:9])([H:10])[C@@:5]2([H:11])[O:6][C@@:7]12[H:12]>>[H:8][H:9].[O:1]=[C:2]1[N:3]=[C:4]([H:10])[C@@:5]2([H:11])[O:6][C@@:7]12[H:12]"
O        0.85138096       2.47672287       0.47940101
C        0.45983823       1.38313511       0.17511042
N        1.23719368       0.36452208      -0.36999514
C        0.44311399      -0.72823869      -0.67608420
C       -0.94271360      -0.52167370      -0.11670617
O       -0.92137824      -0.29103593       1.27916473
C       -0.94228060       0.83797949       0.40912029
H        1.73550355      -0.97929341       0.38986719
H        1.13809505      -1.84254604       0.14497300
H        0.54591714      -1.15096724      -1.67536587
H       -1.80524768      -1.04360416      -0.51186412
H       -1.79942248       1.49499962       0.47237887
12
Frame=11 idx=007064 GeodesicLength=1.169616914088275 rxn_smarts="[O:1]=[C:2]1[N:3]([H:8])[C:4]([H:9])([H:10])[C@@:5]2([H:11])[O:6][C@@:7]12[H:12]>>[H:8][H:9].[O:1]=[C:2]1[N:3]=[C:4]([H:10])[C@@:5]2([H:11])[O:6][C@@:7]12[H:12]"
O        0.85699219       2.46964051       0.47744935
C        0.45589016       1.38002583       0.17352064
N        1.23004160       0.35080452      -0.36164244
C        0.43151734      -0.73116985      -0.68237890
C       -0.95150368      -0.51894399      -0.11975840
O       -0.93054716      -0.28959356       1.27676738
C       -0.94744014       0.83997101       0.40775177
H        1.77608644      -0.97457512       0.41130091
H        1.16575607      -1.84720395       0.14572606
H        0.53113668      -1.14310720      -1.68616953
H       -1.81666831      -1.03703890      -0.51416018
H       -1.80126119       1.50119068       0.47159334
12
Frame=12 idx=007064 GeodesicLength=1.2763450993515706 rxn_smarts="[O:1]=[C:2]1[N:3]([H:8])[C:4]([H:9])([H:10])[C@@:5]2([H:11])[O:6][C@@:7]12[H:12]>>[H:8][H:9].[O:1]=[C:2]1[N:3]=[C:4]([H:10])[C@@:5]2([H:11])[O:6][C@@:7]12[H:12]"
O        0.86309189       2.46173095       0.47489990
C        0.45213597       1.37614065       0.17193553
N        1.22257054       0.33562815      -0.35242919
C        0.41890291      -0.73437195      -0.68928237
C       -0.96106744      -0.51617766      -0.12308326
O       -0.94033028      -0.28848574       1.27415467
C       -0.95265254       0.84185536       0.40647459
H        1.81856239      -0.96843551       0.43441733
H        1.19498990      -1.85060511       0.14623172
H        0.51566905      -1.13496391      -1.69759361
H       -1.82906877      -1.02997302      -0.51681161
H       -1.80280361       1.50765779       0.47108631
12
Frame=13 idx=007064 GeodesicLength=1.3830459958733552 rxn_smarts="[O:1]=[C:2]1[N:3]([H:8])[C:4]([H:9])([H:10])[C@@:5]2([H:11])[O:6][C@@:7]12[H:12]>>[H:8][H:9].[O:1]=[C:2]1[N:3]=[C:4]([H:10])[C@@:5]2([H:11])[O:6][C@@:7]12[H:12]"
O        0.86976095       2.45287847       0.47173826
C        0.44860762       1.37137165       0.17038759
N        1.21470138       0.31884871      -0.34231294
C        0.40520330      -0.73788717      -0.69679700
C       -0.97146968      -0.51337097      -0.12670802
O       -0.95081433      -0.28774767       1.27130533
C       -0.95791588       0.84361400       0.40529794
H        1.86309584      -0.96066663       0.45919693
H        1.22588670      -1.85260134       0.14655043
H        0.49947280      -1.12652622      -1.70964643
H       -1.84252785      -1.02234014      -0.51987980
H       -1.80400084       1.51442732       0.47086771
12
Frame=14 idx=007064 GeodesicLength=1.4896369166742123 rxn_smarts="[O:1]=[C:2]1[N:3]([H:8])[C:4]([H:9])([H:10])[C@@:5]2([H:11])[O:6][C@@:7]12[H:12]>>[H:8][H:9].[O:1]=[C:2]1[N:3]=[C:4]([H:10])[C@@:5]2([H:11])[O:6][C@@:7]12[H:12]"
O        0.87707194       2.44296035       0.46794599
C        0.44533942       1.36560371       0.16893577
N        1.20635213       0.30031633      -0.33123101
C        0.39037126      -0.74176832      -0.70489133
C       -0.98277620      -0.51051632      -0.13066153
O       -0.96210761      -0.28741147       1.26819625
C       -0.96323002       0.84522822       0.40423237
H        1.90988307      -0.95101732       0.48548794
H        1.25848535      -1.85308613       0.14678777
H        0.48253302      -1.11777604      -1.72229910
H       -1.85712001      -1.01405902      -0.52344166
H       -1.80480233       1.52152601       0.47093854
12
Frame=15 idx=007064 GeodesicLength=1.5960653532458984 rxn_smarts="[O:1]=[C:2]1[N:3]([H:8])[C:4]([H:9])([H:10])[C@@:5]2([H:11])[O:6][C@@:7]12[H:12]>>[H:8][H:9].[O:1]=[C:2]1[N:3]=[C:4]([H:10])[C@@:5]2([H:11])[O:6][C@@:7]12[H:12]"
O        0.88509914       2.43184439       0.46352559
C        0.44236509       1.35871856       0.16766277
N        1.19742703       0.27989132      -0.31912122
C        0.37436817      -0.74606570      -0.71351391
C       -0.99504829      -0.50759963      -0.13497458
O       -0.97433506      -0.28750623       1.26480285
C       -0.96859727       0.84668209       0.40328828
H        1.95913999      -0.93920291       0.51303072
H        1.29278997      -1.85198995       0.14709532
H        0.46485702      -1.10871657      -1.73549450
H       -1.87290835      -1.00504051      -0.52759075
H       -1.80515744       1.52898515       0.47128942
12
Frame=16 idx=007064 GeodesicLength=1.7022787773508525 rxn_smarts="[O:1]=[C:2]1[N:3]([H:8])[C:4]([H:9])([H:10])[C@@:5]2([H:11])[O:6][C@@:7]12[H:12]>>[H:8][H:9].[O:1]=[C:2]1[N:3]=[C:4]([H:10])[C@@:5]2([H:11])[O:6][C@@:7]12[H:12]"
O        0.89390969       2.41940134       0.45850115
C        0.43971651       1.35059395       0.16667807
N        1.18782575       0.25743373      -0.30589845
C        0.35717736      -0.75083608      -0.72257507
C       -1.00834313      -0.50460159      -0.13967981
O       -0.98764731      -0.28805254       1.26109798
C       -0.97402386       0.84796117       0.40247339
H        2.01111214      -0.92489072       0.54139323
H        1.32874492      -1.84930939       0.14768707
H        0.44648795      -1.09935331      -1.74913081
H       -1.88994335      -0.99518399      -0.53243938
H       -1.80501667       1.53683743       0.47189262
