19
Frame=0 idx=010182 GeodesicLength=0.0 rxn_smarts="[C:1]([C:2]([C@@:3]1([C:4]([H:13])([H:14])[H:15])[C:5]([H:16])([H:17])[C@:6]1([O:7][H:19])[H:18])([H:11])[H:12])([H:8])([H:9])[H:10]>>[C:1]([C:2]([C:3]1([C:4]([H:13])([H:14])[H:15])[C:5]([H:17])=[C:6]1[H:18])([H:11])[H:12])([H:8])([H:9])[H:10].[O:7]([H:16])[H:19]"
C        1.91719463       0.45981165      -0.51328694
C        1.04838184      -0.26274046       0.51276756
C       -0.40208000      -0.46148162       0.09109017
C       -0.56800985      -1.44546901      -1.05720830
C       -1.51277499      -0.29900129       1.10220149
C       -1.38024994       0.65994611       0.07321375
O       -0.91304419       2.00097217       0.97549866
H        1.50783350       1.44246533      -0.77181207
H        1.99462361      -0.10177376      -1.44552727
H        2.93062771       0.61200983      -0.13755847
H        1.07614246       0.26375189       1.47085674
H        1.47509353      -1.24908305       0.72114731
H        0.05784183      -1.19574481      -1.91798581
H       -0.29362450      -2.45063393      -0.72629420
H       -1.60469678      -1.48486432      -1.39553375
H       -1.02750203       1.20345430       1.69926396
H       -2.35398484      -0.97035487       1.21312236
H       -1.97400706       1.07599760      -0.72818350
H        0.02223515       2.20273817       0.83422822
19
Frame=1 idx=010182 GeodesicLength=0.0790100636217542 rxn_smarts="[C:1]([C:2]([C@@:3]1([C:4]([H:13])([H:14])[H:15])[C:5]([H:16])([H:17])[C@:6]1([O:7][H:19])[H:18])([H:11])[H:12])([H:8])([H:9])[H:10]>>[C:1]([C:2]([C:3]1([C:4]([H:13])([H:14])[H:15])[C:5]([H:17])=[C:6]1[H:18])([H:11])[H:12])([H:8])([H:9])[H:10].[O:7]([H:16])[H:19]"
C        1.91864082       0.45713646      -0.51541864
C        1.04796760      -0.26367464       0.51022256
C       -0.40108729      -0.46260904       0.08493765
C       -0.56707134      -1.45073828      -1.05914983
C       -1.51196479      -0.29626405       1.09470331
C       -1.37651021       0.66233051       0.06700651
O       -0.91443129       2.01323201       0.99102341
H        1.51019116       1.44007480      -0.77386325
H        1.99687834      -0.10528691      -1.44711033
H        2.93164997       0.60894310      -0.13837552
H        1.07389912       0.26561111       1.46672559
H        1.47487598      -1.24926130       0.72197124
H        0.05629562      -1.20143662      -1.92182421
H       -0.28933202      -2.45443888      -0.72648885
H       -1.60436046      -1.49346554      -1.39522006
H       -1.03487474       1.19312724       1.71418503
H       -2.35311554      -0.96548275       1.21620358
H       -1.97467536       1.07815256      -0.73108801
H        0.01702443       2.22405022       0.84155981
19
Frame=2 idx=010182 GeodesicLength=0.15798119435572272 rxn_smarts="[C:1]([C:2]([C@@:3]1([C:4]([H:13])([H:14])[H:15])[C:5]([H:16])([H:17])[C@:6]1([O:7][H:19])[H:18])([H:11])[H:12])([H:8])([H:9])[H:10]>>[C:1]([C:2]([C:3]1([C:4]([H:13])([H:14])[H:15])[C:5]([H:17])=[C:6]1[H:18])([H:11])[H:12])([H:8])([H:9])[H:10].[O:7]([H:16])[H:19]"
C        1.92011650       0.45440511      -0.51758776
C        1.04755192      -0.26460219       0.50765446
C       -0.40008398      -0.46374603       0.07874151
C       -0.56613181      -1.45603150      -1.06108924
C       -1.51115926      -0.29346495       1.08712430
C       -1.37268635       0.66476754       0.06073686
O       -0.91577045       2.02554383       1.00691168
H        1.51259235       1.43762376      -0.77599008
H        1.99916864      -0.10889827      -1.44870276
H        2.93269466       0.60582167      -0.13921695
H        1.07162553       0.26757362       1.46250616
H        1.47462811      -1.24941669       0.72284229
H        0.05474172      -1.20719726      -1.92566805
H       -0.28505183      -2.45824855      -0.72666194
H       -1.60401665      -1.50207030      -1.39487752
H       -1.04237981       1.18234281       1.72924826
H       -2.35214204      -0.96050632       1.21928742
H       -1.97522569       1.08036394      -0.73404608
H        0.01152843       2.24573979       0.84878746
19
Frame=3 idx=010182 GeodesicLength=0.2369424189170009 rxn_smarts="[C:1]([C:2]([C@@:3]1([C:4]([H:13])([H:14])[H:15])[C:5]([H:16])([H:17])[C@:6]1([O:7][H:19])[H:18])([H:11])[H:12])([H:8])([H:9])[H:10]>>[C:1]([C:2]([C:3]1([C:4]([H:13])([H:14])[H:15])[C:5]([H:17])=[C:6]1[H:18])([H:11])[H:12])([H:8])([H:9])[H:10].[O:7]([H:16])[H:19]"
C        1.92162234       0.45161596      -0.51979379
C        1.04713458      -0.26552279       0.50506377
C       -0.39907046      -0.46489121       0.07250233
C       -0.56519223      -1.46134746      -1.06302520
C       -1.51035810      -0.29060041       1.07946473
C       -1.36877828       0.66725796       0.05440410
O       -0.91704556       2.03790804       1.02317105
H        1.51503847       1.43510994      -0.77819518
H        2.00149598      -0.11261133      -1.45030266
H        2.93376173       0.60264509      -0.14008128
H        1.06932218       0.26963956       1.45819761
H        1.47434809      -1.24954867       0.72376155
H        0.05317919      -1.21302649      -1.92951607
H       -0.28078555      -2.46206172      -0.72681176
H       -1.60366642      -1.51067690      -1.39450469
H       -1.05002098       1.17107118       1.74446212
H       -2.35105902      -0.95542484       1.22237162
H       -1.97565362       1.08263797      -0.73705910
H        0.00572768       2.26782614       0.85589084
19
Frame=4 idx=010182 GeodesicLength=0.3159035061565084 rxn_smarts="[C:1]([C:2]([C@@:3]1([C:4]([H:13])([H:14])[H:15])[C:5]([H:16])([H:17])[C@:6]1([O:7][H:19])[H:18])([H:11])[H:12])([H:8])([H:9])[H:10]>>[C:1]([C:2]([C:3]1([C:4]([H:13])([H:14])[H:15])[C:5]([H:17])=[C:6]1[H:18])([H:11])[H:12])([H:8])([H:9])[H:10].[O:7]([H:16])[H:19]"
C        1.92315849       0.44876814      -0.52203566
C        1.04671551      -0.26643712       0.50245093
C       -0.39804703      -0.46604396       0.06622078
C       -0.56425372      -1.46668575      -1.06495618
C       -1.50956101      -0.28766611       1.07172502
C       -1.36478536       0.66980202       0.04800618
O       -0.91823572       2.05032265       1.03981199
H        1.51753045       1.43253241      -0.78047823
H        2.00386043      -0.11642718      -1.45190867
H        2.93485116       0.59941251      -0.14096707
H        1.06698981       0.27180703       1.45379972
H        1.47403459      -1.24965771       0.72472897
H        0.05160738      -1.21892541      -1.93336660
H       -0.27653569      -2.46587805      -0.72693595
H       -1.60331100      -1.51928401      -1.39410008
H       -1.05780058       1.15928490       1.75983235
H       -2.34986022      -0.95023605       1.22545392
H       -1.97595376       1.08498193      -0.74012935
H       -0.00040374       2.29032976       0.86284792
19
Frame=5 idx=010182 GeodesicLength=0.39486475518913017 rxn_smarts="[C:1]([C:2]([C@@:3]1([C:4]([H:13])([H:14])[H:15])[C:5]([H:16])([H:17])[C@:6]1([O:7][H:19])[H:18])([H:11])[H:12])([H:8])([H:9])[H:10]>>[C:1]([C:2]([C:3]1([C:4]([H:13])([H:14])[H:15])[C:5]([H:17])=[C:6]1[H:18])([H:11])[H:12])([H:8])([H:9])[H:10].[O:7]([H:16])[H:19]"
C        1.92472510       0.44586077      -0.52431248
C        1.04629462      -0.26734585       0.49981624
C       -0.39701405      -0.46720358       0.05989753
C       -0.56331740      -1.47204623      -1.06688046
C       -1.50876750      -0.28465734       1.06390533
C       -1.36070699       0.67239995       0.04154060
O       -0.91932005       2.06278610       1.05684498
H        1.52006898       1.42989045      -0.78283894
H        2.00626181      -0.12034672      -1.45351969
H        2.93596286       0.59612327      -0.14187322
H        1.06462942       0.27407385       1.44931220
H        1.47368640      -1.24974436       0.72574428
H        0.05002573      -1.22489556      -1.93721781
H       -0.27230478      -2.46969743      -0.72703178
H       -1.60295151      -1.52789064      -1.39366210
H       -1.06572021       1.14695855       1.77536332
H       -2.34853958      -0.94493787       1.22853157
H       -1.97612097       1.08740286      -0.74325957
H       -0.00689187       2.31326979       0.86964002
19
Frame=6 idx=010182 GeodesicLength=0.4738544181719383 rxn_smarts="[C:1]([C:2]([C@@:3]1([C:4]([H:13])([H:14])[H:15])[C:5]([H:16])([H:17])[C@:6]1([O:7][H:19])[H:18])([H:11])[H:12])([H:8])([H:9])[H:10]>>[C:1]([C:2]([C:3]1([C:4]([H:13])([H:14])[H:15])[C:5]([H:17])=[C:6]1[H:18])([H:11])[H:12])([H:8])([H:9])[H:10].[O:7]([H:16])[H:19]"
C        1.92632265       0.44289265      -0.52662326
C        1.04587175      -0.26824864       0.49716050
C       -0.39597194      -0.46836850       0.05353374
C       -0.56238453      -1.47742751      -1.06879592
C       -1.50797727      -0.28156903       1.05600684
C       -1.35654291       0.67505265       0.03500588
O       -0.92027625       2.07529940       1.07427849
H        1.52265542       1.42718237      -0.78527867
H        2.00870093      -0.12437258      -1.45513366
H        2.93709683       0.59277646      -0.14279816
H        1.06224189       0.27643940       1.44473477
H        1.47330163      -1.24980815       0.72680847
H        0.04843323      -1.23093709      -1.94106758
H       -0.26809549      -2.47351852      -0.72709620
H       -1.60258931      -1.53649462      -1.39318868
H       -1.07378178       1.13405375       1.79106265
H       -2.34709197      -0.93952915       1.23159941
H       -1.97615139       1.08990755      -0.74645121
H       -0.01376149       2.33666957       0.87624258
19
Frame=7 idx=010182 GeodesicLength=0.5528634618674751 rxn_smarts="[C:1]([C:2]([C@@:3]1([C:4]([H:13])([H:14])[H:15])[C:5]([H:16])([H:17])[C@:6]1([O:7][H:19])[H:18])([H:11])[H:12])([H:8])([H:9])[H:10]>>[C:1]([C:2]([C:3]1([C:4]([H:13])([H:14])[H:15])[C:5]([H:17])=[C:6]1[H:18])([H:11])[H:12])([H:8])([H:9])[H:10].[O:7]([H:16])[H:19]"
C        1.92795046       0.43986405      -0.52896646
C        1.04544718      -0.26914727       0.49448401
C       -0.39492099      -0.46953877       0.04713060
C       -0.56145660      -1.48283041      -1.07070003
C       -1.50718926      -0.27839512       1.04803045
C       -1.35229185       0.67776000       0.02839877
O       -0.92107404       2.08786204       1.09212123
H        1.52528972       1.42440952      -0.78779269
H        2.01117525      -0.12850205      -1.45675041
H        2.93825302       0.58937100      -0.14374111
H        1.05982904       0.27889878       1.44006804
H        1.47287998      -1.24985083       0.72791977
H        0.04682922      -1.23705305      -1.94491322
H       -0.26391140      -2.47734224      -0.72712511
H       -1.60222597      -1.54509559      -1.39267724
H       -1.08198375       1.12054503       1.80693033
H       -2.34551280      -0.93400710       1.23465202
H       -1.97603946       1.09250261      -0.74970773
H       -0.02104776       2.36054942       0.88263879
19
Frame=8 idx=010182 GeodesicLength=0.6319063094013038 rxn_smarts="[C:1]([C:2]([C@@:3]1([C:4]([H:13])([H:14])[H:15])[C:5]([H:16])([H:17])[C@:6]1([O:7][H:19])[H:18])([H:11])[H:12])([H:8])([H:9])[H:10]>>[C:1]([C:2]([C:3]1([C:4]([H:13])([H:14])[H:15])[C:5]([H:17])=[C:6]1[H:18])([H:11])[H:12])([H:8])([H:9])[H:10].[O:7]([H:16])[H:19]"
C        1.92960840       0.43677484      -0.53134072
C        1.04502112      -0.27004252       0.49178733
C       -0.39386154      -0.47071326       0.04068946
C       -0.56053525      -1.48825474      -1.07258968
C       -1.50640294      -0.27512829       1.03997744
C       -1.34795248       0.68052311       0.02171575
O       -0.92168397       2.10047515       1.11038063
H        1.52797257       1.42157238      -0.79037822
H        2.01368317      -0.13273418      -1.45836920
H        2.93943154       0.58590542      -0.14470130
H        1.05739249       0.28144893       1.43531244
H        1.47242052      -1.24987298       0.72907749
H        0.04521290      -1.24324603      -1.94875157
H       -0.25975657      -2.48116845      -0.72711356
H       -1.60186330      -1.55369200      -1.39212480
H       -1.09032485       1.10639400       1.82297012
H       -2.34379644      -0.92836813       1.23768275
H       -1.97578023       1.09519501      -0.75303293
H       -0.02878516       2.38493174       0.88880858
19
Frame=9 idx=010182 GeodesicLength=0.7109693405063735 rxn_smarts="[C:1]([C:2]([C@@:3]1([C:4]([H:13])([H:14])[H:15])[C:5]([H:16])([H:17])[C@:6]1([O:7][H:19])[H:18])([H:11])[H:12])([H:8])([H:9])[H:10]>>[C:1]([C:2]([C:3]1([C:4]([H:13])([H:14])[H:15])[C:5]([H:17])=[C:6]1[H:18])([H:11])[H:12])([H:8])([H:9])[H:10].[O:7]([H:16])[H:19]"
C        1.93129657       0.43362420      -0.53374515
C        1.04459345      -0.27093481       0.48907077
C       -0.39279403      -0.47189046       0.03421119
C       -0.55962208      -1.49370025      -1.07446221
C       -1.50561807      -0.27176101       1.03184828
C       -1.34352371       0.68334296       0.01495302
O       -0.92208409       2.11313918       1.12906697
H        1.53070506       1.41867064      -0.79303392
H        2.01622356      -0.13706931      -1.45998929
H        2.94063251       0.58237806      -0.14567809
H        1.05493350       0.28408743       1.43046811
H        1.47192169      -1.24987481       0.73028154
H        0.04358333      -1.24951842      -1.95257991
H       -0.25563461      -2.48499664      -0.72705712
H       -1.60150295      -1.56228262      -1.39152874
H       -1.09880430       1.09156874       1.83918255
H       -2.34193343      -0.92260865       1.24068653
H       -1.97536906       1.09799128      -0.75643104
H       -0.03700332       2.40983449       0.89473650
19
Frame=10 idx=010182 GeodesicLength=0.7900735644380712 rxn_smarts="[C:1]([C:2]([C@@:3]1([C:4]([H:13])([H:14])[H:15])[C:5]([H:16])([H:17])[C@:6]1([O:7][H:19])[H:18])([H:11])[H:12])([H:8])([H:9])[H:10]>>[C:1]([C:2]([C:3]1([C:4]([H:13])([H:14])[H:15])[C:5]([H:17])=[C:6]1[H:18])([H:11])[H:12])([H:8])([H:9])[H:10].[O:7]([H:16])[H:19]"
C        1.93301339       0.43041456      -0.53617829
C        1.04416527      -0.27182641       0.48633436
C       -0.39171844      -0.47307059       0.02769807
C       -0.55871919      -1.49916927      -1.07631221
C       -1.50483244      -0.26828313       1.02364530
C       -1.33900276       0.68621989       0.00810412
O       -0.92222937       2.12586145       1.14817922
H        1.53348601       1.41570897      -0.79575032
H        2.01879021      -0.14149968      -1.46161272
H        2.94185604       0.57878764      -0.14667274
H        1.05245547       0.28680726       1.42553633
H        1.47138495      -1.24985861       0.73152814
H        0.04194016      -1.25587738      -1.95639279
H       -0.25155193      -2.48882924      -0.72694646
H       -1.60114720      -1.57086763      -1.39088398
H       -1.10741369       1.07603023       1.85556616
H       -2.33992537      -0.91672326       1.24364960
H       -1.97480003       1.10089670      -0.75990888
H       -0.04575110       2.43527850       0.90041710
19
Frame=11 idx=010182 GeodesicLength=0.8691975273816204 rxn_smarts="[C:1]([C:2]([C@@:3]1([C:4]([H:13])([H:14])[H:15])[C:5]([H:16])([H:17])[C@:6]1([O:7][H:19])[H:18])([H:11])[H:12])([H:8])([H:9])[H:10]>>[C:1]([C:2]([C:3]1([C:4]([H:13])([H:14])[H:15])[C:5]([H:17])=[C:6]1[H:18])([H:11])[H:12])([H:8])([H:9])[H:10].[O:7]([H:16])[H:19]"
C        1.93475812       0.42714703      -0.53863932
C        1.04373774      -0.27271893       0.48357803
C       -0.39063456      -0.47425324       0.02115200
C       -0.55782845      -1.50466327      -1.07813492
C       -1.50404414      -0.26468495       1.01537048
C       -1.33438710       0.68915458       0.00116363
O       -0.92208393       2.13864597       1.16772259
H        1.53631511       1.41269011      -0.79852089
H        2.02137850      -0.14602050      -1.46324112
H        2.94310237       0.57513213      -0.14768657
H        1.04996181       0.28960247       1.42051801
H        1.47081110      -1.24982598       0.73281443
H        0.04028261      -1.26232860      -1.96018556
H       -0.24751382      -2.49266769      -0.72677366
H       -1.60079818      -1.57944677      -1.39018553
H       -1.11614696       1.05974912       1.87211570
H       -2.33777018      -0.91070782       1.24655960
H       -1.97406730       1.10391660      -0.76347281
H       -0.05507275       2.46127974       0.90584591
19
Frame=12 idx=010182 GeodesicLength=0.9483313072982857 rxn_smarts="[C:1]([C:2]([C@@:3]1([C:4]([H:13])([H:14])[H:15])[C:5]([H:16])([H:17])[C@:6]1([O:7][H:19])[H:18])([H:11])[H:12])([H:8])([H:9])[H:10]>>[C:1]([C:2]([C:3]1([C:4]([H:13])([H:14])[H:15])[C:5]([H:17])=[C:6]1[H:18])([H:11])[H:12])([H:8])([H:9])[H:10].[O:7]([H:16])[H:19]"
C        1.93652961       0.42382317      -0.54112707
C        1.04331200      -0.27361459       0.48080184
C       -0.38954242      -0.47543846       0.01457530
C       -0.55695207      -1.51018423      -1.07992502
C       -1.50325097      -0.26095540       1.00702571
C       -1.32967379       0.69214758      -0.00587521
O       -0.92160496       2.15149844       1.18770080
H        1.53919192       1.40961780      -0.80133722
H        2.02398300      -0.15062550      -1.46487646
H        2.94437211       0.57140949      -0.14872096
H        1.04745619       0.29246624       1.41541458
H        1.47020134      -1.24977921       0.73413722
H        0.03861013      -1.26887889      -1.96395281
H       -0.24352666      -2.49651409      -0.72652968
H       -1.60045828      -1.58801986      -1.38942831
H       -1.12499525       1.04269048       1.88882686
H       -2.33546661      -0.90455623       1.24940238
H       -1.97316494       1.10705664      -0.76712974
H       -0.06502034       2.48785661       0.91101780
19
Frame=13 idx=010182 GeodesicLength=1.0274761732923376 rxn_smarts="[C:1]([C:2]([C@@:3]1([C:4]([H:13])([H:14])[H:15])[C:5]([H:16])([H:17])[C@:6]1([O:7][H:19])[H:18])([H:11])[H:12])([H:8])([H:9])[H:10]>>[C:1]([C:2]([C:3]1([C:4]([H:13])([H:14])[H:15])[C:5]([H:17])=[C:6]1[H:18])([H:11])[H:12])([H:8])([H:9])[H:10].[O:7]([H:16])[H:19]"
C        1.93832710       0.42044422      -0.54364114
C        1.04288925      -0.27451415       0.47800589
C       -0.38844184      -0.47662488       0.00797065
C       -0.55609232      -1.51573328      -1.08167625
C       -1.50245070      -0.25708284       0.99861384
C       -1.32485980       0.69520035      -0.01301831
O       -0.92075170       2.16442924       1.20811382
H        1.54211626       1.40649481      -0.80419362
H        2.02659870      -0.15531019      -1.46652065
H        2.94566555       0.56761780      -0.14977799
H        1.04494235       0.29539397       1.41022709
H        1.46955656      -1.24971881       0.73549433
H        0.03692153      -1.27553436      -1.96768857
H       -0.23959662      -2.50036926      -0.72620440
H       -1.60012999      -1.59658612      -1.38860578
H       -1.13395194       1.02481181       1.90569578
H       -2.33301432      -0.89826359       1.25216032
H       -1.97208737       1.11032144      -0.77088667
H       -0.07564071       2.51502383       0.91593164
19
Frame=14 idx=010182 GeodesicLength=1.106608722051101 rxn_smarts="[C:1]([C:2]([C@@:3]1([C:4]([H:13])([H:14])[H:15])[C:5]([H:16])([H:17])[C@:6]1([O:7][H:19])[H:18])([H:11])[H:12])([H:8])([H:9])[H:10]>>[C:1]([C:2]([C:3]1([C:4]([H:13])([H:14])[H:15])[C:5]([H:17])=[C:6]1[H:18])([H:11])[H:12])([H:8])([H:9])[H:10].[O:7]([H:16])[H:19]"
C        1.94014907       0.41701303      -0.54618165
C        1.04247162      -0.27541992       0.47518925
C       -0.38733222      -0.47781269       0.00134056
C       -0.55525176      -1.52131449      -1.08338072
C       -1.50163975      -0.25305177       0.99013721
C       -1.31994033       0.69831377      -0.02027669
O       -0.91947394       2.17744656       1.22896245
H        1.54508736       1.40332719      -0.80707909
H        2.02921708      -0.16006489      -1.46817865
H        2.94698389       0.56375417      -0.15086197
H        1.04242552       0.29837803       1.40495666
H        1.46887962      -1.24964695       0.73688099
H        0.03521655      -1.28230673      -1.97138514
H       -0.23573214      -2.50423699      -0.72578370
H       -1.59981629      -1.60514667      -1.38771030
H       -1.14300286       1.00607931       1.92271182
H       -2.33041577      -0.89181988       1.25481253
H       -1.97082668       1.11371601      -0.77475562
H       -0.08699896       2.54279293       0.92060206
19
Frame=15 idx=010182 GeodesicLength=1.1857038849223138 rxn_smarts="[C:1]([C:2]([C@@:3]1([C:4]([H:13])([H:14])[H:15])[C:5]([H:16])([H:17])[C@:6]1([O:7][H:19])[H:18])([H:11])[H:12])([H:8])([H:9])[H:10]>>[C:1]([C:2]([C:3]1([C:4]([H:13])([H:14])[H:15])[C:5]([H:17])=[C:6]1[H:18])([H:11])[H:12])([H:8])([H:9])[H:10].[O:7]([H:16])[H:19]"
C        1.94199436       0.41353190      -0.54874918
C        1.04206142      -0.27633380       0.47235108
C       -0.38621296      -0.47900163      -0.00531210
C       -0.55443296      -1.52693136      -1.08503037
C       -1.50081408      -0.24884716       0.98159851
C       -1.31491054       0.70148900      -0.02765981
O       -0.91772123       2.19056220       1.25024387
H        1.54810481       1.40012026      -0.80998393
H        2.03183009      -0.16488119      -1.46985545
H        2.94832849       0.55981522      -0.15197769
H        1.03991138       0.30141135       1.39960444
H        1.46817350      -1.24956554       0.73829280
H        0.03349451      -1.28920675      -1.97503472
H       -0.23194118      -2.50812048      -0.72525372
H       -1.59952004      -1.61370221      -1.38673360
H       -1.15213470       0.98645983       1.93986356
H       -2.32767465      -0.88521615       1.25733634
H       -1.96937514       1.11724419      -0.77874779
H       -0.09916106       2.57117232       0.92504775
19
Frame=16 idx=010182 GeodesicLength=1.264748160172086 rxn_smarts="[C:1]([C:2]([C@@:3]1([C:4]([H:13])([H:14])[H:15])[C:5]([H:16])([H:17])[C@:6]1([O:7][H:19])[H:18])([H:11])[H:12])([H:8])([H:9])[H:10]>>[C:1]([C:2]([C:3]1([C:4]([H:13])([H:14])[H:15])[C:5]([H:17])=[C:6]1[H:18])([H:11])[H:12])([H:8])([H:9])[H:10].[O:7]([H:16])[H:19]"
C        1.94386219       0.41000266      -0.55134437
C        1.04166112      -0.27725697       0.46949090
C       -0.38508326      -0.48019074      -0.01198374
C       -0.55363878      -1.53258653      -1.08661614
C       -1.49996914      -0.24445316       0.97300179
C       -1.30976540       0.70472760      -0.03517666
O       -0.91543995       2.20379094       1.27195433
H        1.55116892       1.39687855      -0.81289963
H        2.03443006      -0.16975205      -1.47155566
H        2.94970101       0.55579719      -0.15312994
H        1.03740593       0.30448863       1.39417147
H        1.46744093      -1.24947553       0.73972645
H        0.03175425      -1.29624467      -1.97862862
H       -0.22823230      -2.51202208      -0.72459948
H       -1.59924458      -1.62225216      -1.38566644
H       -1.16133210       0.96591053       1.95714074
H       -2.32479675      -0.87844368       1.25970389
H       -1.96772535       1.12090983      -0.78287361
H       -0.11219679       2.60017161       0.92928472
