12
Frame=0 idx=009611 GeodesicLength=0.0 rxn_smarts="[C:1]([O:2][c:3]1[n:4][o:5][c:6]([H:11])[c:7]1[H:12])([H:8])([H:9])[H:10]>>[C:1]([O:2][C:3]1=[N:4][C@:7]1([C:6](=[O:5])[H:11])[H:12])([H:8])([H:9])[H:10]"
C       -0.44308803      -2.14723525      -0.63420658
O        0.22021479      -0.90303114      -0.87143501
C       -0.02651882       0.04848465       0.03447861
N       -0.75330695      -0.02421073       1.05555828
O       -0.07136011       2.05360459       1.93079952
C        0.55396203       2.22656704       0.89251065
C        0.45183190       1.38154176      -0.22612900
H       -0.19408980      -2.52719032       0.35936397
H       -1.52377130      -2.02755184      -0.71739591
H       -0.07927077      -2.82871555      -1.39818115
H        1.30423597       3.03351376       0.82582427
H        0.56116105       1.71422299      -1.25118767
12
Frame=1 idx=009611 GeodesicLength=0.058046327883818805 rxn_smarts="[C:1]([O:2][c:3]1[n:4][o:5][c:6]([H:11])[c:7]1[H:12])([H:8])([H:9])[H:10]>>[C:1]([O:2][C:3]1=[N:4][C@:7]1([C:6](=[O:5])[H:11])[H:12])([H:8])([H:9])[H:10]"
C       -0.44300587      -2.14739057      -0.63025486
O        0.24691607      -0.91629772      -0.86091396
C        0.00217323       0.04149297       0.03631147
N       -0.76091582       0.00195350       1.03336282
O       -0.04725171       2.01440791       1.93967735
C        0.56407072       2.21747020       0.89550374
C        0.43475025       1.38708313      -0.23204642
H       -0.21980022      -2.52650532       0.36963539
H       -1.51960430      -2.00825800      -0.73401380
H       -0.07772590      -2.83877306      -1.38457951
H        1.28522715       3.04870865       0.82283212
H        0.53516640       1.72610831      -1.25551433
12
Frame=2 idx=009611 GeodesicLength=0.11628161873974213 rxn_smarts="[C:1]([O:2][c:3]1[n:4][o:5][c:6]([H:11])[c:7]1[H:12])([H:8])([H:9])[H:10]>>[C:1]([O:2][C:3]1=[N:4][C@:7]1([C:6](=[O:5])[H:11])[H:12])([H:8])([H:9])[H:10]"
C       -0.44234433      -2.14770459      -0.62540513
O        0.26709128      -0.92710552      -0.85354074
C        0.02209022       0.03780398       0.03341651
N       -0.76974414       0.02863198       1.00958215
O       -0.02508238       1.97551828       1.94603879
C        0.57624290       2.20664599       0.89885980
C        0.41952443       1.39231655      -0.23779265
H       -0.23915266      -2.52292412       0.38008398
H       -1.51535330      -1.99475985      -0.74577744
H       -0.07546262      -2.84833580      -1.37035444
H        1.26833200       3.06074991       0.82371567
H        0.51385860       1.73916318      -1.25882650
12
Frame=3 idx=009611 GeodesicLength=0.17463779904269217 rxn_smarts="[C:1]([O:2][c:3]1[n:4][o:5][c:6]([H:11])[c:7]1[H:12])([H:8])([H:9])[H:10]>>[C:1]([O:2][C:3]1=[N:4][C@:7]1([C:6](=[O:5])[H:11])[H:12])([H:8])([H:9])[H:10]"
C       -0.44150988      -2.14817667      -0.61997945
O        0.28308851      -0.93639946      -0.84837902
C        0.03686029       0.03606043       0.02743989
N       -0.77835642       0.05528239       0.98511901
O       -0.00529430       1.93734878       1.94999077
C        0.58994698       2.19463883       0.90233484
C        0.40630147       1.39736113      -0.24336543
H       -0.25423144      -2.51776433       0.39055657
H       -1.51139678      -1.98488544      -0.75399611
H       -0.07333439      -2.85758121      -1.35593279
H        1.25228715       3.07087073       0.82760027
H        0.49563883       1.75324483      -1.26138855
12
Frame=4 idx=009611 GeodesicLength=0.23314990171498662 rxn_smarts="[C:1]([O:2][c:3]1[n:4][o:5][c:6]([H:11])[c:7]1[H:12])([H:8])([H:9])[H:10]>>[C:1]([O:2][C:3]1=[N:4][C@:7]1([C:6](=[O:5])[H:11])[H:12])([H:8])([H:9])[H:10]"
C       -0.44067829      -2.14874301      -0.61411566
O        0.29640756      -0.94477560      -0.84470369
C        0.04842028       0.03556592       0.01927176
N       -0.78632715       0.08177622       0.96019085
O        0.01278707       1.89958733       1.95196773
C        0.60478507       2.18179440       0.90571850
C        0.39507946       1.40225804      -0.24881315
H       -0.26658023      -2.51159012       0.40109404
H       -1.50778639      -1.97727625      -0.75977071
H       -0.07154910      -2.86665789      -1.34128727
H        1.23604152       3.07983286       0.83381306
H        0.47940022       1.76822809      -1.26336545
12
Frame=5 idx=009611 GeodesicLength=0.2918497786465726 rxn_smarts="[C:1]([O:2][c:3]1[n:4][o:5][c:6]([H:11])[c:7]1[H:12])([H:8])([H:9])[H:10]>>[C:1]([O:2][C:3]1=[N:4][C@:7]1([C:6](=[O:5])[H:11])[H:12])([H:8])([H:9])[H:10]"
C       -0.43987687      -2.14933715      -0.60785187
O        0.30794303      -0.95254645      -0.84203666
C        0.05772760       0.03600833       0.00935304
N       -0.79358745       0.10812315       0.93484855
O        0.02985211       1.86184745       1.95233657
C        0.62017136       2.16849761       0.90878593
C        0.38560121       1.40711366      -0.25426571
H       -0.27713324      -2.50459590       0.41180097
H       -1.50444862      -1.97117587      -0.76384694
H       -0.07002086      -2.87565800      -1.32625449
H        1.21939034       3.08765043       0.84206673
H        0.46438139       1.78407272      -1.26493612
12
Frame=6 idx=009611 GeodesicLength=0.3507853853156291 rxn_smarts="[C:1]([O:2][c:3]1[n:4][o:5][c:6]([H:11])[c:7]1[H:12])([H:8])([H:9])[H:10]>>[C:1]([O:2][C:3]1=[N:4][C@:7]1([C:6](=[O:5])[H:11])[H:12])([H:8])([H:9])[H:10]"
C       -0.43903018      -2.14990802      -0.60114531
O        0.31811278      -0.95979995      -0.84017873
C        0.06519435       0.03730169      -0.00217596
N       -0.80030010       0.13440318       0.90898908
O        0.04618005       1.82384534       1.95127478
C        0.63542654       2.15511399       0.91132347
C        0.37750888       1.41209721      -0.25991248
H       -0.28623275      -2.49677144       0.42281488
H       -1.50128106      -1.96630237      -0.76654205
H       -0.06854800      -2.88462871      -1.31062916
H        1.20299144       3.09376020       0.85246595
H        0.44997804       1.80088889      -1.26628447
12
Frame=7 idx=009611 GeodesicLength=0.40990617602895574 rxn_smarts="[C:1]([O:2][c:3]1[n:4][o:5][c:6]([H:11])[c:7]1[H:12])([H:8])([H:9])[H:10]>>[C:1]([O:2][C:3]1=[N:4][C@:7]1([C:6](=[O:5])[H:11])[H:12])([H:8])([H:9])[H:10]"
C       -0.43825092      -2.15037404      -0.59417862
O        0.32770908      -0.96685393      -0.83853513
C        0.07172265       0.03908047      -0.01467826
N       -0.80579292       0.16023082       0.88326829
O        0.06178028       1.78589324       1.94884618
C        0.65016278       2.14195246       0.91323919
C        0.37056996       1.41707823      -0.26569627
H       -0.29461470      -2.48853429       0.43389748
H       -1.49824729      -1.96182399      -0.76840272
H       -0.06741209      -2.89343448      -1.29473411
H        1.18647718       3.09855611       0.86440159
H        0.43589599       1.81822939      -1.26742762
12
Frame=8 idx=009611 GeodesicLength=0.46925753131947523 rxn_smarts="[C:1]([O:2][c:3]1[n:4][o:5][c:6]([H:11])[c:7]1[H:12])([H:8])([H:9])[H:10]>>[C:1]([O:2][C:3]1=[N:4][C@:7]1([C:6](=[O:5])[H:11])[H:12])([H:8])([H:9])[H:10]"
C       -0.43746415      -2.15073612      -0.58687458
O        0.33668441      -0.97365639      -0.83719523
C        0.07725424       0.04139411      -0.02829935
N       -0.81044834       0.18576651       0.85741223
O        0.07678713       1.74772689       1.94514199
C        0.66428301       2.12898998       0.91457183
C        0.36461349       1.42217923      -0.27173177
H       -0.30221875      -2.47973843       0.44519123
H       -1.49530698      -1.95786860      -0.76941999
H       -0.06642066      -2.90213818      -1.27836517
H        1.17023519       3.10178778       0.87797136
H        0.42200142       1.83629323      -1.26840255
12
Frame=9 idx=009611 GeodesicLength=0.5288477660856274 rxn_smarts="[C:1]([O:2][c:3]1[n:4][o:5][c:6]([H:11])[c:7]1[H:12])([H:8])([H:9])[H:10]>>[C:1]([O:2][C:3]1=[N:4][C@:7]1([C:6](=[O:5])[H:11])[H:12])([H:8])([H:9])[H:10]"
C       -0.43667429      -2.15097490      -0.57924089
O        0.34515915      -0.98024783      -0.83608774
C        0.08194962       0.04417990      -0.04298613
N       -0.81427896       0.21098480       0.83145922
O        0.09126509       1.70929800       1.94019233
C        0.67777065       2.11620825       0.91537361
C        0.35951618       1.42741578      -0.27804073
H       -0.30915587      -2.47040825       0.45669572
H       -1.49245181      -1.95431830      -0.76967912
H       -0.06558065      -2.91072785      -1.26151701
H        1.15419221       3.10353394       0.89302101
H        0.40828868       1.85505645      -1.26919026
12
Frame=10 idx=009611 GeodesicLength=0.5887092632694124 rxn_smarts="[C:1]([O:2][c:3]1[n:4][o:5][c:6]([H:11])[c:7]1[H:12])([H:8])([H:9])[H:10]>>[C:1]([O:2][C:3]1=[N:4][C@:7]1([C:6](=[O:5])[H:11])[H:12])([H:8])([H:9])[H:10]"
C       -0.43586783      -2.15108248      -0.57122557
O        0.35304602      -0.98658927      -0.83533093
C        0.08578575       0.04745526      -0.05887102
N       -0.81745633       0.23596666       0.80525626
O        0.10527352       1.67042517       1.93399705
C        0.69072181       2.10347394       0.91573256
C        0.35522727       1.43284401      -0.28466941
H       -0.31531442      -2.46045535       0.46848114
H       -1.48971367      -1.95124834      -0.76906002
H       -0.06487289      -2.91921838      -1.24410183
H        1.13822828       3.10381336       0.90955224
H        0.39494251       1.87461542      -1.26976047
12
Frame=11 idx=009611 GeodesicLength=0.6488705926658879 rxn_smarts="[C:1]([O:2][c:3]1[n:4][o:5][c:6]([H:11])[c:7]1[H:12])([H:8])([H:9])[H:10]>>[C:1]([O:2][C:3]1=[N:4][C@:7]1([C:6](=[O:5])[H:11])[H:12])([H:8])([H:9])[H:10]"
C       -0.43500490      -2.15103324      -0.56279652
O        0.36040560      -0.99267024      -0.83489277
C        0.08872144       0.05124043      -0.07604192
N       -0.82010030       0.26075138       0.77875439
O        0.11885806       1.63098755       1.92653861
C        0.70316387       2.09068705       0.91569895
C        0.35159076       1.43852431      -0.29165485
H       -0.32077361      -2.44979006       0.48061197
H       -1.48704399      -1.94864258      -0.76766549
H       -0.06415553      -2.92762392      -1.22597454
H        1.12250821       3.10249203       0.92749967
H        0.38183038       1.89507729      -1.27007751
12
Frame=12 idx=009611 GeodesicLength=0.709352598324193 rxn_smarts="[C:1]([O:2][c:3]1[n:4][o:5][c:6]([H:11])[c:7]1[H:12])([H:8])([H:9])[H:10]>>[C:1]([O:2][C:3]1=[N:4][C@:7]1([C:6](=[O:5])[H:11])[H:12])([H:8])([H:9])[H:10]"
C       -0.43400507      -2.15081902      -0.55385972
O        0.36698312      -0.99834245      -0.83505025
C        0.09059271       0.05561438      -0.09472008
N       -0.82249820       0.28543833       0.75170998
O        0.13161422       1.59097664       1.91769759
C        0.71511202       2.07766317       0.91535240
C        0.34848585       1.44455748      -0.29905279
H       -0.32508078      -2.43827560       0.49317716
H       -1.48448776      -1.94675097      -0.76510186
H       -0.06336983      -2.93590481      -1.20707709
H        1.10749632       3.09921690       0.94702332
H        0.36915741       1.91662596      -1.27009868
12
Frame=13 idx=009611 GeodesicLength=0.7701487988134006 rxn_smarts="[C:1]([O:2][c:3]1[n:4][o:5][c:6]([H:11])[c:7]1[H:12])([H:8])([H:9])[H:10]>>[C:1]([O:2][C:3]1=[N:4][C@:7]1([C:6](=[O:5])[H:11])[H:12])([H:8])([H:9])[H:10]"
C       -0.43289696      -2.15038641      -0.54448940
O        0.37306037      -1.00369533      -0.83552671
C        0.09163557       0.06045978      -0.11468193
N       -0.82444969       0.30987947       0.72441332
O        0.14360700       1.55052615       1.90748108
C        0.72654108       2.06443318       0.91467610
C        0.34579286       1.45086375      -0.30680463
H       -0.32854451      -2.42602954       0.50607536
H       -1.48199589      -1.94526356      -0.76164160
H       -0.06254566      -2.94397113      -1.18751353
H        1.09301809       3.09412739       0.96778195
H        0.35677775       1.93905624      -1.26977002
12
Frame=14 idx=009611 GeodesicLength=0.8313203887326075 rxn_smarts="[C:1]([O:2][c:3]1[n:4][o:5][c:6]([H:11])[c:7]1[H:12])([H:8])([H:9])[H:10]>>[C:1]([O:2][C:3]1=[N:4][C@:7]1([C:6](=[O:5])[H:11])[H:12])([H:8])([H:9])[H:10]"
C       -0.43151166      -2.14972471      -0.53448667
O        0.37809906      -1.00843061      -0.83689016
C        0.09138389       0.06598606      -0.13641507
N       -0.82656382       0.33432204       0.69629480
O        0.15414254       1.50950239       1.89570685
C        0.73742582       2.05064248       0.91379930
C        0.34335318       1.45763702      -0.31500295
H       -0.33030084      -2.41272688       0.51951042
H       -1.47962978      -1.94471280      -0.75654841
H       -0.06149170      -2.95178985      -1.16708865
H        1.08001386       3.08653704       0.99014706
H        0.34507945       1.96275782      -1.26902653
12
Frame=15 idx=009611 GeodesicLength=0.8928824596862417 rxn_smarts="[C:1]([O:2][c:3]1[n:4][o:5][c:6]([H:11])[c:7]1[H:12])([H:8])([H:9])[H:10]>>[C:1]([O:2][C:3]1=[N:4][C@:7]1([C:6](=[O:5])[H:11])[H:12])([H:8])([H:9])[H:10]"
C       -0.42983707      -2.14876930      -0.52385461
O        0.38219736      -1.01255050      -0.83906616
C        0.08990040       0.07215284      -0.15987412
N       -0.82883232       0.35872000       0.66742980
O        0.16318799       1.46788397       1.88236298
C        0.74774112       2.03620631       0.91272980
C        0.34108852       1.46483779      -0.32361964
H       -0.33040889      -2.39834759       0.53346338
H       -1.47737113      -1.94494545      -0.74986160
H       -0.06017925      -2.95927591      -1.14581418
H        1.06843444       3.07644199       1.01392093
H        0.33407884       1.98764585      -1.26781658
12
Frame=16 idx=009611 GeodesicLength=0.9549280653162159 rxn_smarts="[C:1]([O:2][c:3]1[n:4][o:5][c:6]([H:11])[c:7]1[H:12])([H:8])([H:9])[H:10]>>[C:1]([O:2][C:3]1=[N:4][C@:7]1([C:6](=[O:5])[H:11])[H:12])([H:8])([H:9])[H:10]"
C       -0.42778063      -2.14745040      -0.51246330
O        0.38510333      -1.01590132      -0.84234980
C        0.08694188       0.07906535      -0.18535569
N       -0.83156789       0.38321727       0.63749592
O        0.17045263       1.42543862       1.86732364
C        0.75747271       2.02083432       0.91153280
C        0.33894477       1.47253122      -0.33269088
H       -0.32845600      -2.38262633       0.54805348
H       -1.47523620      -1.94612948      -0.74118786
H       -0.05848052      -2.96636785      -1.12351675
H        1.05855029       3.06349343       1.03921764
H        0.32405564       2.01389517      -1.26605921
