17
Frame=0 idx=009035 GeodesicLength=0.0 rxn_smarts="[C:1]([C@@:2]1([H:11])[C:3]([H:12])([H:13])[C:4]([H:14])=[C:5]([H:15])[C:6]([H:16])([H:17])[O:7]1)([H:8])([H:9])[H:10]>>[C:1]([C:2][H:11])([H:8])([H:9])[H:10].[C:3]1([H:12])([H:13])[C:4]([H:14])=[C:5]([H:15])[C:6]([H:16])([H:17])[O:7]1"
C       -2.36850005       0.70554701       0.24391991
C       -1.17642997      -0.17605073       0.47149930
C        0.31337216      -1.48535266      -0.37632837
C        1.75038153      -1.16133190      -0.14249142
C        2.09002657       0.10974030      -0.02474667
C        0.94524115       1.05204944      -0.26861624
O       -0.12907046       0.19838712      -0.61784573
H       -3.05860992       0.58315250       1.08327417
H       -2.91113222       0.43781511      -0.66558217
H       -2.11392253       1.77733868       0.17578122
H       -0.66965679       0.08877325       1.40947999
H        0.03500534      -1.81733843      -1.37167678
H       -0.06935771      -2.16718555       0.37175771
H        2.43963957      -1.98385923       0.01084176
H        3.08578393       0.46594209       0.20407893
H        0.68846805       1.65511167       0.60972046
H        1.14876132       1.71726127      -1.11306615
17
Frame=1 idx=009035 GeodesicLength=0.06195599854119688 rxn_smarts="[C:1]([C@@:2]1([H:11])[C:3]([H:12])([H:13])[C:4]([H:14])=[C:5]([H:15])[C:6]([H:16])([H:17])[O:7]1)([H:8])([H:9])[H:10]>>[C:1]([C:2][H:11])([H:8])([H:9])[H:10].[C:3]1([H:12])([H:13])[C:4]([H:14])=[C:5]([H:15])[C:6]([H:16])([H:17])[O:7]1"
C       -2.37761939       0.67821206       0.23374040
C       -1.15482737      -0.14969664       0.49278288
C        0.29435638      -1.46294582      -0.36905250
C        1.74047571      -1.16640315      -0.15125992
C        2.09959698       0.09884110      -0.02619121
C        0.96964439       1.06152893      -0.25722006
O       -0.12297367       0.23138963      -0.60720889
H       -3.07077019       0.54548500       1.06915445
H       -2.90197906       0.37008588      -0.67383302
H       -2.16204507       1.75670270       0.14640293
H       -0.66378863       0.14717424       1.42870741
H        0.00346399      -1.79373837      -1.36196201
H       -0.08649704      -2.14977678       0.37669754
H        2.42088371      -1.99974431      -0.01901839
H        3.10397966       0.43878401       0.18967657
H        0.73051489       1.66407593       0.62651214
H        1.17758471       1.73002559      -1.09792832
17
Frame=2 idx=009035 GeodesicLength=0.12317565470249171 rxn_smarts="[C:1]([C@@:2]1([H:11])[C:3]([H:12])([H:13])[C:4]([H:14])=[C:5]([H:15])[C:6]([H:16])([H:17])[O:7]1)([H:8])([H:9])[H:10]>>[C:1]([C:2][H:11])([H:8])([H:9])[H:10].[C:3]1([H:12])([H:13])[C:4]([H:14])=[C:5]([H:15])[C:6]([H:16])([H:17])[O:7]1"
C       -2.38520963       0.65010331       0.22399772
C       -1.13388578      -0.12232319       0.51264070
C        0.27533506      -1.43975203      -0.36174608
C        1.72960205      -1.17106033      -0.15931613
C        2.10834863       0.08788426      -0.02802492
C        0.99370717       1.07068725      -0.24605322
O       -0.11671385       0.26478882      -0.59682794
H       -3.08036091       0.50650753       1.05590033
H       -2.89026519       0.30290600      -0.68034819
H       -2.20912868       1.73342549       0.11704827
H       -0.65970736       0.20637427       1.44566591
H       -0.02733477      -1.76922583      -1.35214600
H       -0.10439952      -2.13134231       0.38123496
H        2.40045718      -2.01491219      -0.04743864
H        3.12075538       0.41135880       0.17502949
H        0.77248358       1.67208693       0.64306058
H        1.20631665       1.74249322      -1.08267684
17
Frame=3 idx=009035 GeodesicLength=0.18401820765940796 rxn_smarts="[C:1]([C@@:2]1([H:11])[C:3]([H:12])([H:13])[C:4]([H:14])=[C:5]([H:15])[C:6]([H:16])([H:17])[O:7]1)([H:8])([H:9])[H:10]>>[C:1]([C:2][H:11])([H:8])([H:9])[H:10].[C:3]1([H:12])([H:13])[C:4]([H:14])=[C:5]([H:15])[C:6]([H:16])([H:17])[O:7]1"
C       -2.39138500       0.62128816       0.21468063
C       -1.11390218      -0.09430147       0.53123187
C        0.25611631      -1.41621399      -0.35439391
C        1.71782684      -1.17537877      -0.16658179
C        2.11650980       0.07718156      -0.03013142
C        1.01762254       1.07982548      -0.23515209
O       -0.11030433       0.29844905      -0.58694728
H       -3.08775635       0.46612970       1.04368069
H       -2.87620266       0.23656723      -0.68577518
H       -2.25480573       1.70783781       0.08798369
H       -0.65756939       0.26616744       1.46081796
H       -0.05771257      -1.74448252      -1.34255686
H       -0.12335203      -2.11245904       0.38579169
H        2.37851803      -2.02950628      -0.07474339
H        3.13657390       0.38423921       0.16010812
H        0.81453870       1.67948565       0.65964020
H        1.23528412       1.75517078      -1.06765290
17
Frame=4 idx=009035 GeodesicLength=0.24446926553579498 rxn_smarts="[C:1]([C@@:2]1([H:11])[C:3]([H:12])([H:13])[C:4]([H:14])=[C:5]([H:15])[C:6]([H:16])([H:17])[O:7]1)([H:8])([H:9])[H:10]>>[C:1]([C:2][H:11])([H:8])([H:9])[H:10].[C:3]1([H:12])([H:13])[C:4]([H:14])=[C:5]([H:15])[C:6]([H:16])([H:17])[O:7]1"
C       -2.39602023       0.59208362       0.20577205
C       -1.09482767      -0.06564346       0.54826764
C        0.23708367      -1.39192681      -0.34679878
C        1.70534890      -1.17914116      -0.17305090
C        2.12379244       0.06642692      -0.03247932
C        1.04088657       1.08828647      -0.22438128
O       -0.10385652       0.33209450      -0.57732313
H       -3.09283661       0.42461044       1.03187592
H       -2.85952187       0.17212037      -0.68997689
H       -2.29899714       1.67979163       0.05988535
H       -0.65740953       0.32632556       1.47330608
H       -0.08720768      -1.71904287      -1.33247108
H       -0.14266382      -2.09232554       0.39030698
H        2.35548447      -2.04302379      -0.10093515
H        3.15104894       0.35691425       0.14434300
H        0.85591730       1.68533471       0.67593823
H        1.26377878       1.76711516      -1.05227872
17
Frame=5 idx=009035 GeodesicLength=0.30449706394548764 rxn_smarts="[C:1]([C@@:2]1([H:11])[C:3]([H:12])([H:13])[C:4]([H:14])=[C:5]([H:15])[C:6]([H:16])([H:17])[O:7]1)([H:8])([H:9])[H:10]>>[C:1]([C:2][H:11])([H:8])([H:9])[H:10].[C:3]1([H:12])([H:13])[C:4]([H:14])=[C:5]([H:15])[C:6]([H:16])([H:17])[O:7]1"
C       -2.39908868       0.56273443       0.19738497
C       -1.07683552      -0.03691916       0.56385724
C        0.21814992      -1.36761659      -0.33921710
C        1.69219651      -1.18256011      -0.17869876
C        2.13023505       0.05600733      -0.03492001
C        1.06351449       1.09652996      -0.21391424
O       -0.09741895       0.36553998      -0.56836155
H       -3.09549384       0.38251662       1.02118244
H       -2.84084876       0.10959869      -0.69319060
H       -2.34096650       1.64998904       0.03255098
H       -0.65911764       0.38627990       1.48361613
H       -0.11586637      -1.69384132      -1.32262060
H       -0.16252495      -2.07202921       0.39481603
H        2.33144552      -2.05578899      -0.12599158
H        3.16419288       0.33019852       0.12851321
H        0.89645650       1.69032393       0.69208532
H        1.29197033       1.77903699      -1.03709187
17
Frame=6 idx=009035 GeodesicLength=0.36415563795873906 rxn_smarts="[C:1]([C@@:2]1([H:11])[C:3]([H:12])([H:13])[C:4]([H:14])=[C:5]([H:15])[C:6]([H:16])([H:17])[O:7]1)([H:8])([H:9])[H:10]>>[C:1]([C:2][H:11])([H:8])([H:9])[H:10].[C:3]1([H:12])([H:13])[C:4]([H:14])=[C:5]([H:15])[C:6]([H:16])([H:17])[O:7]1"
C       -2.40059908       0.53353345       0.18953600
C       -1.05993574      -0.00834158       0.57792386
C        0.19951723      -1.34329336      -0.33161189
C        1.67853924      -1.18557472      -0.18350846
C        2.13574585       0.04586757      -0.03738663
C        1.08525544       1.10430680      -0.20372572
O       -0.09106362       0.39853284      -0.56002786
H       -3.09573645       0.34036007       1.01148878
H       -2.82040658       0.04945791      -0.69536453
H       -2.38049797       1.61864994       0.00615530
H       -0.66262207       0.44567293       1.49148493
H       -0.14343828      -1.66891486      -1.31281378
H       -0.18259048      -2.05146711       0.39928948
H        2.30675754      -2.06758684      -0.15013679
H        3.17584521       0.30407392       0.11269029
H        0.93568239       1.69414780       0.70794249
H        1.31954736       1.79057526      -1.02193547
17
Frame=7 idx=009035 GeodesicLength=0.4236674646900317 rxn_smarts="[C:1]([C@@:2]1([H:11])[C:3]([H:12])([H:13])[C:4]([H:14])=[C:5]([H:15])[C:6]([H:16])([H:17])[O:7]1)([H:8])([H:9])[H:10]>>[C:1]([C:2][H:11])([H:8])([H:9])[H:10].[C:3]1([H:12])([H:13])[C:4]([H:14])=[C:5]([H:15])[C:6]([H:16])([H:17])[O:7]1"
C       -2.40064011       0.50463737       0.18216201
C       -1.04413815       0.01992649       0.59055426
C        0.18122530      -1.31910414      -0.32393296
C        1.66448351      -1.18823287      -0.18748037
C        2.14037661       0.03604481      -0.03979245
C        1.10608138       1.11163674      -0.19370394
O       -0.08480369       0.43097491      -0.55230602
H       -3.09372559       0.29836982       1.00271045
H       -2.79843993      -0.00819528      -0.69672522
H       -2.41753671       1.58606689      -0.01931772
H       -0.66789138       0.50434183       1.49698968
H       -0.16996235      -1.64447872      -1.30301880
H       -0.20272872      -2.03079374       0.40387462
H        2.28158831      -2.07844835      -0.17354709
H        3.18614870       0.27863443       0.09653395
H        0.97350818       1.69679498       0.72368196
H        1.34645466       1.80182484      -1.00668236
17
Frame=8 idx=009035 GeodesicLength=0.48301848099525796 rxn_smarts="[C:1]([C@@:2]1([H:11])[C:3]([H:12])([H:13])[C:4]([H:14])=[C:5]([H:15])[C:6]([H:16])([H:17])[O:7]1)([H:8])([H:9])[H:10]>>[C:1]([C:2][H:11])([H:8])([H:9])[H:10].[C:3]1([H:12])([H:13])[C:4]([H:14])=[C:5]([H:15])[C:6]([H:16])([H:17])[O:7]1"
C       -2.39928265       0.47629338       0.17529645
C       -1.02940123       0.04766666       0.60174494
C        0.16341120      -1.29516031      -0.31621624
C        1.65018740      -1.19054163      -0.19064932
C        2.14410812       0.02654032      -0.04212543
C        1.12583368       1.11842852      -0.18391172
O       -0.07871643       0.46268163      -0.54522280
H       -3.08951272       0.25699978       0.99486318
H       -2.77530167      -0.06311457      -0.69723156
H       -2.45192895       1.55257650      -0.04378239
H       -0.67471306       0.56190384       1.50005930
H       -0.19530720      -1.62065703      -1.29320695
H       -0.22267959      -2.01011316       0.40850897
H        2.25621291      -2.08830912      -0.19637468
H        3.19499367       0.25395833       0.08048373
H        1.00961745       1.69822057       0.73913378
H        1.37247906       1.81262628      -0.99136927
17
Frame=9 idx=009035 GeodesicLength=0.542283778519908 rxn_smarts="[C:1]([C@@:2]1([H:11])[C:3]([H:12])([H:13])[C:4]([H:14])=[C:5]([H:15])[C:6]([H:16])([H:17])[O:7]1)([H:8])([H:9])[H:10]>>[C:1]([C:2][H:11])([H:8])([H:9])[H:10].[C:3]1([H:12])([H:13])[C:4]([H:14])=[C:5]([H:15])[C:6]([H:16])([H:17])[O:7]1"
C       -2.39665979       0.44863385       0.16890820
C       -1.01570945       0.07473150       0.61160274
C        0.14609970      -1.27163135      -0.30846412
C        1.63575341      -1.19256400      -0.19305362
C        2.14701599       0.01739999      -0.04431543
C        1.14453495       1.12473474      -0.17432168
O       -0.07279473       0.49356178      -0.53879579
H       -3.08334722       0.21638681       0.98789595
H       -2.75124229      -0.11518978      -0.69714423
H       -2.48368614       1.51853338      -0.06709591
H       -0.68298891       0.61816285       1.50085385
H       -0.21949858      -1.59768591      -1.28342264
H       -0.24237540      -1.98962563       0.41327558
H        2.23077881      -2.09720722      -0.21862605
H        3.20252322       0.23017339       0.06436014
H        1.04394936       1.69854197       0.75436838
H        1.39764707       1.82304362      -0.97602536
17
Frame=10 idx=009035 GeodesicLength=0.6015032451553305 rxn_smarts="[C:1]([C@@:2]1([H:11])[C:3]([H:12])([H:13])[C:4]([H:14])=[C:5]([H:15])[C:6]([H:16])([H:17])[O:7]1)([H:8])([H:9])[H:10]>>[C:1]([C:2][H:11])([H:8])([H:9])[H:10].[C:3]1([H:12])([H:13])[C:4]([H:14])=[C:5]([H:15])[C:6]([H:16])([H:17])[O:7]1"
C       -2.39288296       0.42178697       0.16298067
C       -1.00299325       0.10101309       0.62020181
C        0.12934444      -1.24859254      -0.30068981
C        1.62128464      -1.19432790      -0.19474182
C        2.14914165       0.00862399      -0.04634721
C        1.16215451       1.13054435      -0.16493633
O       -0.06706411       0.52353983      -0.53300739
H       -3.07537427       0.17676727       0.98176571
H       -2.72653389      -0.16440342      -0.69652404
H       -2.51283999       1.48420530      -0.08926416
H       -0.69253366       0.67289661       1.49945723
H       -0.24253431      -1.57564261      -1.27365020
H       -0.26168081      -1.96941754       0.41816656
H        2.20543638      -2.10514587      -0.24038702
H        3.20877370       0.20731405       0.04828026
H        1.07641476       1.69779861       0.76934811
H        1.42188716       1.83303981      -0.96065236
17
Frame=11 idx=009035 GeodesicLength=0.6606846671168014 rxn_smarts="[C:1]([C@@:2]1([H:11])[C:3]([H:12])([H:13])[C:4]([H:14])=[C:5]([H:15])[C:6]([H:16])([H:17])[O:7]1)([H:8])([H:9])[H:10]>>[C:1]([C:2][H:11])([H:8])([H:9])[H:10].[C:3]1([H:12])([H:13])[C:4]([H:14])=[C:5]([H:15])[C:6]([H:16])([H:17])[O:7]1"
C       -2.38809002       0.39583904       0.15750586
C       -0.99118248       0.12643810       0.62762769
C        0.11317429      -1.22611031      -0.29293386
C        1.60687507      -1.19586749      -0.19580616
C        2.15055418       0.00021352      -0.04823669
C        1.17870719       1.13587075      -0.15578219
O       -0.06153742       0.55257162      -0.52785563
H       -3.06577443       0.13831517       0.97645871
H       -2.70144158      -0.21081751      -0.69542450
H       -2.53947991       1.44983195      -0.11027463
H       -0.70315520       0.72594719       1.49599176
H       -0.26444323      -1.55459369      -1.26392111
H       -0.28050822      -1.94957174       0.42315548
H        2.18030252      -2.11215373      -0.26169412
H        3.21381597       0.18540793       0.03245482
H        1.10699077       1.69607900       0.78403058
H        1.44519250       1.84260022      -0.94529602
17
Frame=12 idx=009035 GeodesicLength=0.7199014311304204 rxn_smarts="[C:1]([C@@:2]1([H:11])[C:3]([H:12])([H:13])[C:4]([H:14])=[C:5]([H:15])[C:6]([H:16])([H:17])[O:7]1)([H:8])([H:9])[H:10]>>[C:1]([C:2][H:11])([H:8])([H:9])[H:10].[C:3]1([H:12])([H:13])[C:4]([H:14])=[C:5]([H:15])[C:6]([H:16])([H:17])[O:7]1"
C       -2.38237480       0.37083594       0.15241217
C       -0.98020066       0.15099065       0.63399531
C        0.09759219      -1.20424571      -0.28515704
C        1.59256398      -1.19724720      -0.19623722
C        2.15129982      -0.00784426      -0.04992294
C        1.19422746       1.14076558      -0.14678487
O       -0.05619517       0.58067192      -0.52328022
H       -3.05471215       0.10104960       0.97185040
H       -2.67607601      -0.25450796      -0.69403138
H       -2.56374307       1.41563823      -0.13016388
H       -0.71475227       0.77725619       1.49063029
H       -0.28526920      -1.53460503      -1.25419670
H       -0.29880964      -1.93017804       0.42831213
H        2.15542674      -2.11830367      -0.28257865
H        3.21774698       0.16445115       0.01653809
H        1.13571190       1.69347078       0.79850798
H        1.46756390       1.85180184      -0.92989347
17
Frame=13 idx=009035 GeodesicLength=0.7791323119853749 rxn_smarts="[C:1]([C@@:2]1([H:11])[C:3]([H:12])([H:13])[C:4]([H:14])=[C:5]([H:15])[C:6]([H:16])([H:17])[O:7]1)([H:8])([H:9])[H:10]>>[C:1]([C:2][H:11])([H:8])([H:9])[H:10].[C:3]1([H:12])([H:13])[C:4]([H:14])=[C:5]([H:15])[C:6]([H:16])([H:17])[O:7]1"
C       -2.37590042       0.34679889       0.14773017
C       -0.96997485       0.17462058       0.63935424
C        0.08260643      -1.18294858      -0.27744580
C        1.57844216      -1.19841671      -0.19617575
C        2.15146780      -0.01555592      -0.05145223
C        1.20876119       1.14518228      -0.13801124
O       -0.05105765       0.60780477      -0.51925931
H       -3.04237734       0.06522623       0.96798225
H       -2.65074991      -0.29566063      -0.69218700
H       -2.58575005       1.38166753      -0.14904234
H       -0.72708581       0.82662179       1.48346379
H       -0.30505948      -1.51555514      -1.24451742
H       -0.31654193      -1.91117701       0.43349327
H        2.13091159      -2.12352093      -0.30305749
H        3.22065662       0.14442133       0.00100162
H        1.16261512       1.68999291       0.81263496
H        1.48903653       1.86049861      -0.91451172
17
Frame=14 idx=009035 GeodesicLength=0.8384626460318828 rxn_smarts="[C:1]([C@@:2]1([H:11])[C:3]([H:12])([H:13])[C:4]([H:14])=[C:5]([H:15])[C:6]([H:16])([H:17])[O:7]1)([H:8])([H:9])[H:10]>>[C:1]([C:2][H:11])([H:8])([H:9])[H:10].[C:3]1([H:12])([H:13])[C:4]([H:14])=[C:5]([H:15])[C:6]([H:16])([H:17])[O:7]1"
C       -2.36873920       0.32370960       0.14337694
C       -0.96043569       0.19742412       0.64382468
C        0.06819789      -1.16226295      -0.26974877
C        1.56450662      -1.19948349      -0.19563615
C        2.15110165      -0.02296145      -0.05280715
C        1.22237400       1.14921065      -0.12936082
O       -0.04607851       0.63406405      -0.51573508
H       -3.02888373       0.03070772       0.96473764
H       -2.62545067      -0.33448211      -0.69007476
H       -2.60571322       1.34807394      -0.16697731
H       -0.74013196       0.87424340       1.47464939
H       -0.32387410      -1.49751584      -1.23485332
H       -0.33369312      -1.89263577       0.43880885
H        2.10671641      -2.12797372      -0.32320206
H        3.22261963       0.12525935      -0.01454910
H        1.18781068       1.68576536       0.82658340
H        1.50967331       1.86885716      -0.89903638
17
Frame=15 idx=009035 GeodesicLength=0.8978400205590027 rxn_smarts="[C:1]([C@@:2]1([H:11])[C:3]([H:12])([H:13])[C:4]([H:14])=[C:5]([H:15])[C:6]([H:16])([H:17])[O:7]1)([H:8])([H:9])[H:10]>>[C:1]([C:2][H:11])([H:8])([H:9])[H:10].[C:3]1([H:12])([H:13])[C:4]([H:14])=[C:5]([H:15])[C:6]([H:16])([H:17])[O:7]1"
C       -2.36099198       0.30159360       0.13934454
C       -0.95150946       0.21933763       0.64747705
C        0.05435152      -1.14220315      -0.26212492
C        1.55079937      -1.20043889      -0.19467836
C        2.15025469      -0.03004509      -0.05397604
C        1.23510565       1.15287725      -0.12089427
O       -0.04127232       0.65944134      -0.51269237
H       -3.01439636      -0.00249750       0.96205840
H       -2.60033166      -0.37095515      -0.68779936
H       -2.62373094       1.31502256      -0.18387137
H       -0.75368314       0.91987408       1.46440666
H       -0.34176535      -1.48045678      -1.22526106
H       -0.35026464      -1.87460377       0.44417599
H        2.08291003      -2.13167418      -0.34278160
H        3.22371460       0.10698949      -0.03002245
H        1.21134003       1.68090674       0.84024383
H        1.52946995       1.87683183      -0.88360467
17
Frame=16 idx=009035 GeodesicLength=0.9571769531750223 rxn_smarts="[C:1]([C@@:2]1([H:11])[C:3]([H:12])([H:13])[C:4]([H:14])=[C:5]([H:15])[C:6]([H:16])([H:17])[O:7]1)([H:8])([H:9])[H:10]>>[C:1]([C:2][H:11])([H:8])([H:9])[H:10].[C:3]1([H:12])([H:13])[C:4]([H:14])=[C:5]([H:15])[C:6]([H:16])([H:17])[O:7]1"
C       -2.35275796       0.28045801       0.13565571
C       -0.94311854       0.24032047       0.65037212
C        0.04105322      -1.12277901      -0.25468043
C        1.53735445      -1.20128527      -0.19344184
C        2.14896922      -0.03680000      -0.05502080
C        1.24698487       1.15621421      -0.11270855
O       -0.03666461       0.68394791      -0.51013955
H       -2.99904476      -0.03432072       0.95996865
H       -2.57554760      -0.40517782      -0.68535587
H       -2.63990844       1.28264077      -0.19967177
H       -0.76751909       0.96336027       1.45293773
H       -0.35878309      -1.46433946      -1.21585168
H       -0.36625206      -1.85713030       0.44945412
H        2.05956020      -2.13468034      -0.36162676
H        3.22399514       0.08962026      -0.04500669
H        1.23325359       1.67555444       0.85348686
H        1.54842545       1.88439659      -0.86837124
