17
Frame=0 idx=011545 GeodesicLength=0.0 rxn_smarts="[C:1]([O:2][C:3]([C@@:4]1([H:13])[C:5]([H:14])([H:15])[C@:6]1([O:7][H:17])[H:16])([H:11])[H:12])([H:8])([H:9])[H:10]>>[C:1]([O:2][H:17])([H:8])([H:9])[H:10].[C:3](=[C:4]([C:5]([C:6](=[O:7])[H:16])([H:14])[H:15])[H:13])([H:11])[H:12]"
C        2.05408488       0.58420284       0.53964081
O        1.32138326      -0.61338937       0.69348171
C        0.32455011      -0.97301509      -0.78534056
C       -0.70424492      -0.04450325      -0.99193071
C       -2.08099931      -0.25707193      -0.38021565
C       -1.35808840       0.53407856       0.60987802
O       -0.77597362       0.05470945       1.64713691
H        2.90502612       0.39612692      -0.11787930
H        2.41461069       0.91322600       1.51515650
H        1.43100913       1.37705106       0.11149274
H        1.15722924      -0.97026164      -1.47976975
H        0.07336997      -1.95832912      -0.40933759
H       -0.56781611       0.75302215      -1.70713246
H       -2.88491408       0.23064943      -0.92096775
H       -2.30133713      -1.28255717      -0.09930387
H       -1.44402081       1.62209136       0.50183287
H        0.43613095      -0.36603018       1.27325801
17
Frame=1 idx=011545 GeodesicLength=0.10723852059227652 rxn_smarts="[C:1]([O:2][C:3]([C@@:4]1([H:13])[C:5]([H:14])([H:15])[C@:6]1([O:7][H:17])[H:16])([H:11])[H:12])([H:8])([H:9])[H:10]>>[C:1]([O:2][H:17])([H:8])([H:9])[H:10].[C:3](=[C:4]([C:5]([C:6](=[O:7])[H:16])([H:14])[H:15])[H:13])([H:11])[H:12]"
C        2.08458204       0.56215867       0.55720015
O        1.30654004      -0.60682701       0.70340109
C        0.32727317      -0.94783199      -0.80691756
C       -0.72215397      -0.03886135      -0.99913743
C       -2.08508454      -0.27711132      -0.36838602
C       -1.37515004       0.55579426       0.60048575
O       -0.78949233       0.10838696       1.65105534
H        2.94348966       0.33829720      -0.07860689
H        2.43607776       0.88806717       1.53715408
H        1.49660394       1.37046473       0.10831617
H        1.14899339      -0.92332609      -1.51477871
H        0.10089829      -1.94886420      -0.45639141
H       -0.61608148       0.74896419      -1.73059923
H       -2.90951834       0.17757158      -0.90717270
H       -2.26811370      -1.30217776      -0.06014058
H       -1.49233507       1.63904294       0.47751154
H        0.41347120      -0.34374797       1.28700641
17
Frame=2 idx=011545 GeodesicLength=0.2139374349828851 rxn_smarts="[C:1]([O:2][C:3]([C@@:4]1([H:13])[C:5]([H:14])([H:15])[C@:6]1([O:7][H:17])[H:16])([H:11])[H:12])([H:8])([H:9])[H:10]>>[C:1]([O:2][H:17])([H:8])([H:9])[H:10].[C:3](=[C:4]([C:5]([C:6](=[O:7])[H:16])([H:14])[H:15])[H:13])([H:11])[H:12]"
C        2.11541884       0.53778992       0.57548416
O        1.29059071      -0.59911875       0.71317483
C        0.33032751      -0.92043634      -0.82934026
C       -0.74066856      -0.03308071      -1.00683014
C       -2.08798378      -0.29802806      -0.35552351
C       -1.39342100       0.57805294       0.59012894
O       -0.80303081       0.16540684       1.65338014
H        2.97979797       0.27601018      -0.03831522
H        2.45869334       0.86023873       1.55964307
H        1.56533832       1.36151796       0.10651681
H        1.14053690      -0.87238922      -1.55016432
H        0.13012210      -1.93622841      -0.50483063
H       -0.66693421       0.74340264      -1.75485209
H       -2.93305800       0.12106884      -0.89133287
H       -2.23144869      -1.32076363      -0.01950727
H       -1.54450381       1.65502249       0.45159741
H        0.39022316      -0.31846542       1.30077093
17
Frame=3 idx=011545 GeodesicLength=0.3199779778020401 rxn_smarts="[C:1]([O:2][C:3]([C@@:4]1([H:13])[C:5]([H:14])([H:15])[C@:6]1([O:7][H:17])[H:16])([H:11])[H:12])([H:8])([H:9])[H:10]>>[C:1]([O:2][H:17])([H:8])([H:9])[H:10].[C:3](=[C:4]([C:5]([C:6](=[O:7])[H:16])([H:14])[H:15])[H:13])([H:11])[H:12]"
C        2.14641993       0.51093754       0.59446457
O        1.27346917      -0.59000625       0.72272524
C        0.33374535      -0.89060638      -0.85256452
C       -0.75977763      -0.02723821      -1.01503034
C       -2.08946601      -0.31978467      -0.34159119
C       -1.41301254       0.60077572       0.57874732
O       -0.81668796       0.22584940       1.65378387
H        3.01338024       0.20902767       0.00278255
H        2.48245576       0.82943126       1.58258797
H        1.63723837       1.34994604       0.10626183
H        1.13175690      -0.81712762      -1.58579514
H        0.16116253      -1.92007604      -0.55453293
H       -0.72037823       0.73593760      -1.77980879
H       -2.95512606       0.06108546      -0.87324612
H       -2.19108246      -1.33803565       0.02253073
H       -1.60056913       1.66962617       0.42415095
H        0.36647179      -0.28974203       1.31453400
17
Frame=4 idx=011545 GeodesicLength=0.4252598592706369 rxn_smarts="[C:1]([O:2][C:3]([C@@:4]1([H:13])[C:5]([H:14])([H:15])[C@:6]1([O:7][H:17])[H:16])([H:11])[H:12])([H:8])([H:9])[H:10]>>[C:1]([O:2][H:17])([H:8])([H:9])[H:10].[C:3](=[C:4]([C:5]([C:6](=[O:7])[H:16])([H:14])[H:15])[H:13])([H:11])[H:12]"
C        2.17736381       0.48144092       0.61408312
O        1.25516614      -0.57918662       0.73197090
C        0.33753817      -0.85814149      -0.87654054
C       -0.77945537      -0.02142080      -1.02376092
C       -2.08928074      -0.34231184      -0.32656685
C       -1.43403526       0.62382561       0.56629699
O       -0.83057596       0.28971939       1.65191450
H        3.04355826       0.13717015       0.04439552
H        2.50730340       0.79532487       1.60595681
H        1.71228950       1.33541832       0.10767553
H        1.12256334      -0.75726504      -1.62146736
H        0.19412597      -1.90004866      -0.60530924
H       -0.77634554       0.72617407      -1.80534630
H       -2.97524873      -0.00238343      -0.85270630
H       -2.14677587      -1.35362789       0.06584401
H       -1.66057290       1.68239946       0.39527833
H        0.34238178      -0.25708702       1.32828180
17
Frame=5 idx=011545 GeodesicLength=0.5296948121424817 rxn_smarts="[C:1]([O:2][C:3]([C@@:4]1([H:13])[C:5]([H:14])([H:15])[C@:6]1([O:7][H:17])[H:16])([H:11])[H:12])([H:8])([H:9])[H:10]>>[C:1]([O:2][H:17])([H:8])([H:9])[H:10].[C:3](=[C:4]([C:5]([C:6](=[O:7])[H:16])([H:14])[H:15])[H:13])([H:11])[H:12]"
C        2.20810527       0.44909875       0.63425661
O        1.23581621      -0.56632820       0.74094630
C        0.34159318      -0.82295771      -0.90118031
C       -0.79969818      -0.01571250      -1.03304403
C       -2.08722583      -0.36545700      -0.31036098
C       -1.45654095       0.64700921       0.55277765
O       -0.84453118       0.35686317       1.64762533
H        3.06981068       0.06072912       0.08615661
H        2.53314422       0.75729351       1.62968187
H        1.79050420       1.31738424       0.11081922
H        1.11322412      -0.69246605      -1.65650692
H        0.22872154      -1.87595392      -0.65703419
H       -0.83490138       0.71386898      -1.83156680
H       -2.99292935      -0.06942281      -0.82955106
H       -2.09851181      -1.36704617       0.11012564
H       -1.72496319       1.69290966       0.36489138
H        0.31838244      -0.21981227       1.34196369
17
Frame=6 idx=011545 GeodesicLength=0.6332033339983874 rxn_smarts="[C:1]([O:2][C:3]([C@@:4]1([H:13])[C:5]([H:14])([H:15])[C@:6]1([O:7][H:17])[H:16])([H:11])[H:12])([H:8])([H:9])[H:10]>>[C:1]([O:2][H:17])([H:8])([H:9])[H:10].[C:3](=[C:4]([C:5]([C:6](=[O:7])[H:16])([H:14])[H:15])[H:13])([H:11])[H:12]"
C        2.23822055       0.41387525       0.65486831
O        1.21540557      -0.55111659       0.74946928
C        0.34594663      -0.78487412      -0.92644500
C       -0.82039480      -0.01026776      -1.04286913
C       -2.08298567      -0.38909747      -0.29302628
C       -1.48058943       0.67012163       0.53819654
O       -0.85892359       0.42709402       1.64050350
H        3.09129839      -0.02057618       0.12792297
H        2.55959814       0.71540112       1.65366677
H        1.87167437       1.29554288       0.11559956
H        1.10334265      -0.62259824      -1.69099900
H        0.26526355      -1.84739747      -0.70940023
H       -0.89559974       0.69850225      -1.85806637
H       -3.00756415      -0.13972393      -0.80357364
H       -2.04608063      -1.37794209       0.15530277
H       -1.79319891       1.70058140       0.33340047
H        0.29458706      -0.17752469       1.35544948
17
Frame=7 idx=011545 GeodesicLength=0.7356262050248422 rxn_smarts="[C:1]([O:2][C:3]([C@@:4]1([H:13])[C:5]([H:14])([H:15])[C@:6]1([O:7][H:17])[H:16])([H:11])[H:12])([H:8])([H:9])[H:10]>>[C:1]([O:2][H:17])([H:8])([H:9])[H:10].[C:3](=[C:4]([C:5]([C:6](=[O:7])[H:16])([H:14])[H:15])[H:13])([H:11])[H:12]"
C        2.26727654       0.37581437       0.67573813
O        1.19407692      -0.53327344       0.75748639
C        0.35054908      -0.74386013      -0.95222335
C       -0.84139618      -0.00525475      -1.05316999
C       -2.07632073      -0.41300359      -0.27463713
C       -1.50615053       0.69287487       0.52263843
O       -0.87399247       0.49998093       1.63023715
H        3.10730492      -0.10656524       0.16949156
H        2.58621859       0.66977703       1.67768900
H        1.95544548       1.26947039       0.12177565
H        1.09269448      -0.54765631      -1.72469449
H        0.30372852      -1.81418878      -0.76207746
H       -0.95788235       0.67965360      -1.88441812
H       -3.01855231      -0.21282131      -0.77471198
H       -1.98956924      -1.38593137       0.20101258
H       -1.86471011       1.70480571       0.30130570
H        0.27127939      -0.12982199       1.36855791
17
Frame=8 idx=011545 GeodesicLength=0.8368524181326613 rxn_smarts="[C:1]([O:2][C:3]([C@@:4]1([H:13])[C:5]([H:14])([H:15])[C@:6]1([O:7][H:17])[H:16])([H:11])[H:12])([H:8])([H:9])[H:10]>>[C:1]([O:2][H:17])([H:8])([H:9])[H:10].[C:3](=[C:4]([C:5]([C:6](=[O:7])[H:16])([H:14])[H:15])[H:13])([H:11])[H:12]"
C        2.29478585       0.33502829       0.69661769
O        1.17206897      -0.51253914       0.76491985
C        0.35532877      -0.70000041      -0.97840059
C       -0.86249088      -0.00084623      -1.06385448
C       -2.06696504      -0.43692512      -0.25529941
C       -1.53312296       0.71492041       0.50623381
O       -0.88995260       0.57488519       1.61666438
H        3.11696571      -0.19682993       0.21065869
H        2.61238122       0.62063757       1.70153394
H        2.04134722       1.23863991       0.12896681
H        1.08109487      -0.46780195      -1.75728655
H        0.34405236      -1.77619817      -0.81465027
H       -1.02107840       0.65706249      -1.91022908
H       -3.02525103      -0.28815504      -0.74296451
H       -1.92917126      -1.39057422       0.24684358
H       -1.93882789       1.70507559       0.26917456
H        0.24883511      -0.07637925       1.38107159
17
Frame=9 idx=011545 GeodesicLength=0.9370813673896188 rxn_smarts="[C:1]([O:2][C:3]([C@@:4]1([H:13])[C:5]([H:14])([H:15])[C@:6]1([O:7][H:17])[H:16])([H:11])[H:12])([H:8])([H:9])[H:10]>>[C:1]([O:2][H:17])([H:8])([H:9])[H:10].[C:3](=[C:4]([C:5]([C:6](=[O:7])[H:16])([H:14])[H:15])[H:13])([H:11])[H:12]"
C        2.32054713       0.29148224       0.71734995
O        1.14979168      -0.48856219       0.77181682
C        0.36009336      -0.65353864      -1.00487730
C       -0.88349193       0.00290008      -1.07488801
C       -2.05480817      -0.46051291      -0.23498687
C       -1.56131869       0.73592321       0.48917521
O       -0.90662494       0.65112561       1.60004185
H        3.12002746      -0.29031805       0.25107992
H        2.63773496       0.56770300       1.72510200
H        2.12915102       1.20223728       0.13693754
H        1.06885390      -0.38311418      -1.78794884
H        0.38562753      -1.73358917      -0.86685702
H       -1.08485171       0.63075592      -1.93554653
H       -3.02710160      -0.36539616      -0.70837607
H       -1.86542026      -1.39137419       0.29234994
H       -2.01600212       1.70088793       0.23701149
H        0.22779238      -0.01660977       1.39261593
17
Frame=10 idx=011545 GeodesicLength=1.0361313350616932 rxn_smarts="[C:1]([O:2][C:3]([C@@:4]1([H:13])[C:5]([H:14])([H:15])[C@:6]1([O:7][H:17])[H:16])([H:11])[H:12])([H:8])([H:9])[H:10]>>[C:1]([O:2][H:17])([H:8])([H:9])[H:10].[C:3](=[C:4]([C:5]([C:6](=[O:7])[H:16])([H:14])[H:15])[H:13])([H:11])[H:12]"
C        2.34375842       0.24569096       0.73761202
O        1.12749210      -0.46127431       0.77806167
C        0.36486367      -0.60466435      -1.03153563
C       -0.90401149       0.00575558      -1.08605728
C       -2.03961952      -0.48352399      -0.21401992
C       -1.59049073       0.75549394       0.47172720
O       -0.92461447       0.72772628       1.58033582
H        3.11543217      -0.38681944       0.29093384
H        2.66128674       0.51229006       1.74789342
H        2.21781951       1.15994473       0.14491353
H        1.05522222      -0.29422598      -1.81695145
H        0.42868890      -1.68636976      -0.91820303
H       -1.14779420       0.60058418      -1.95947439
H       -3.02358325      -0.44342253      -0.67118125
H       -1.79852929      -1.38824981       0.33710592
H       -2.09416868       1.69194023       0.20598884
H        0.20824788       0.04912421       1.40285068
17
Frame=11 idx=011545 GeodesicLength=1.1339676671434604 rxn_smarts="[C:1]([O:2][C:3]([C@@:4]1([H:13])[C:5]([H:14])([H:15])[C@:6]1([O:7][H:17])[H:16])([H:11])[H:12])([H:8])([H:9])[H:10]>>[C:1]([O:2][H:17])([H:8])([H:9])[H:10].[C:3](=[C:4]([C:5]([C:6](=[O:7])[H:16])([H:14])[H:15])[H:13])([H:11])[H:12]"
C        2.36385003       0.19814405       0.75713276
O        1.10559534      -0.43072755       0.78368837
C        0.36957894      -0.55381720      -1.05823205
C       -0.92362162       0.00759978      -1.09712766
C       -2.02131786      -0.50562804      -0.19264949
C       -1.62019405       0.77324872       0.45427459
O       -0.94406019       0.80357563       1.55787193
H        3.10267684      -0.48532234       0.33020072
H        2.68232604       0.45542981       1.76955079
H        2.30633588       1.11137745       0.15225970
H        1.03995180      -0.20195580      -1.84409980
H        0.47291215      -1.63493013      -0.96829623
H       -1.20885930       0.56677137      -1.98159308
H       -3.01434965      -0.52122623      -0.63174579
H       -1.72910109      -1.38111465       0.38054106
H       -2.17214366       1.67818420       0.17680411
H        0.19042038       0.12039091       1.41142007
17
Frame=12 idx=011545 GeodesicLength=1.2306984527989118 rxn_smarts="[C:1]([O:2][C:3]([C@@:4]1([H:13])[C:5]([H:14])([H:15])[C@:6]1([O:7][H:17])[H:16])([H:11])[H:12])([H:8])([H:9])[H:10]>>[C:1]([O:2][H:17])([H:8])([H:9])[H:10].[C:3](=[C:4]([C:5]([C:6](=[O:7])[H:16])([H:14])[H:15])[H:13])([H:11])[H:12]"
C        2.38041505       0.14938406       0.77567717
O        1.08461204      -0.39696972       0.78871235
C        0.37418170      -0.50150580      -1.08490439
C       -0.94189435       0.00838641      -1.10790850
C       -1.99989630      -0.52651184      -0.17111297
C       -1.64995821       0.78889448       0.43712740
O       -0.96501770       0.87756701       1.53327075
H        3.08133556      -0.58464955       0.36895941
H        2.70036059       0.39816332       1.78975482
H        2.39354576       1.05612426       0.15840408
H        1.02281911      -0.10729553      -1.86928849
H        0.51797040      -1.57975158      -1.01680246
H       -1.26701772       0.52975369      -2.00155666
H       -2.99917644      -0.59785692      -0.59050998
H       -1.65779878      -1.36994802       0.42218197
H       -2.24893212       1.65969077       0.14999716
H        0.17445141       0.19652495       1.41799835
17
Frame=13 idx=011545 GeodesicLength=1.326619082862393 rxn_smarts="[C:1]([O:2][C:3]([C@@:4]1([H:13])[C:5]([H:14])([H:15])[C@:6]1([O:7][H:17])[H:16])([H:11])[H:12])([H:8])([H:9])[H:10]>>[C:1]([O:2][H:17])([H:8])([H:9])[H:10].[C:3](=[C:4]([C:5]([C:6](=[O:7])[H:16])([H:14])[H:15])[H:13])([H:11])[H:12]"
C        2.39337638       0.09980399       0.79313194
O        1.06502129      -0.35988183       0.79315932
C        0.37859323      -0.44830787      -1.11154352
C       -0.95854419       0.00831147      -1.11830421
C       -1.97557104      -0.54583197      -0.14950068
C       -1.67935685       0.80229436       0.42056598
O       -0.98718141       0.94886554       1.50706657
H        3.05172810      -0.68343539       0.40722144
H        2.71514472       0.34121506       1.80840722
H        2.47886475       0.99346492       0.16283649
H        1.00432217      -0.01101763      -1.89206601
H        0.56317987      -1.52146847      -1.06367180
H       -1.32173497       0.49013884      -2.01931057
H       -2.97804666      -0.67263813      -0.54794373
H       -1.58549832      -1.35480935       0.46173732
H       -2.32458565       1.63616422       0.12591264
H        0.16028858       0.27713224       1.42230162
17
Frame=14 idx=011545 GeodesicLength=1.422037527218285 rxn_smarts="[C:1]([O:2][C:3]([C@@:4]1([H:13])[C:5]([H:14])([H:15])[C@:6]1([O:7][H:17])[H:16])([H:11])[H:12])([H:8])([H:9])[H:10]>>[C:1]([O:2][H:17])([H:8])([H:9])[H:10].[C:3](=[C:4]([C:5]([C:6](=[O:7])[H:16])([H:14])[H:15])[H:13])([H:11])[H:12]"
C        2.40239584       0.05004547       0.80928937
O        1.04710121      -0.31966330       0.79698017
C        0.38292801      -0.39439125      -1.13810259
C       -0.97314689       0.00732194      -1.12810418
C       -1.94819638      -0.56360396      -0.12814228
C       -1.70799661       0.81330461       0.40488187
O       -1.01094886       1.01664238       1.48031547
H        3.01294933      -0.78122056       0.44556650
H        2.72666241       0.28585821       1.82508334
H        2.56101883       0.92345084       0.16501644
H        0.98373295       0.08590184      -1.91313610
H        0.60874159      -1.46036940      -1.10855123
H       -1.37222383       0.44839524      -2.03476887
H       -2.95098263      -0.74497771      -0.50452203
H       -1.51223127      -1.33605728       0.49897699
H       -2.39737662       1.60848436       0.10491382
H        0.14757292       0.36087855       1.42430330
17
Frame=15 idx=011545 GeodesicLength=1.517319424042274 rxn_smarts="[C:1]([O:2][C:3]([C@@:4]1([H:13])[C:5]([H:14])([H:15])[C@:6]1([O:7][H:17])[H:16])([H:11])[H:12])([H:8])([H:9])[H:10]>>[C:1]([O:2][H:17])([H:8])([H:9])[H:10].[C:3](=[C:4]([C:5]([C:6](=[O:7])[H:16])([H:14])[H:15])[H:13])([H:11])[H:12]"
C        2.40748749       0.00045022       0.82408540
O        1.03116559      -0.27625819       0.80016898
C        0.38719297      -0.34001146      -1.16461511
C       -0.98546789       0.00554495      -1.13723514
C       -1.91784982      -0.57974192      -0.10713695
C       -1.73555257       0.82191715       0.39022685
O       -1.03617301       1.08053903       1.45364163
H        2.96487016      -0.87716625       0.48426684
H        2.73520785       0.23261054       1.83964580
H        2.63926521       0.84583628       0.16478944
H        0.96108389       0.18287305      -1.93270926
H        0.65441950      -1.39682282      -1.15145690
H       -1.41818729       0.40492114      -2.04790467
H       -2.91811268      -0.81454536      -0.46058962
H       -1.43828561      -1.31392856       0.53379842
H       -2.46695659       1.57686969       0.08696549
H        0.13589282       0.44691250       1.42405880
17
Frame=16 idx=011545 GeodesicLength=1.6128172361745583 rxn_smarts="[C:1]([O:2][C:3]([C@@:4]1([H:13])[C:5]([H:14])([H:15])[C@:6]1([O:7][H:17])[H:16])([H:11])[H:12])([H:8])([H:9])[H:10]>>[C:1]([O:2][H:17])([H:8])([H:9])[H:10].[C:3](=[C:4]([C:5]([C:6](=[O:7])[H:16])([H:14])[H:15])[H:13])([H:11])[H:12]"
C        2.40863842      -0.04874387       0.83749685
O        1.01755700      -0.22946699       0.80266694
C        0.39145261      -0.28533504      -1.19118318
C       -0.99529918       0.00315348      -1.14564186
C       -1.88457627      -0.59418018      -0.08650553
C       -1.76175797       0.82819867       0.37668280
O       -1.06271799       1.14054705       1.42745044
H        2.90724412      -0.97040731       0.52334187
H        2.74112943       0.18157907       1.85201071
H        2.71275199       0.76035565       0.16227198
H        0.93646938       0.27927207      -1.95109707
H        0.70010989      -1.33106842      -1.19251181
H       -1.45933536       0.36004282      -2.05875115
H       -2.87948943      -0.88120239      -0.41639097
H       -1.36381532      -1.28859685       0.56627899
H       -2.53315827       1.54137438       0.07204166
H        0.12479694       0.53447788       1.42183932
