14
Frame=0 idx=006183 GeodesicLength=0.0 rxn_smarts="[O:1]([C@:2]12[C:3]([H:8])([H:9])[C@@:4]1([H:10])[C:5]([H:11])([H:12])[C:6]2([H:13])[H:14])[H:7]>>[O:1]([C@:2]1([H:9])[C:3]([H:8])=[C:4]([H:10])[C:5]([H:11])([H:12])[C:6]1([H:13])[H:14])[H:7]"
O        1.60588536       0.59891643       1.14261976
C        0.76394916       0.06784958       0.18744628
C        0.44671280       0.87095230      -1.46583201
C       -0.49758640       0.78124161      -0.34189146
C       -1.29934060      -0.52479797      -0.26365672
C       -0.06464705      -1.21922221       0.36227057
H        1.07904438       0.98673015       1.84456485
H        1.04629446       1.77836152      -1.28577248
H        1.37811507      -0.07921581      -0.80546329
H       -0.82654730       1.67540616       0.18104115
H       -2.16883616      -0.49728797       0.39241737
H       -1.58980205      -0.90087685      -1.24312640
H       -0.19849406      -1.42814554       1.42407637
H        0.32525237      -2.10991139      -0.12869394
14
Frame=1 idx=006183 GeodesicLength=0.10071336947241037 rxn_smarts="[O:1]([C@:2]12[C:3]([H:8])([H:9])[C@@:4]1([H:10])[C:5]([H:11])([H:12])[C:6]2([H:13])[H:14])[H:7]>>[O:1]([C@:2]1([H:9])[C:3]([H:8])=[C:4]([H:10])[C:5]([H:11])([H:12])[C:6]1([H:13])[H:14])[H:7]"
O        1.61008287       0.57652038       1.15188481
C        0.76756127       0.06428602       0.18618663
C        0.45860387       0.87024587      -1.43542684
C       -0.51123673       0.78526156      -0.34001392
C       -1.30164978      -0.52590814      -0.26433948
C       -0.06563491      -1.21929828       0.35947167
H        1.09528149       1.02924152       1.82264010
H        1.05080029       1.78344680      -1.26913122
H        1.39274279      -0.09689880      -0.81595713
H       -0.85345420       1.68123716       0.17078723
H       -2.16956847      -0.50267889       0.39425718
H       -1.59540288      -0.90274052      -1.24271662
H       -0.19799298      -1.43412643       1.42021155
H        0.31986736      -2.10858826      -0.13785395
14
Frame=2 idx=006183 GeodesicLength=0.20156372239452186 rxn_smarts="[O:1]([C@:2]12[C:3]([H:8])([H:9])[C@@:4]1([H:10])[C:5]([H:11])([H:12])[C:6]2([H:13])[H:14])[H:7]>>[O:1]([C@:2]1([H:9])[C:3]([H:8])=[C:4]([H:10])[C:5]([H:11])([H:12])[C:6]1([H:13])[H:14])[H:7]"
O        1.61253185       0.55457218       1.16284636
C        0.77114008       0.06053970       0.18589643
C        0.47026188       0.86948075      -1.40423176
C       -0.52493580       0.78920631      -0.33824791
C       -1.30398235      -0.52701302      -0.26504809
C       -0.06674889      -1.21955403       0.35664016
H        1.11501683       1.07159495       1.79877721
H        1.05523928       1.78816806      -1.25216000
H        1.40725254      -0.11350053      -0.82617769
H       -0.88106431       1.68713747       0.15916356
H       -2.17036086      -0.50802203       0.39599258
H       -1.60099217      -0.90463944      -1.24231679
H       -0.19802298      -1.44082561       1.41612670
H        0.31466489      -2.10714476      -0.14726076
14
Frame=3 idx=006183 GeodesicLength=0.3024397423870276 rxn_smarts="[O:1]([C@:2]12[C:3]([H:8])([H:9])[C@@:4]1([H:10])[C:5]([H:11])([H:12])[C:6]2([H:13])[H:14])[H:7]>>[O:1]([C@:2]1([H:9])[C:3]([H:8])=[C:4]([H:10])[C:5]([H:11])([H:12])[C:6]1([H:13])[H:14])[H:7]"
O        1.61307994       0.53335447       1.17553558
C        0.77464928       0.05664338       0.18663149
C        0.48160841       0.86863170      -1.37226718
C       -0.53866641       0.79308437      -0.33665642
C       -1.30631785      -0.52808554      -0.26575343
C       -0.06796353      -1.21995205       0.35379227
H        1.13837626       1.11320532       1.77315259
H        1.05952136       1.79248681      -1.23496434
H        1.42161759      -0.12889190      -0.83609577
H       -0.90933510       1.69309734       0.14591447
H       -2.17115946      -0.51325836       0.39766932
H       -1.60657853      -0.90657532      -1.24187217
H       -0.19854200      -1.44824651       1.41181456
H        0.30971005      -2.10549371      -0.15690096
14
Frame=4 idx=006183 GeodesicLength=0.40325106557467083 rxn_smarts="[O:1]([C@:2]12[C:3]([H:8])([H:9])[C@@:4]1([H:10])[C:5]([H:11])([H:12])[C:6]2([H:13])[H:14])[H:7]>>[O:1]([C@:2]1([H:9])[C:3]([H:8])=[C:4]([H:10])[C:5]([H:11])([H:12])[C:6]1([H:13])[H:14])[H:7]"
O        1.61157971       0.51315219       1.18998956
C        0.77804435       0.05263965       0.18843496
C        0.49254497       0.86768181      -1.33956578
C       -0.55242831       0.79689996      -0.33530117
C       -1.30864390      -0.52910535      -0.26644367
C       -0.06925345      -1.22044330       0.35094804
H        1.16555601       1.15350714       1.74602409
H        1.06355922       1.79638552      -1.21765039
H        1.43577407      -0.14296140      -0.84571607
H       -0.93819837       1.69905335       0.13079331
H       -2.17193535      -0.51833936       0.39931375
H       -1.61216386      -0.90857027      -1.24135896
H       -0.19950233      -1.45636213       1.40728306
H        0.30506723      -2.10353781      -0.16675073
14
Frame=5 idx=006183 GeodesicLength=0.5040887259017006 rxn_smarts="[O:1]([C@:2]12[C:3]([H:8])([H:9])[C@@:4]1([H:10])[C:5]([H:11])([H:12])[C:6]2([H:13])[H:14])[H:7]>>[O:1]([C@:2]1([H:9])[C:3]([H:8])=[C:4]([H:10])[C:5]([H:11])([H:12])[C:6]1([H:13])[H:14])[H:7]"
O        1.60825276       0.49418980       1.20598194
C        0.78150024       0.04859475       0.19126345
C        0.50312002       0.86665772      -1.30613863
C       -0.56629095       0.80076979      -0.33418600
C       -1.31098478      -0.53008487      -0.26705288
C       -0.07056351      -1.22096286       0.34815189
H        1.19605749       1.19157554       1.71745948
H        1.06740662       1.79987969      -1.20040315
H        1.44990000      -0.15562825      -0.85498198
H       -0.96783266       1.70528757       0.11373859
H       -2.17273068      -0.52325269       0.40101861
H       -1.61781029      -0.91074194      -1.24066055
H       -0.20082693      -1.46500905       1.40255286
H        0.30080265      -2.10127520      -0.17674364
14
Frame=6 idx=006183 GeodesicLength=0.60486307752221 rxn_smarts="[O:1]([C@:2]12[C:3]([H:8])([H:9])[C@@:4]1([H:10])[C:5]([H:11])([H:12])[C:6]2([H:13])[H:14])[H:7]>>[O:1]([C@:2]1([H:9])[C:3]([H:8])=[C:4]([H:10])[C:5]([H:11])([H:12])[C:6]1([H:13])[H:14])[H:7]"
O        1.60280406       0.47671933       1.22364600
C        0.78487623       0.04456098       0.19514098
C        0.51318570       0.86559581      -1.27206866
C       -0.58019093       0.80463539      -0.33339846
C       -1.31330367      -0.53098217      -0.26755651
C       -0.07188126      -1.22149699       0.34541929
H        1.23020583       1.22711346       1.68797884
H        1.07091180       1.80298627      -1.18329295
H        1.46383721      -0.16679732      -0.86410830
H       -0.99798337       1.71150374       0.09436631
H       -2.17345879      -0.52791354       0.40285257
H       -1.62350095      -0.91304135      -1.23974938
H       -0.20246472      -1.47424735       1.39766065
H        0.29696286      -2.09863624      -0.18689039
14
Frame=7 idx=006183 GeodesicLength=0.7055647798196589 rxn_smarts="[O:1]([C@:2]12[C:3]([H:8])([H:9])[C@@:4]1([H:10])[C:5]([H:11])([H:12])[C:6]2([H:13])[H:14])[H:7]>>[O:1]([C@:2]1([H:9])[C:3]([H:8])=[C:4]([H:10])[C:5]([H:11])([H:12])[C:6]1([H:13])[H:14])[H:7]"
O        1.59526132       0.46093876       1.24285539
C        0.78820095       0.04059440       0.20003224
C        0.52269304       0.86453857      -1.23738912
C       -0.59411588       0.80850584      -0.33298885
C       -1.31558079      -0.53178088      -0.26789498
C       -0.07316429      -1.22198482       0.34277945
H        1.26777404       1.25948975       1.65796144
H        1.07404384       1.80570859      -1.16643096
H        1.47755455      -0.17637395      -0.87321964
H       -1.02860308       1.71767595       0.07242603
H       -2.17407264      -0.53227017       0.40491531
H       -1.62925171      -0.91550289      -1.23852083
H       -0.20432975      -1.48398764       1.39262494
H        0.29359040      -2.09555150      -0.19715043
14
Frame=8 idx=006183 GeodesicLength=0.8061033696685678 rxn_smarts="[O:1]([C@:2]12[C:3]([H:8])([H:9])[C@@:4]1([H:10])[C:5]([H:11])([H:12])[C:6]2([H:13])[H:14])[H:7]>>[O:1]([C@:2]1([H:9])[C:3]([H:8])=[C:4]([H:10])[C:5]([H:11])([H:12])[C:6]1([H:13])[H:14])[H:7]"
O        1.58564077       0.44704645       1.26351972
C        0.79145958       0.03674850       0.20590075
C        0.53153531       0.86351233      -1.20213969
C       -0.60806344       0.81237115      -0.33301849
C       -1.31777791      -0.53245175      -0.26805722
C       -0.07437714      -1.22233832       0.34026720
H        1.30876422       1.28817629       1.62790487
H        1.07673468       1.80805178      -1.14989291
H        1.49083652      -0.18429826      -0.88247160
H       -1.05961270       1.72358753       0.04767498
H       -2.17451211      -0.53625744       0.40723222
H       -1.63501304      -0.91815121      -1.23694230
H       -0.20632872      -1.49409338       1.38748721
H        0.29071398      -2.09190367      -0.20746473
14
Frame=9 idx=006183 GeodesicLength=0.906648050659269 rxn_smarts="[O:1]([C@:2]12[C:3]([H:8])([H:9])[C@@:4]1([H:10])[C:5]([H:11])([H:12])[C:6]2([H:13])[H:14])[H:7]>>[O:1]([C@:2]1([H:9])[C:3]([H:8])=[C:4]([H:10])[C:5]([H:11])([H:12])[C:6]1([H:13])[H:14])[H:7]"
O        1.57427858       0.43492988       1.28528929
C        0.79489446       0.03302737       0.21265790
C        0.53981214       0.86271089      -1.16625416
C       -0.62213220       0.81644570      -0.33343248
C       -1.31994586      -0.53302784      -0.26796288
C       -0.07543258      -1.22255568       0.33796629
H        1.35241817       1.31239177       1.59769072
H        1.07898448       1.81011639      -1.13376637
H        1.50400838      -0.19048739      -0.89178275
H       -1.09121763       1.72972927       0.01996355
H       -2.17485263      -0.53992215       0.40989790
H       -1.64090919      -0.92109241      -1.23490119
H       -0.20833193      -1.50442510       1.38231712
H        0.28842582      -2.08784070      -0.21768295
14
Frame=10 idx=006183 GeodesicLength=1.0070791433067579 rxn_smarts="[O:1]([C@:2]12[C:3]([H:8])([H:9])[C@@:4]1([H:10])[C:5]([H:11])([H:12])[C:6]2([H:13])[H:14])[H:7]>>[O:1]([C@:2]1([H:9])[C:3]([H:8])=[C:4]([H:10])[C:5]([H:11])([H:12])[C:6]1([H:13])[H:14])[H:7]"
O        1.56097870       0.42492217       1.30822698
C        0.79834715       0.02951551       0.22027685
C        0.54734098       0.86214189      -1.12981696
C       -0.63624097       0.82054745      -0.33434112
C       -1.32201901      -0.53345964      -0.26760607
C       -0.07634649      -1.22255314       0.33587729
H        1.39917589       1.33199896       1.56821900
H        1.08073149       1.81190107      -1.11802121
H        1.51657661      -0.19488209      -0.90164101
H       -1.12311906       1.73540506      -0.01108444
H       -2.17498219      -0.54313866       0.41295569
H       -1.64683378      -0.92429722      -1.23236263
H       -0.21030356      -1.51491988       1.37715225
H        0.28669425      -2.08318147      -0.22783463
14
Frame=11 idx=006183 GeodesicLength=1.10740457837731 rxn_smarts="[O:1]([C@:2]12[C:3]([H:8])([H:9])[C@@:4]1([H:10])[C:5]([H:11])([H:12])[C:6]2([H:13])[H:14])[H:7]>>[O:1]([C@:2]1([H:9])[C:3]([H:8])=[C:4]([H:10])[C:5]([H:11])([H:12])[C:6]1([H:13])[H:14])[H:7]"
O        1.54586276       0.41708794       1.33210927
C        0.80188202       0.02622176       0.22869127
C        0.55408886       0.86191892      -1.09279397
C       -0.65040293       0.82471141      -0.33577392
C       -1.32397467      -0.53374458      -0.26693686
C       -0.07706859      -1.22228101       0.33405001
H        1.44872666       1.34648012       1.53979885
H        1.08195761       1.81344281      -1.10265220
H        1.52842667      -0.19738480      -0.91222729
H       -1.15526940       1.74058395      -0.04571637
H       -2.17485765      -0.54587961       0.41648164
H       -1.65278289      -0.92781108      -1.22924537
H       -0.21214011      -1.52544583       1.37205072
H        0.28555166      -2.07789999      -0.23783579
14
Frame=12 idx=006183 GeodesicLength=1.207541530128271 rxn_smarts="[O:1]([C@:2]12[C:3]([H:8])([H:9])[C@@:4]1([H:10])[C:5]([H:11])([H:12])[C:6]2([H:13])[H:14])[H:7]>>[O:1]([C@:2]1([H:9])[C:3]([H:8])=[C:4]([H:10])[C:5]([H:11])([H:12])[C:6]1([H:13])[H:14])[H:7]"
O        1.52900060       0.41155158       1.35678922
C        0.80550333       0.02317718       0.23785065
C        0.55995782       0.86212458      -1.05515252
C       -0.66462783       0.82892138      -0.33777801
C       -1.32575939      -0.53386524      -0.26595740
C       -0.07757189      -1.22165220       0.33252823
H        1.50107151       1.35541638       1.51282276
H        1.08258641       1.81476475      -1.08758839
H        1.53921788      -0.19792457      -0.92375918
H       -1.18755825       1.74497126      -0.08416226
H       -2.17439455      -0.54809016       0.42047464
H       -1.65867169      -0.93167001      -1.22553653
H       -0.21375003      -1.53581924       1.36708435
H        0.28499609      -2.07190568      -0.24761557
14
Frame=13 idx=006183 GeodesicLength=1.3075373747618377 rxn_smarts="[O:1]([C@:2]12[C:3]([H:8])([H:9])[C@@:4]1([H:10])[C:5]([H:11])([H:12])[C:6]2([H:13])[H:14])[H:7]>>[O:1]([C@:2]1([H:9])[C:3]([H:8])=[C:4]([H:10])[C:5]([H:11])([H:12])[C:6]1([H:13])[H:14])[H:7]"
O        1.51074130       0.40806101       1.38195379
C        0.80943062       0.02033046       0.24770259
C        0.56502073       0.86300106      -1.01666507
C       -0.67897155       0.83339974      -0.34022886
C       -1.32746063      -0.53385984      -0.26454564
C       -0.07775693      -1.22071190       0.33139380
H        1.55558667       1.35813313       1.48702821
H        1.08259213       1.81605975      -1.07270610
H        1.54910025      -0.19619440      -0.93609957
H       -1.22004728       1.74893675      -0.12709623
H       -2.17370562      -0.54987822       0.42506851
H       -1.66470841      -0.93593311      -1.22108260
H       -0.21493483      -1.54603674       1.36228829
H        0.28511356      -2.06530768      -0.25701112
14
Frame=14 idx=006183 GeodesicLength=1.407444188515641 rxn_smarts="[O:1]([C@:2]12[C:3]([H:8])([H:9])[C@@:4]1([H:10])[C:5]([H:11])([H:12])[C:6]2([H:13])[H:14])[H:7]>>[O:1]([C@:2]1([H:9])[C:3]([H:8])=[C:4]([H:10])[C:5]([H:11])([H:12])[C:6]1([H:13])[H:14])[H:7]"
O        1.49086479       0.40711457       1.40759545
C        0.81351633       0.01781041       0.25819237
C        0.56912403       0.86457733      -0.97742792
C       -0.69342758       0.83792601      -0.34329168
C       -1.32897930      -0.53368541      -0.26274476
C       -0.07767932      -1.21933087       0.33066281
H        1.61285092       1.35445286       1.46335199
H        1.08194451       1.81730149      -1.05787551
H        1.55743149      -0.19217620      -0.94997569
H       -1.25241610       1.75154492      -0.17455290
H       -2.17265596      -0.55107332       0.43023907
H       -1.67066162      -0.94062575      -1.21589723
H       -0.21575542      -1.55587350       1.35778147
H        0.28584322      -2.05796255      -0.26605748
14
Frame=15 idx=006183 GeodesicLength=1.5073181736942727 rxn_smarts="[O:1]([C@:2]12[C:3]([H:8])([H:9])[C@@:4]1([H:10])[C:5]([H:11])([H:12])[C:6]2([H:13])[H:14])[H:7]>>[O:1]([C@:2]1([H:9])[C:3]([H:8])=[C:4]([H:10])[C:5]([H:11])([H:12])[C:6]1([H:13])[H:14])[H:7]"
O        1.46950393       0.40880546       1.43346910
C        0.81782871       0.01562542       0.26926082
C        0.57225480       0.86699728      -0.93731551
C       -0.70801760       0.84253723      -0.34700617
C       -1.33031001      -0.53334770      -0.26050295
C       -0.07729154      -1.21746503       0.33039147
H        1.67252975       1.34376744       1.44186950
H        1.08059937       1.81855303      -1.04292615
H        1.56400311      -0.18561434      -0.96556839
H       -1.28445522       1.75265375      -0.22681264
H       -2.17123206      -0.55165350       0.43604661
H       -1.67654187      -0.94581221      -1.20988220
H       -0.21610732      -1.56519214       1.35362829
H        0.28723594      -2.04985468      -0.27465176
14
Frame=16 idx=006183 GeodesicLength=1.6071969528542562 rxn_smarts="[O:1]([C@:2]12[C:3]([H:8])([H:9])[C@@:4]1([H:10])[C:5]([H:11])([H:12])[C:6]2([H:13])[H:14])[H:7]>>[O:1]([C@:2]1([H:9])[C:3]([H:8])=[C:4]([H:10])[C:5]([H:11])([H:12])[C:6]1([H:13])[H:14])[H:7]"
O        1.44692196       0.41327263       1.45924173
C        0.82244624       0.01379965       0.28079694
C        0.57438499       0.87040977      -0.89626715
C       -0.72273956       0.84726766      -0.35146428
C       -1.33143886      -0.53282826      -0.25775442
C       -0.07654224      -1.21506147       0.33064331
H        1.73405383       1.32539693       1.42295246
H        1.07851745       1.81992203      -1.02769021
H        1.56849816      -0.17623242      -0.98319401
H       -1.31579505       1.75193724      -0.28420087
H       -2.16939339      -0.55154302       0.44259482
H       -1.68238171      -0.95155010      -1.20291204
H       -0.21584170      -1.57381795       1.34994451
H        0.28930990      -2.04097269      -0.28269079
