17
Frame=0 idx=006451 GeodesicLength=0.0 rxn_smarts="[C:1]([O:2][C:3]([C@@:4]([C:5]([H:14])([H:15])[H:16])([C:6](=[O:7])[H:17])[H:13])([H:11])[H:12])([H:8])([H:9])[H:10]>>[C:1]([O:7][C@@:6]1([H:17])[O:2][C:3]([H:11])([H:12])[C@:4]1([C:5]([H:14])([H:15])[H:16])[H:13])([H:8])([H:9])[H:10]"
C        1.67350214       0.26326581       1.33846436
O        1.30056166       0.05850561      -0.58706540
C        0.35264361      -0.99618072      -0.89583580
C       -0.83858484      -0.03942947      -0.87823824
C       -1.90209363      -0.27985126       0.16958798
C        0.19159850       1.09423387      -0.54840250
O        0.25582645       1.60227435       0.64474762
H        0.94917019       0.26896805       2.13694932
H        2.38086092       1.07609161       1.35446577
H        2.12335339      -0.70946755       1.16604438
H        0.36314305      -1.76912920      -0.12129934
H        0.59411962      -1.44905178      -1.85795779
H       -1.28461572       0.08720052      -1.86603962
H       -2.62039350       0.54094710       0.18523492
H       -2.44691507      -1.20638368      -0.02641085
H       -1.45942919      -0.33960662       1.16460574
H        0.36725250       1.79761336      -1.37885048
17
Frame=1 idx=006451 GeodesicLength=0.08059414781220771 rxn_smarts="[C:1]([O:2][C:3]([C@@:4]([C:5]([H:14])([H:15])[H:16])([C:6](=[O:7])[H:17])[H:13])([H:11])[H:12])([H:8])([H:9])[H:10]>>[C:1]([O:7][C@@:6]1([H:17])[O:2][C:3]([H:11])([H:12])[C@:4]1([C:5]([H:14])([H:15])[H:16])[H:13])([H:8])([H:9])[H:10]"
C        1.69745815       0.26926224       1.33084990
O        1.30209956       0.05162349      -0.58674663
C        0.34799143      -0.99792034      -0.88465438
C       -0.84175285      -0.03911583      -0.87902185
C       -1.91830088      -0.28145343       0.15491432
C        0.17550207       1.09822449      -0.53836409
O        0.23300421       1.59767027       0.65825358
H        0.99537480       0.26024638       2.15016797
H        2.40196034       1.08593453       1.34137515
H        2.16004789      -0.69918277       1.16347348
H        0.34985262      -1.76384428      -0.10282821
H        0.58467549      -1.46466160      -1.84141810
H       -1.27319680       0.08933580      -1.87310840
H       -2.63165414       0.54361989       0.16908650
H       -2.46378655      -1.20445394      -0.05505303
H       -1.48825237      -0.35008989       1.15493884
H        0.36897703       1.80480502      -1.36186504
17
Frame=2 idx=006451 GeodesicLength=0.16112224391419777 rxn_smarts="[C:1]([O:2][C:3]([C@@:4]([C:5]([H:14])([H:15])[H:16])([C:6](=[O:7])[H:17])[H:13])([H:11])[H:12])([H:8])([H:9])[H:10]>>[C:1]([O:7][C@@:6]1([H:17])[O:2][C:3]([H:11])([H:12])[C@:4]1([C:5]([H:14])([H:15])[H:16])[H:13])([H:8])([H:9])[H:10]"
C        1.72179962       0.27550253       1.32278722
O        1.30362227       0.04436468      -0.58633354
C        0.34305805      -0.99976533      -0.87289971
C       -0.84496143      -0.03875291      -0.87966339
C       -1.93502832      -0.28314449       0.13948076
C        0.15905716       1.10209851      -0.52750717
O        0.20983309       1.59207997       0.67283405
H        1.04377335       0.25247276       2.16306585
H        2.42365084       1.09582117       1.32720081
H        2.19724456      -0.68838092       1.16020778
H        0.33618375      -1.75812882      -0.08348490
H        0.57475754      -1.48076400      -1.82391102
H       -1.26115489       0.09175732      -1.88003530
H       -2.64349606       0.54610539       0.15202330
H       -2.48077087      -1.20250462      -0.08497093
H       -1.51839718      -0.36088348       1.14456124
H        0.37082852       1.81212224      -1.34335505
17
Frame=3 idx=006451 GeodesicLength=0.2415752859451189 rxn_smarts="[C:1]([O:2][C:3]([C@@:4]([C:5]([H:14])([H:15])[H:16])([C:6](=[O:7])[H:17])[H:13])([H:11])[H:12])([H:8])([H:9])[H:10]>>[C:1]([O:7][C@@:6]1([H:17])[O:2][C:3]([H:11])([H:12])[C@:4]1([C:5]([H:14])([H:15])[H:16])[H:13])([H:8])([H:9])[H:10]"
C        1.74649381       0.28198704       1.31425598
O        1.30512830       0.03669332      -0.58581925
C        0.33783195      -1.00172290      -0.86055172
C       -0.84819778      -0.03833621      -0.88014148
C       -1.95225200      -0.28491921       0.12326016
C        0.14226000       1.10584345      -0.51578955
O        0.18630434       1.58543609       0.68852711
H        1.09438698       0.24573561       2.17555627
H        2.44589324       1.10574418       1.31187702
H        2.23490648      -0.67704793       1.15620769
H        0.32211515      -1.75195721      -0.06324754
H        0.56432744      -1.49736485      -1.80539270
H       -1.24844963       0.09448998      -1.88677417
H       -2.65589231       0.54840982       0.13402135
H       -2.49781390      -1.20052188      -0.11620523
H       -1.54986770      -0.37199933       1.13341742
H        0.37282564       1.81953001      -1.32320138
17
Frame=4 idx=006451 GeodesicLength=0.32194088717837666 rxn_smarts="[C:1]([O:2][C:3]([C@@:4]([C:5]([H:14])([H:15])[H:16])([C:6](=[O:7])[H:17])[H:13])([H:11])[H:12])([H:8])([H:9])[H:10]>>[C:1]([O:7][C@@:6]1([H:17])[O:2][C:3]([H:11])([H:12])[C@:4]1([C:5]([H:14])([H:15])[H:16])[H:13])([H:8])([H:9])[H:10]"
C        1.77149689       0.28871336       1.30523775
O        1.30661775       0.02856923      -0.58519573
C        0.33230429      -1.00380038      -0.84759751
C       -0.85144687      -0.03786017      -0.88043253
C       -1.96993814      -0.28677252       0.10623184
C        0.12510881       1.10944557      -0.50317099
O        0.16241406       1.57767475       0.70536386
H        1.14720888       0.24013661       2.18753684
H        2.46863543       1.11569668       1.29534172
H        2.27298460      -0.66517783       1.15144418
H        0.30762901      -1.74530824      -0.04210669
H        0.55334223      -1.51446363      -1.78582870
H       -1.23504396       0.09755992      -1.89326956
H       -2.66880401       0.55054144       0.11506823
H       -2.51485056      -1.19848775      -0.14878818
H       -1.58264984      -0.38345069       1.12145165
H        0.37499144       1.82698367      -1.30128618
17
Frame=5 idx=006451 GeodesicLength=0.40219429689771957 rxn_smarts="[C:1]([O:2][C:3]([C@@:4]([C:5]([H:14])([H:15])[H:16])([C:6](=[O:7])[H:17])[H:13])([H:11])[H:12])([H:8])([H:9])[H:10]>>[C:1]([O:7][C@@:6]1([H:17])[O:2][C:3]([H:11])([H:12])[C@:4]1([C:5]([H:14])([H:15])[H:16])[H:13])([H:8])([H:9])[H:10]"
C        1.79673558       0.29566762       1.29572153
O        1.30809250       0.01994717      -0.58445313
C        0.32646869      -1.00600169      -0.83403997
C       -0.85468926      -0.03731856      -0.88051468
C       -1.98802454      -0.28869956       0.08839414
C        0.10760704       1.11289636      -0.48962996
O        0.13816412       1.56874254       0.72334811
H        1.20219350       0.23579894       2.19890662
H        2.49180371       1.12565406       1.27754831
H        2.31137159      -0.65276781       1.14590683
H        0.29270994      -1.73816815      -0.02008490
H        0.54176392      -1.53203892      -1.76521173
H       -1.22091181       0.10099367      -1.89946103
H       -2.68216788       0.55250539       0.09518404
H       -2.53179087      -1.19638602      -0.18272089
H       -1.61668381      -0.39524504       1.10861504
H        0.37735758       1.83442001      -1.27750834
17
Frame=6 idx=006451 GeodesicLength=0.4823022499484619 rxn_smarts="[C:1]([O:2][C:3]([C@@:4]([C:5]([H:14])([H:15])[H:16])([C:6](=[O:7])[H:17])[H:13])([H:11])[H:12])([H:8])([H:9])[H:10]>>[C:1]([O:7][C@@:6]1([H:17])[O:2][C:3]([H:11])([H:12])[C@:4]1([C:5]([H:14])([H:15])[H:16])[H:13])([H:8])([H:9])[H:10]"
C        1.82212697       0.30284473       1.28570750
O        1.30955825       0.01078791      -0.58357934
C        0.32032556      -1.00833024      -0.81988260
C       -0.85790452      -0.03670527      -0.88035627
C       -2.00644761      -0.29069067       0.06975320
C        0.08975772       1.11618618      -0.47514672
O        0.11356073       1.55860278       0.74247644
H        1.25924692       0.23281677       2.20951729
H        2.51530769       1.13558713       1.25846228
H        2.34998875      -0.63982871       1.13958523
H        0.27735461      -1.73052339       0.00279392
H        0.52955810      -1.55006223      -1.74353331
H       -1.20603214       0.10481085      -1.90527575
H       -2.69591701       0.55431446       0.07439573
H       -2.54853933      -1.19419118      -0.21799283
H       -1.65190481      -0.40738963       1.09486451
H        0.37996010       1.84177051      -1.25178931
17
Frame=7 idx=006451 GeodesicLength=0.5622294131320542 rxn_smarts="[C:1]([O:2][C:3]([C@@:4]([C:5]([H:14])([H:15])[H:16])([C:6](=[O:7])[H:17])[H:13])([H:11])[H:12])([H:8])([H:9])[H:10]>>[C:1]([O:7][C@@:6]1([H:17])[O:2][C:3]([H:11])([H:12])[C@:4]1([C:5]([H:14])([H:15])[H:16])[H:13])([H:8])([H:9])[H:10]"
C        1.84755747       0.31022416       1.27520744
O        1.31102374       0.00104502      -0.58255811
C        0.31387961      -1.01078346      -0.80515191
C       -0.86106774      -0.03601250      -0.87992985
C       -2.02511480      -0.29273412       0.05033805
C        0.07156992       1.11931327      -0.45972677
O        0.08861811       1.54724314       0.76270776
H        1.31822199       0.23130337       2.21923212
H        2.53904186       1.14545236       1.23807188
H        2.38869556      -0.62638469       1.13249643
H        0.26156182      -1.72237260       0.02646262
H        0.51669823      -1.56847847      -1.72082331
H       -1.19040197       0.10902660      -1.91063640
H       -2.70996128       0.55597660       0.05276700
H       -2.56497388      -1.19188623      -0.25454962
H       -1.68819018      -0.41988168       1.08016983
H        0.38284154       1.84894923      -1.22407716
17
Frame=8 idx=006451 GeodesicLength=0.6419394519509187 rxn_smarts="[C:1]([O:2][C:3]([C@@:4]([C:5]([H:14])([H:15])[H:16])([C:6](=[O:7])[H:17])[H:13])([H:11])[H:12])([H:8])([H:9])[H:10]>>[C:1]([O:7][C@@:6]1([H:17])[O:2][C:3]([H:11])([H:12])[C@:4]1([C:5]([H:14])([H:15])[H:16])[H:13])([H:8])([H:9])[H:10]"
C        1.87290819       0.31778662       1.26424905
O        1.31250120      -0.00932215      -0.58137222
C        0.30714186      -1.01335647      -0.78988294
C       -0.86415547      -0.03523073      -0.87920298
C       -2.04393099      -0.29481977       0.03019030
C        0.05305258       1.12227871      -0.44338443
O        0.06335331       1.53466739       0.78399820
H        1.37893960       0.23136032       2.22789735
H        2.56288571       1.15520808       1.21637733
H        2.42736636      -0.61247197       1.12468151
H        0.24534393      -1.71372624       0.05084064
H        0.50316332      -1.58722030      -1.69712884
H       -1.17403093       0.11365567      -1.91545914
H       -2.72420279       0.55750506       0.03038477
H       -2.58097704      -1.18944045      -0.29232856
H       -1.72541131      -0.43272715       1.06450831
H        0.38605247       1.85585339      -1.19436833
17
Frame=9 idx=006451 GeodesicLength=0.7213990432798438 rxn_smarts="[C:1]([O:2][C:3]([C@@:4]([C:5]([H:14])([H:15])[H:16])([C:6](=[O:7])[H:17])[H:13])([H:11])[H:12])([H:8])([H:9])[H:10]>>[C:1]([O:7][C@@:6]1([H:17])[O:2][C:3]([H:11])([H:12])[C@:4]1([C:5]([H:14])([H:15])[H:16])[H:13])([H:8])([H:9])[H:10]"
C        1.89815435       0.32554682       1.25286596
O        1.31397758      -0.02032030      -0.57993972
C        0.30013706      -1.01603614      -0.77404021
C       -0.86715594      -0.03434773      -0.87812110
C       -2.06287765      -0.29691855       0.00931607
C        0.03417288       1.12510196      -0.42607816
O        0.03780753       1.52084803       0.80641328
H        1.44131510       0.23293386       2.23522199
H        2.58673938       1.16484439       1.19332357
H        2.46603094      -0.59811587       1.11619023
H        0.22871962      -1.70459556       0.07593969
H        0.48900483      -1.60619769      -1.67243610
H       -1.15690336       0.11866899      -1.91967746
H       -2.73862529       0.55894634       0.00726712
H       -2.59650466      -1.18678925      -0.33134347
H       -1.76359772      -0.44595259       1.04785221
H        0.38960534       1.86238329      -1.16275390
17
Frame=10 idx=006451 GeodesicLength=0.8006218169398341 rxn_smarts="[C:1]([O:2][C:3]([C@@:4]([C:5]([H:14])([H:15])[H:16])([C:6](=[O:7])[H:17])[H:13])([H:11])[H:12])([H:8])([H:9])[H:10]>>[C:1]([O:7][C@@:6]1([H:17])[O:2][C:3]([H:11])([H:12])[C@:4]1([C:5]([H:14])([H:15])[H:16])[H:13])([H:8])([H:9])[H:10]"
C        1.92310269       0.33344949       1.24107899
O        1.31548868      -0.03202961      -0.57830311
C        0.29286114      -1.01883148      -0.75773204
C       -0.87003372      -0.03335878      -0.87667835
C       -2.08177764      -0.29902874      -0.01219727
C        0.01498036       1.12776985      -0.40789023
O        0.01195297       1.50584905       0.82975979
H        1.50505168       0.23623685       2.24122907
H        2.61045535       1.17428343       1.16896799
H        2.50441595      -0.58334083       1.10705625
H        0.21169211      -1.69500536       0.10157498
H        0.47413546      -1.62536344      -1.64686906
H       -1.13905983       0.12412601      -1.92319667
H       -2.75305582       0.56028371      -0.01643046
H       -2.61136340      -1.18393746      -0.37143248
H       -1.80243973      -0.45952440       1.03019433
H        0.39359375       1.86842172      -1.12913172
17
Frame=11 idx=006451 GeodesicLength=0.8796169691060004 rxn_smarts="[C:1]([O:2][C:3]([C@@:4]([C:5]([H:14])([H:15])[H:16])([C:6](=[O:7])[H:17])[H:13])([H:11])[H:12])([H:8])([H:9])[H:10]>>[C:1]([O:7][C@@:6]1([H:17])[O:2][C:3]([H:11])([H:12])[C@:4]1([C:5]([H:14])([H:15])[H:16])[H:13])([H:8])([H:9])[H:10]"
C        1.94765934       0.34146953       1.22890643
O        1.31704981      -0.04449951      -0.57644621
C        0.28532861      -1.02174065      -0.74100615
C       -0.87276335      -0.03225231      -0.87485350
C       -2.10052187      -0.30113152      -0.03429049
C       -0.00451393       1.13029057      -0.38885718
O       -0.01420621       1.48970153       0.85394563
H        1.56989536       0.24132834       2.24581033
H        2.63391504       1.18348882       1.14332107
H        2.54238947      -0.56817494       1.09734029
H        0.19427894      -1.68498245       0.12764271
H        0.45853505      -1.64464965      -1.62050118
H       -1.12052221       0.13004032      -1.92595562
H       -2.76739295       0.56153251      -0.04060645
H       -2.62542998      -1.18085988      -0.41248814
H       -1.84176310      -0.47342257       1.01153359
H        0.39806196       1.87386188      -1.09349514
17
Frame=12 idx=006451 GeodesicLength=0.9584053508058603 rxn_smarts="[C:1]([O:2][C:3]([C@@:4]([C:5]([H:14])([H:15])[H:16])([C:6](=[O:7])[H:17])[H:13])([H:11])[H:12])([H:8])([H:9])[H:10]>>[C:1]([O:7][C@@:6]1([H:17])[O:2][C:3]([H:11])([H:12])[C@:4]1([C:5]([H:14])([H:15])[H:16])[H:13])([H:8])([H:9])[H:10]"
C        1.97174080       0.34959728       1.21637773
O        1.31867602      -0.05777371      -0.57435463
C        0.27755468      -1.02476273      -0.72390467
C       -0.87532203      -0.03101919      -0.87262044
C       -2.11901570      -0.30321303      -0.05690687
C       -0.02430196       1.13267304      -0.36900895
O       -0.04067935       1.47245172       0.87888777
H        1.63560455       0.24824986       2.24885308
H        2.65700002       1.19242538       1.11638051
H        2.57986171      -0.55264254       1.08710129
H        0.17650354      -1.67455816       0.15405054
H        0.44219025      -1.66398788      -1.59340354
H       -1.10131039       0.13642225      -1.92788586
H       -2.78154594       0.56270938      -0.06516328
H       -2.63861297      -1.17750939      -0.45442497
H       -1.88140781      -0.48763932       0.99186758
H        0.40306458       1.87857705      -1.05584531
17
Frame=13 idx=006451 GeodesicLength=1.0369917869442487 rxn_smarts="[C:1]([O:2][C:3]([C@@:4]([C:5]([H:14])([H:15])[H:16])([C:6](=[O:7])[H:17])[H:13])([H:11])[H:12])([H:8])([H:9])[H:10]>>[C:1]([O:7][C@@:6]1([H:17])[O:2][C:3]([H:11])([H:12])[C@:4]1([C:5]([H:14])([H:15])[H:16])[H:13])([H:8])([H:9])[H:10]"
C        1.99525108       0.35780351       1.20352536
O        1.32038775      -0.07189586      -0.57201040
C        0.26955841      -1.02789292      -0.70648518
C       -0.87768330      -0.02964559      -0.86995830
C       -2.13714961      -0.30524867      -0.07997164
C       -0.04437285       1.13493417      -0.34839746
O       -0.06746778       1.45416683       0.90447637
H        1.70189568       0.25703661       2.25024876
H        2.67958268       1.20104543       1.08817629
H        2.61670443      -0.53677495       1.07641007
H        0.15839797      -1.66378034       0.18068489
H        0.42509663      -1.68330117      -1.56567238
H       -1.08145889       0.14328530      -1.92893282
H       -2.79541849       0.56382689      -0.08997882
H       -2.65078707      -1.17386535      -0.49710938
H       -1.92119257      -0.50214598       0.97121478
H        0.40865591       1.88245209      -1.01622013
17
Frame=14 idx=006451 GeodesicLength=1.1154200572260904 rxn_smarts="[C:1]([O:2][C:3]([C@@:4]([C:5]([H:14])([H:15])[H:16])([C:6](=[O:7])[H:17])[H:13])([H:11])[H:12])([H:8])([H:9])[H:10]>>[C:1]([O:7][C@@:6]1([H:17])[O:2][C:3]([H:11])([H:12])[C@:4]1([C:5]([H:14])([H:15])[H:16])[H:13])([H:8])([H:9])[H:10]"
C        2.01813782       0.36607746       1.19038722
O        1.32220307      -0.08691098      -0.56938716
C        0.26136115      -1.03113181      -0.68878370
C       -0.87983061      -0.02812222      -0.86684026
C       -2.15484903      -0.30721993      -0.10342866
C       -0.06471882       1.13708829      -0.32706075
O       -0.09458761       1.43490776       0.93062565
H        1.76853793       0.26769188       2.24989997
H        2.70154893       1.20934165       1.05871911
H        2.65289595      -0.52060226       1.06533029
H        0.13998950      -1.65268950       0.20745932
H        0.40725756      -1.70252059      -1.53738701
H       -1.06099426       0.15062508      -1.92903407
H       -2.80894029       0.56491528      -0.11496079
H       -2.66189105      -1.16986259      -0.54046715
H       -1.96098336      -0.51693829       0.94958207
H        0.41486313       1.88535077      -0.97465408
17
Frame=15 idx=006451 GeodesicLength=1.1937150949089372 rxn_smarts="[C:1]([O:2][C:3]([C@@:4]([C:5]([H:14])([H:15])[H:16])([C:6](=[O:7])[H:17])[H:13])([H:11])[H:12])([H:8])([H:9])[H:10]>>[C:1]([O:7][C@@:6]1([H:17])[O:2][C:3]([H:11])([H:12])[C@:4]1([C:5]([H:14])([H:15])[H:16])[H:13])([H:8])([H:9])[H:10]"
C        2.04034913       0.37439957       1.17699734
O        1.32414090      -0.10286254      -0.56645224
C        0.25298399      -1.03447775      -0.67083757
C       -0.88174511      -0.02643751      -0.86324092
C       -2.17203788      -0.30910041      -0.12721953
C       -0.08533232       1.13915483      -0.30504149
O       -0.12205111       1.41474246       0.95724880
H        1.83528902       0.28022093       2.24771535
H        2.72279200       1.21728903       1.02803104
H        2.68838447      -0.50415016       1.05391660
H        0.12130925      -1.64133637       0.23428534
H        0.38868323      -1.72157476      -1.50863252
H       -1.03994817       0.15844291      -1.92813517
H       -2.82204452       0.56600015      -0.14001295
H       -2.67184038      -1.16546019      -0.58440147
H       -2.00064768      -0.53199952       0.92698190
H        0.42171517       1.88714932      -0.93120251
17
Frame=16 idx=006451 GeodesicLength=1.2719305492066895 rxn_smarts="[C:1]([O:2][C:3]([C@@:4]([C:5]([H:14])([H:15])[H:16])([C:6](=[O:7])[H:17])[H:13])([H:11])[H:12])([H:8])([H:9])[H:10]>>[C:1]([O:7][C@@:6]1([H:17])[O:2][C:3]([H:11])([H:12])[C@:4]1([C:5]([H:14])([H:15])[H:16])[H:13])([H:8])([H:9])[H:10]"
C        2.06186568       0.38276259       1.16338045
O        1.32621545      -0.11979705      -0.56316753
C        0.24444212      -1.03793236      -0.65265773
C       -0.88341150      -0.02458001      -0.85913090
C       -2.18866388      -0.31085878      -0.15130886
C       -0.10621186       1.14115144      -0.28236078
O       -0.14988416       1.39371876       0.98429166
H        1.90197113       0.29460750       2.24360109
H        2.74321069       1.22488819       0.99610771
H        2.72318628      -0.48743175       1.04219072
H        0.10237693      -1.62975723       0.26112005
H        0.36937500      -1.74041629      -1.47945516
H       -1.01833495       0.16674028      -1.92618244
H       -2.83468952       0.56710765      -0.16507778
H       -2.68056714      -1.16060431      -0.62886493
H       -2.04011240      -0.54732089       0.90340118
H        0.42923214       1.88772226      -0.88588677
