13
Frame=0 idx=007860 GeodesicLength=0.0 rxn_smarts="[N:1]([C:2](=[O:3])[C:4]([O:5]/[C:6](=[N:7]/[H:13])[H:12])([H:10])[H:11])([H:8])[H:9]>>[C:2]1(=[O:3])[C:4]([H:10])([H:11])[O:5]/[C:6]1=[N:7]/[H:13].[N:1]([H:8])([H:9])[H:12]"
N       -1.19769804       0.38902444      -0.86615180
C       -0.85997689       0.25826080       0.66153202
O       -1.44806603       0.99347310       1.38087298
C       -0.08256657      -1.00692941       0.94701878
O        0.97520120      -1.09669476       0.06067720
C        1.37149794       0.26722744      -0.22355674
N        2.57633099       0.36823947      -0.56523874
H       -1.89304915       1.11819814      -0.99267034
H       -1.47780840      -0.48478724      -1.30485335
H       -0.74929580      -1.87252852       0.83092539
H        0.22407795      -0.94574910       1.99666877
H       -0.21489502       0.67335792      -1.13786706
H        2.77624776       1.33890766      -0.78735715
13
Frame=1 idx=007860 GeodesicLength=0.12703613545643985 rxn_smarts="[N:1]([C:2](=[O:3])[C:4]([O:5]/[C:6](=[N:7]/[H:13])[H:12])([H:10])[H:11])([H:8])[H:9]>>[C:2]1(=[O:3])[C:4]([H:10])([H:11])[O:5]/[C:6]1=[N:7]/[H:13].[N:1]([H:8])([H:9])[H:12]"
N       -1.19122987       0.39407151      -0.87258215
C       -0.85048174       0.25867219       0.67154226
O       -1.43079898       1.00058572       1.39195573
C       -0.09013701      -1.01497055       0.96349856
O        1.00104756      -1.09048999       0.11497078
C        1.36583442       0.26761335      -0.19997235
N        2.54711354       0.36806296      -0.61646660
H       -1.89607373       1.11335641      -1.00018548
H       -1.45403612      -0.47848725      -1.32371806
H       -0.75171373      -1.87728498       0.80671547
H        0.18732589      -0.97702176       2.02190848
H       -0.18365340       0.69240641      -1.14124353
H        2.74680315       1.34348596      -0.81642311
13
Frame=2 idx=007860 GeodesicLength=0.2539306043212525 rxn_smarts="[N:1]([C:2](=[O:3])[C:4]([O:5]/[C:6](=[N:7]/[H:13])[H:12])([H:10])[H:11])([H:8])[H:9]>>[C:2]1(=[O:3])[C:4]([H:10])([H:11])[O:5]/[C:6]1=[N:7]/[H:13].[N:1]([H:8])([H:9])[H:12]"
N       -1.18647768       0.39893427      -0.87889382
C       -0.84068203       0.25954462       0.68162875
O       -1.41402496       1.00692884       1.40362097
C       -0.09661086      -1.02203861       0.97909610
O        1.02711064      -1.08160127       0.17027608
C        1.35959413       0.26823411      -0.18051800
N        2.51596936       0.36609360      -0.66297702
H       -1.90146633       1.10747004      -1.00711765
H       -1.43087888      -0.47224496      -1.34227852
H       -0.75026925      -1.88114845       0.78145660
H        0.15104356      -1.00725485       2.04503417
H       -0.15370059       0.71293876      -1.14537864
H        2.72039291       1.34414390      -0.84394900
13
Frame=3 idx=007860 GeodesicLength=0.38069665899258015 rxn_smarts="[N:1]([C:2](=[O:3])[C:4]([O:5]/[C:6](=[N:7]/[H:13])[H:12])([H:10])[H:11])([H:8])[H:9]>>[C:2]1(=[O:3])[C:4]([H:10])([H:11])[O:5]/[C:6]1=[N:7]/[H:13].[N:1]([H:8])([H:9])[H:12]"
N       -1.18339933       0.40374860      -0.88503774
C       -0.83090037       0.26075379       0.69192679
O       -1.39852980       1.01209914       1.41597440
C       -0.10204901      -1.02818555       0.99392616
O        1.05346747      -1.06942005       0.22714368
C        1.35267884       0.26927917      -0.16452746
N        2.48375758       0.36187210      -0.70517831
H       -1.90922857       1.10055873      -1.01347448
H       -1.40806840      -0.46576169      -1.36077774
H       -0.74468362      -1.88423464       0.75493642
H        0.11486458      -1.03676766       2.06621094
H       -0.12494446       0.73547309      -1.14989115
H        2.69703509       1.34058498      -0.87123150
13
Frame=4 idx=007860 GeodesicLength=0.5073620649628684 rxn_smarts="[N:1]([C:2](=[O:3])[C:4]([O:5]/[C:6](=[N:7]/[H:13])[H:12])([H:10])[H:11])([H:8])[H:9]>>[C:2]1(=[O:3])[C:4]([H:10])([H:11])[O:5]/[C:6]1=[N:7]/[H:13].[N:1]([H:8])([H:9])[H:12]"
N       -1.18190278       0.40864652      -0.89096003
C       -0.82141712       0.26221647       0.70257401
O       -1.38513129       1.01570478       1.42912824
C       -0.10647590      -1.03345037       1.00809286
O        1.08015942      -1.05326868       0.28619504
C        1.34506258       0.27086742      -0.15139250
N        2.45095886       0.35487220      -0.74376776
H       -1.91928650       1.09264859      -1.01929182
H       -1.38529320      -0.45873044      -1.37941147
H       -0.73457338      -1.88659836       0.72694410
H        0.07847104      -1.06588318       2.08551909
H       -0.09723373       0.76052862      -1.15435361
H        2.67666200       1.33244644      -0.89927614
13
Frame=5 idx=007860 GeodesicLength=0.6338895484309486 rxn_smarts="[N:1]([C:2](=[O:3])[C:4]([O:5]/[C:6](=[N:7]/[H:13])[H:12])([H:10])[H:11])([H:8])[H:9]>>[C:2]1(=[O:3])[C:4]([H:10])([H:11])[O:5]/[C:6]1=[N:7]/[H:13].[N:1]([H:8])([H:9])[H:12]"
N       -1.18186042       0.41374842      -0.89658964
C       -0.81247403       0.26385220       0.71368268
O       -1.37461911       1.01729103       1.44316465
C       -0.10986696      -1.03783098       1.02163801
O        1.10710493      -1.03228527       0.34804738
C        1.33673572       0.27306896      -0.14057362
N        2.41776247       0.34452425      -0.77936073
H       -1.93146244       1.08376485      -1.02461128
H       -1.36226948      -0.45080619      -1.39829861
H       -0.71942625      -1.88819665       0.69728350
H        0.04166157      -1.09490249       2.10286132
H       -0.07038237       0.78857592      -1.15827945
H        2.65909638       1.31919595      -0.92896422
13
Frame=6 idx=007860 GeodesicLength=0.7603763941535914 rxn_smarts="[N:1]([C:2](=[O:3])[C:4]([O:5]/[C:6](=[N:7]/[H:13])[H:12])([H:10])[H:11])([H:8])[H:9]>>[C:2]1(=[O:3])[C:4]([H:10])([H:11])[O:5]/[C:6]1=[N:7]/[H:13].[N:1]([H:8])([H:9])[H:12]"
N       -1.18312197       0.41923268      -0.90190533
C       -0.80435511       0.26559734       0.72540029
O       -1.36796447       1.01635025       1.45822482
C       -0.11211167      -1.04133947       1.03462493
O        1.13416382      -1.00552508       0.41330585
C        1.32770785       0.27600192      -0.13154167
N        2.38408356       0.33012948      -0.81255510
H       -1.94558051       1.07400864      -1.02956426
H       -1.33863083      -0.44158179      -1.41760596
H       -0.69852800      -1.88893756       0.66580925
H        0.00440705      -1.12418605       2.11814310
H       -0.04418795       0.82019531      -1.16115684
H        2.64411824       1.30005433      -0.96117906
13
Frame=7 idx=007860 GeodesicLength=0.886855422892967 rxn_smarts="[N:1]([C:2](=[O:3])[C:4]([O:5]/[C:6](=[N:7]/[H:13])[H:12])([H:10])[H:11])([H:8])[H:9]>>[C:2]1(=[O:3])[C:4]([H:10])([H:11])[O:5]/[C:6]1=[N:7]/[H:13].[N:1]([H:8])([H:9])[H:12]"
N       -1.18555443       0.42525405      -0.90688415
C       -0.79735361       0.26734889       0.73781165
O       -1.36606728       1.01225699       1.47436029
C       -0.11301186      -1.04392073       1.04701110
O        1.16089477      -0.97180570       0.48231626
C        1.31799590       0.27979945      -0.12374667
N        2.34961955       0.31093218      -0.84369129
H       -1.96137350       1.06350597      -1.03431130
H       -1.31416118      -0.43062102      -1.43742601
H       -0.67107641      -1.88860276       0.63250155
H       -0.03294897      -1.15398498       2.13101522
H       -0.01843289       0.85583053      -1.16239125
H        2.63146989       1.27400713      -0.99656541
13
Frame=8 idx=007860 GeodesicLength=1.0137463902134995 rxn_smarts="[N:1]([C:2](=[O:3])[C:4]([O:5]/[C:6](=[N:7]/[H:13])[H:12])([H:10])[H:11])([H:8])[H:9]>>[C:2]1(=[O:3])[C:4]([H:10])([H:11])[O:5]/[C:6]1=[N:7]/[H:13].[N:1]([H:8])([H:9])[H:12]"
N       -1.18910781       0.43206211      -0.91169368
C       -0.79183620       0.26901714       0.75104046
O       -1.36990390       1.00442489       1.49175316
C       -0.11216576      -1.04555463       1.05878428
O        1.18661303      -0.92991667       0.55499102
C        1.30766336       0.28465399      -0.11646563
N        2.31385882       0.28606018      -0.87282643
H       -1.97865237       1.05262413      -1.03926155
H       -1.28873545      -0.41743625      -1.45810667
H       -0.63609304      -1.88700666       0.59756859
H       -0.06947060      -1.18454322       2.14120199
H        0.00705884       0.89586746      -1.16146173
H        2.62077108       1.23974752      -1.03552381
13
Frame=9 idx=007860 GeodesicLength=1.14054844648607 rxn_smarts="[N:1]([C:2](=[O:3])[C:4]([O:5]/[C:6](=[N:7]/[H:13])[H:12])([H:10])[H:11])([H:8])[H:9]>>[C:2]1(=[O:3])[C:4]([H:10])([H:11])[O:5]/[C:6]1=[N:7]/[H:13].[N:1]([H:8])([H:9])[H:12]"
N       -1.19328935       0.43962324      -0.91628986
C       -0.78808559       0.27013918       0.76486165
O       -1.37950442       0.99222493       1.50980437
C       -0.10954040      -1.04623618       1.06974419
O        1.21011634      -0.88031918       0.62966009
C        1.29660903       0.29084261      -0.10907791
N        2.27629420       0.25563730      -0.89920304
H       -1.99632788       1.04160896      -1.04456183
H       -1.26226923      -0.40168683      -1.47919622
H       -0.59412093      -1.88347341       0.56203687
H       -0.10358731      -1.21538761       2.14822279
H        0.03304210       0.93993716      -1.15801027
H        2.61066344       1.19708984      -1.07799083
13
Frame=10 idx=007860 GeodesicLength=1.2685197008708684 rxn_smarts="[N:1]([C:2](=[O:3])[C:4]([O:5]/[C:6](=[N:7]/[H:13])[H:12])([H:10])[H:11])([H:8])[H:9]>>[C:2]1(=[O:3])[C:4]([H:10])([H:11])[O:5]/[C:6]1=[N:7]/[H:13].[N:1]([H:8])([H:9])[H:12]"
N       -1.19840597       0.44807817      -0.92131184
C       -0.78647476       0.27058731       0.77928881
O       -1.39473795       0.97605188       1.52876134
C       -0.10464295      -1.04623597       1.08003937
O        1.23017736      -0.82344388       0.70403165
C        1.28505615       0.29841433      -0.10089256
N        2.23665373       0.21990770      -0.92233722
H       -2.01449851       1.03130708      -1.05104828
H       -1.23536008      -0.38325305      -1.50142498
H       -0.54537951      -1.87819025       0.52727975
H       -0.13294246      -1.24644367       2.15243643
H        0.05970084       0.98741179      -1.15247895
H        2.60085411       1.14580857      -1.12234352
13
Frame=11 idx=007860 GeodesicLength=1.3963422801553909 rxn_smarts="[N:1]([C:2](=[O:3])[C:4]([O:5]/[C:6](=[N:7]/[H:13])[H:12])([H:10])[H:11])([H:8])[H:9]>>[C:2]1(=[O:3])[C:4]([H:10])([H:11])[O:5]/[C:6]1=[N:7]/[H:13].[N:1]([H:8])([H:9])[H:12]"
N       -1.20392281       0.45657657      -0.92656424
C       -0.78629526       0.27004054       0.79349478
O       -1.41261183       0.95657729       1.54715133
C       -0.09803548      -1.04551199       1.08918797
O        1.24541635      -0.76287897       0.77407701
C        1.27284439       0.30725176      -0.09178784
N        2.19470801       0.18117560      -0.94094334
H       -2.03192385       1.02111886      -1.05847249
H       -1.20854881      -0.36287369      -1.52375661
H       -0.49376898      -1.87039342       0.49488885
H       -0.15546635      -1.27604353       2.15364746
H        0.08804490       1.03635501      -1.14522267
H        2.58955973       1.08860597      -1.16570022
13
Frame=12 idx=007860 GeodesicLength=1.5252013393099035 rxn_smarts="[N:1]([C:2](=[O:3])[C:4]([O:5]/[C:6](=[N:7]/[H:13])[H:12])([H:10])[H:11])([H:8])[H:9]>>[C:2]1(=[O:3])[C:4]([H:10])([H:11])[O:5]/[C:6]1=[N:7]/[H:13].[N:1]([H:8])([H:9])[H:12]"
N       -1.21041137       0.46500773      -0.93274586
C       -0.78750466       0.26854504       0.80755714
O       -1.43195934       0.93529619       1.56544679
C       -0.08982894      -1.04467710       1.09775201
O        1.25605568      -0.70142374       0.83783133
C        1.26028068       0.31687697      -0.08194815
N        2.15130139       0.14120585      -0.95532252
H       -2.04929565       1.01169102      -1.06750707
H       -1.18255417      -0.34088937      -1.54695539
H       -0.44109573      -1.86093149       0.46606795
H       -0.17030831      -1.30410825       2.15352548
H        0.11821688       1.08580195      -1.13775017
H        2.57710356       1.02760519      -1.20595154
13
Frame=13 idx=007860 GeodesicLength=1.6546627515018277 rxn_smarts="[N:1]([C:2](=[O:3])[C:4]([O:5]/[C:6](=[N:7]/[H:13])[H:12])([H:10])[H:11])([H:8])[H:9]>>[C:2]1(=[O:3])[C:4]([H:10])([H:11])[O:5]/[C:6]1=[N:7]/[H:13].[N:1]([H:8])([H:9])[H:12]"
N       -1.21781654       0.47272349      -0.93968510
C       -0.78943419       0.26611651       0.82111603
O       -1.45059810       0.91338491       1.58313906
C       -0.08055789      -1.04388016       1.10562870
O        1.26217934      -0.64096849       0.89411447
C        1.24716174       0.32685317      -0.07182884
N        2.10640149       0.10179385      -0.96565975
H       -2.06620648       1.00260086      -1.07779906
H       -1.15773410      -0.31799465      -1.57055192
H       -0.38939699      -1.85021399       0.44109148
H       -0.17785225      -1.33008909       2.15232401
H        0.15064917       1.13474117      -1.13057249
H        2.56320481       0.96493243      -1.24131660
13
Frame=14 idx=007860 GeodesicLength=1.7846719714040624 rxn_smarts="[N:1]([C:2](=[O:3])[C:4]([O:5]/[C:6](=[N:7]/[H:13])[H:12])([H:10])[H:11])([H:8])[H:9]>>[C:2]1(=[O:3])[C:4]([H:10])([H:11])[O:5]/[C:6]1=[N:7]/[H:13].[N:1]([H:8])([H:9])[H:12]"
N       -1.22630567       0.47943186      -0.94739975
C       -0.79173488       0.26291705       0.83424709
O       -1.46789805       0.89143809       1.60040975
C       -0.07065365      -1.04329345       1.11308304
O        1.26488307      -0.58318068       0.94329254
C        1.23355517       0.33676273      -0.06190879
N        2.06071673       0.06401549      -0.97276681
H       -2.08306899       0.99358203      -1.08930215
H       -1.13412281      -0.29439581      -1.59458630
H       -0.34006279      -1.83854625       0.41973207
H       -0.17912939      -1.35393974       2.15102675
H        0.18576274       1.18289052      -1.12424578
H        2.54805851       0.90231817      -1.27158165
13
Frame=15 idx=007860 GeodesicLength=1.915134907423245 rxn_smarts="[N:1]([C:2](=[O:3])[C:4]([O:5]/[C:6](=[N:7]/[H:13])[H:12])([H:10])[H:11])([H:8])[H:9]>>[C:2]1(=[O:3])[C:4]([H:10])([H:11])[O:5]/[C:6]1=[N:7]/[H:13].[N:1]([H:8])([H:9])[H:12]"
N       -1.23600662       0.48485739      -0.95577064
C       -0.79418359       0.25905979       0.84700749
O       -1.48348756       0.86984893       1.61736067
C       -0.06037397      -1.04297047       1.12020495
O        1.26485834      -0.52841428       0.98606095
C        1.21935913       0.34635518      -0.05249556
N        2.01438106       0.02837651      -0.97737524
H       -2.10005489       0.98437811      -1.10183764
H       -1.11167488      -0.27020232      -1.61900561
H       -0.29350113      -1.82629837       0.40154513
H       -0.17517128      -1.37573613       2.14993448
H        0.22393232       1.23024335      -1.11883560
H        2.53192305       0.84050230      -1.29679337
13
Frame=16 idx=007860 GeodesicLength=2.0460254974282863 rxn_smarts="[N:1]([C:2](=[O:3])[C:4]([O:5]/[C:6](=[N:7]/[H:13])[H:12])([H:10])[H:11])([H:8])[H:9]>>[C:2]1(=[O:3])[C:4]([H:10])([H:11])[O:5]/[C:6]1=[N:7]/[H:13].[N:1]([H:8])([H:9])[H:12]"
N       -1.24705801       0.48876963      -0.96467886
C       -0.79670243       0.25461393       0.85947837
O       -1.49735263       0.84875772       1.63409837
C       -0.04987940      -1.04293231       1.12709236
O        1.26267070      -0.47659027       1.02321495
C        1.20447090       0.35552869      -0.04378688
N        1.96738272      -0.00492875      -0.98015887
H       -2.11735790       0.97475888      -1.11527493
H       -1.09023697      -0.24532646      -1.64380708
H       -0.24974272      -1.81375030       0.38610332
H       -0.16685979      -1.39563816       2.14924507
H        0.26561084       1.27701150      -1.11419953
H        2.51505470       0.77972590      -1.31732629
