14
Frame=0 idx=006197 GeodesicLength=0.0 rxn_smarts="[C:1]1([H:7])([H:8])[C:2]([H:9])([H:10])[C:3]1([C@@:4]1([H:12])[C:5]([H:13])([H:14])[O:6]1)[H:11]>>[C:1]1([H:7])([H:8])[C:2]([H:9])([H:10])[C:3]1=[C:4]([C:5]([O:6][H:11])([H:13])[H:14])[H:12]"
C       -1.76962510      -0.14353160      -0.60016213
C       -1.14404525       1.15310239      -0.10988808
C       -0.41288854      -0.13564516      -0.03308811
C        0.84919642      -0.59934108      -0.40614977
C        1.94662495      -0.15676091       0.46875727
O        1.39219730      -1.08273872       1.37892420
H       -1.88919989      -0.26009070      -1.67175488
H       -2.57775495      -0.56360401      -0.01295868
H       -1.52991260       1.58545058       0.80474755
H       -0.84860357       1.87708122      -0.86054586
H        0.13017481      -0.64141996       1.10341410
H        1.00046601      -1.49440515      -1.00055391
H        2.95559758      -0.42733494       0.15502804
H        1.89777277       0.88923805       0.78423026
14
Frame=1 idx=006197 GeodesicLength=0.05659808663067726 rxn_smarts="[C:1]1([H:7])([H:8])[C:2]([H:9])([H:10])[C:3]1([C@@:4]1([H:12])[C:5]([H:13])([H:14])[O:6]1)[H:11]>>[C:1]1([H:7])([H:8])[C:2]([H:9])([H:10])[C:3]1=[C:4]([C:5]([O:6][H:11])([H:13])[H:14])[H:12]"
C       -1.77005443      -0.14525510      -0.59842270
C       -1.14632471       1.15489750      -0.11666599
C       -0.41570572      -0.13285751      -0.02404308
C        0.84760334      -0.59238985      -0.40109829
C        1.95156052      -0.15790739       0.46977785
O        1.39983384      -1.09688959       1.36868301
H       -1.88527299      -0.27126944      -1.66934188
H       -2.58046249      -0.56091929      -0.01133378
H       -1.53555246       1.59542828       0.79263019
H       -0.84738878       1.87235292      -0.87215986
H        0.12816412      -0.64648703       1.12881641
H        0.99443842      -1.47523220      -1.01444330
H        2.95783483      -0.42640061       0.14658920
H        1.90132653       0.88292930       0.80101224
14
Frame=2 idx=006197 GeodesicLength=0.11318793811306116 rxn_smarts="[C:1]1([H:7])([H:8])[C:2]([H:9])([H:10])[C:3]1([C@@:4]1([H:12])[C:5]([H:13])([H:14])[O:6]1)[H:11]>>[C:1]1([H:7])([H:8])[C:2]([H:9])([H:10])[C:3]1=[C:4]([C:5]([O:6][H:11])([H:13])[H:14])[H:12]"
C       -1.77043910      -0.14701826      -0.59664969
C       -1.14864926       1.15665510      -0.12349729
C       -0.41842763      -0.12985730      -0.01520361
C        0.84610291      -0.58528154      -0.39620194
C        1.95649733      -0.15913612       0.47077585
O        1.40686176      -1.11063476       1.35824331
H       -1.88141697      -0.28248040      -1.66678200
H       -2.58297565      -0.55841704      -0.00961020
H       -1.54112371       1.60523039       0.78045848
H       -0.84636233       1.86760100      -0.88376746
H        0.12628390      -0.65167794       1.15438454
H        0.98843351      -1.45553755      -1.02818124
H        2.96000929      -0.42579211       0.13843472
H        1.90520594       0.87634654       0.81759652
14
Frame=3 idx=006197 GeodesicLength=0.16977107140396178 rxn_smarts="[C:1]1([H:7])([H:8])[C:2]([H:9])([H:10])[C:3]1([C@@:4]1([H:12])[C:5]([H:13])([H:14])[O:6]1)[H:11]>>[C:1]1([H:7])([H:8])[C:2]([H:9])([H:10])[C:3]1=[C:4]([C:5]([O:6][H:11])([H:13])[H:14])[H:12]"
C       -1.77077951      -0.14881563      -0.59484937
C       -1.15102103       1.15837648      -0.13037900
C       -0.42105526      -0.12664703      -0.00657404
C        0.84469520      -0.57801751      -0.39146085
C        1.96143434      -0.16044522       0.47174571
O        1.41328749      -1.12396941       1.34762504
H       -1.87762463      -0.29371273      -1.66408441
H       -2.58529837      -0.55609349      -0.00779554
H       -1.54663379       1.61485438       0.76824005
H       -0.84552189       1.86283160      -0.89536342
H        0.12453594      -0.65701344       1.18012858
H        0.98245905      -1.43533950      -1.04174879
H        2.96212590      -0.42551045       0.13055015
H        1.90939656       0.86950193       0.83396590
14
Frame=4 idx=006197 GeodesicLength=0.22634859001475094 rxn_smarts="[C:1]1([H:7])([H:8])[C:2]([H:9])([H:10])[C:3]1([C@@:4]1([H:12])[C:5]([H:13])([H:14])[O:6]1)[H:11]>>[C:1]1([H:7])([H:8])[C:2]([H:9])([H:10])[C:3]1=[C:4]([C:5]([O:6][H:11])([H:13])[H:14])[H:12]"
C       -1.77107555      -0.15064048      -0.59303053
C       -1.15344231       1.16006306      -0.13730539
C       -0.42358996      -0.12323050       0.00184050
C        0.84338018      -0.57059995      -0.38687828
C        1.96637002      -0.16183146       0.47267950
O        1.41911939      -1.13687872       1.33685220
H       -1.87388705      -0.30494942      -1.66126146
H       -2.58743445      -0.55394559      -0.00590217
H       -1.55209128       1.62429376       0.75598736
H       -0.84486358       1.85805386      -0.90693550
H        0.12292283      -0.66251899       1.20605837
H        0.97652004      -1.41467091      -1.05512234
H        2.96418818      -0.42555675       0.12292374
H        1.91388351       0.86241209       0.85009398
14
Frame=5 idx=006197 GeodesicLength=0.2829237402160111 rxn_smarts="[C:1]1([H:7])([H:8])[C:2]([H:9])([H:10])[C:3]1([C@@:4]1([H:12])[C:5]([H:13])([H:14])[O:6]1)[H:11]>>[C:1]1([H:7])([H:8])[C:2]([H:9])([H:10])[C:3]1=[C:4]([C:5]([O:6][H:11])([H:13])[H:14])[H:12]"
C       -1.77132761      -0.15248850      -0.59119737
C       -1.15591517       1.16171681      -0.14427669
C       -0.42603358      -0.11960937       0.01003889
C        0.84215645      -0.56303138      -0.38244864
C        1.97130382      -0.16329395       0.47357306
O        1.42436637      -1.14936475       1.32594377
H       -1.87019582      -0.31618588      -1.65832064
H       -2.58938807      -0.55196872      -0.00393482
H       -1.55750403       1.63355091       0.74370273
H       -0.84438444       1.85327111      -0.91848440
H        0.12144655      -0.66821334       1.23218971
H        0.97062426      -1.39353588      -1.06829371
H        2.96619909      -0.42593317       0.11553724
H        1.91865220       0.85508610       0.86597087
14
Frame=6 idx=006197 GeodesicLength=0.33949872845011436 rxn_smarts="[C:1]1([H:7])([H:8])[C:2]([H:9])([H:10])[C:3]1([C@@:4]1([H:12])[C:5]([H:13])([H:14])[O:6]1)[H:11]>>[C:1]1([H:7])([H:8])[C:2]([H:9])([H:10])[C:3]1=[C:4]([C:5]([O:6][H:11])([H:13])[H:14])[H:12]"
C       -1.77153519      -0.15435270      -0.58935855
C       -1.15844149       1.16334026      -0.15128774
C       -0.42838733      -0.11578626       0.01801618
C        0.84102477      -0.55531171      -0.37817860
C        1.97623373      -0.16482844       0.47441829
O        1.42903664      -1.16141773       1.31491689
H       -1.86654225      -0.32740513      -1.65527414
H       -2.59116169      -0.55015972      -0.00190521
H       -1.56288043       1.64262082       0.73139818
H       -0.84408095       1.84849371      -0.92999982
H        0.12011298      -0.67412147       1.25853485
H        0.96477486      -1.37197658      -1.08123551
H        2.96816058      -0.42663652       0.10837929
H        1.92368576       0.84754147       0.88157590
14
Frame=7 idx=006197 GeodesicLength=0.3960703496110291 rxn_smarts="[C:1]1([H:7])([H:8])[C:2]([H:9])([H:10])[C:3]1([C@@:4]1([H:12])[C:5]([H:13])([H:14])[O:6]1)[H:11]>>[C:1]1([H:7])([H:8])[C:2]([H:9])([H:10])[C:3]1=[C:4]([C:5]([O:6][H:11])([H:13])[H:14])[H:12]"
C       -1.77169803      -0.15622707      -0.58752077
C       -1.16102404       1.16493726      -0.15833651
C       -0.43065358      -0.11176197       0.02577098
C        0.83998285      -0.54744078      -0.37406487
C        1.98115870      -0.16643065       0.47520890
O        1.43313993      -1.17303224       1.30378945
H       -1.86291691      -0.33859830      -1.65213108
H       -2.59275893      -0.54851394       0.00017781
H       -1.56822940       1.65150499       0.71907785
H       -0.84395050       1.84372929      -0.94147712
H        0.11892732      -0.68027267       1.28510587
H        0.95897629      -1.35001870      -1.09392958
H        2.97007519      -0.42766460       0.10143236
H        1.92897111       0.83978937       0.89689670
14
Frame=8 idx=006197 GeodesicLength=0.45264778175044595 rxn_smarts="[C:1]1([H:7])([H:8])[C:2]([H:9])([H:10])[C:3]1([C@@:4]1([H:12])[C:5]([H:13])([H:14])[O:6]1)[H:11]>>[C:1]1([H:7])([H:8])[C:2]([H:9])([H:10])[C:3]1=[C:4]([C:5]([O:6][H:11])([H:13])[H:14])[H:12]"
C       -1.77181679      -0.15810634      -0.58568976
C       -1.16366474       1.16651132      -0.16542358
C       -0.43283497      -0.10753777       0.03330056
C        0.83903048      -0.53941952      -0.37010794
C        1.98607568      -0.16809903       0.47594183
O        1.43668829      -1.18421241       1.29257449
H       -1.85931197      -0.34975753      -1.64890015
H       -2.59418298      -0.54702636       0.00230843
H       -1.57355803       1.66020611       0.70674636
H       -0.84398937       1.83898394      -0.95291595
H        0.11789803      -0.68668778       1.31192310
H        0.95323329      -1.32768492      -1.10636417
H        2.97194161      -0.42901230       0.09468319
H        1.93449146       0.83184258       0.91192360
14
Frame=9 idx=006197 GeodesicLength=0.509225609026489 rxn_smarts="[C:1]1([H:7])([H:8])[C:2]([H:9])([H:10])[C:3]1([C@@:4]1([H:12])[C:5]([H:13])([H:14])[O:6]1)[H:11]>>[C:1]1([H:7])([H:8])[C:2]([H:9])([H:10])[C:3]1=[C:4]([C:5]([O:6][H:11])([H:13])[H:14])[H:12]"
C       -1.77189112      -0.15998503      -0.58387082
C       -1.16636708       1.16806636      -0.17254970
C       -0.43493353      -0.10311239       0.04060396
C        0.83816412      -0.53124743      -0.36630447
C        1.99098199      -0.16983020       0.47661247
O        1.43969336      -1.19494966       1.28129631
H       -1.85571806      -0.36087723      -1.64558904
H       -2.59543612      -0.54569140       0.00448054
H       -1.57887444       1.66872843       0.69440487
H       -0.84419640       1.83426386      -0.96431605
H        0.11703420      -0.69340415       1.33899905
H        0.94755062      -1.30498804      -1.11852736
H        2.97375891      -0.43068452       0.08811387
H        1.94023356       0.82371140       0.92664637
14
Frame=10 idx=006197 GeodesicLength=0.5658092621055998 rxn_smarts="[C:1]1([H:7])([H:8])[C:2]([H:9])([H:10])[C:3]1([C@@:4]1([H:12])[C:5]([H:13])([H:14])[O:6]1)[H:11]>>[C:1]1([H:7])([H:8])[C:2]([H:9])([H:10])[C:3]1=[C:4]([C:5]([O:6][H:11])([H:13])[H:14])[H:12]"
C       -1.77192172      -0.16185669      -0.58206989
C       -1.16913192       1.16960759      -0.17971469
C       -0.43695247      -0.09848574       0.04767869
C        0.83738384      -0.52292437      -0.36265575
C        1.99587533      -0.17161966       0.47721614
O        1.44216219      -1.20524751       1.26995974
H       -1.85212857      -0.37194797      -1.64220537
H       -2.59652117      -0.54450339       0.00668817
H       -1.58418548       1.67707545       0.68205715
H       -0.84456715       1.82957648      -0.97567763
H        0.11635004      -0.70044890       1.36635358
H        0.94193021      -1.28196629      -1.13040375
H        2.97552744      -0.43266788       0.08171494
H        1.94617942       0.81540888       0.94105867
14
Frame=11 idx=006197 GeodesicLength=0.6223978428294178 rxn_smarts="[C:1]1([H:7])([H:8])[C:2]([H:9])([H:10])[C:3]1([C@@:4]1([H:12])[C:5]([H:13])([H:14])[O:6]1)[H:11]>>[C:1]1([H:7])([H:8])[C:2]([H:9])([H:10])[C:3]1=[C:4]([C:5]([O:6][H:11])([H:13])[H:14])[H:12]"
C       -1.77190838      -0.16371679      -0.58029022
C       -1.17196128       1.17113956      -0.18692206
C       -0.43889416      -0.09365685       0.05452539
C        0.83668731      -0.51444939      -0.35915760
C        2.00075371      -0.17346537       0.47774902
O        1.44410368      -1.21510663       1.25857714
H       -1.84853566      -0.38296850      -1.63875375
H       -2.59744042      -0.54345580       0.00892907
H       -1.58949737       1.68525509       0.66969965
H       -0.84509910       1.82492552      -0.98700551
H        0.11585545      -0.70785493       1.39400563
H        0.93637594      -1.25862961      -1.14198692
H        2.97724628      -0.43496083       0.07547051
H        1.95231399       0.80694451       0.95515964
14
Frame=12 idx=006197 GeodesicLength=0.6789912277568991 rxn_smarts="[C:1]1([H:7])([H:8])[C:2]([H:9])([H:10])[C:3]1([C@@:4]1([H:12])[C:5]([H:13])([H:14])[O:6]1)[H:11]>>[C:1]1([H:7])([H:8])[C:2]([H:9])([H:10])[C:3]1=[C:4]([C:5]([O:6][H:11])([H:13])[H:14])[H:12]"
C       -1.77185209      -0.16555909      -0.57853663
C       -1.17485677       1.17266772      -0.19417460
C       -0.44076283      -0.08862399       0.06114384
C        0.83607162      -0.50582357      -0.35580666
C        2.00561301      -0.17536262       0.47820860
O        1.44553151      -1.22452819       1.24715950
H       -1.84493181      -0.39393300      -1.63524000
H       -2.59819756      -0.54254012       0.01119883
H       -1.59481588       1.69327548       0.65733117
H       -0.84578731       1.82031615      -0.99830330
H        0.11556515      -0.71566235       1.42197292
H        0.93089057      -1.23500329      -1.15326496
H        2.97891221      -0.43755284       0.06936770
H        1.95862018       0.79832971       0.96894359
14
Frame=13 idx=006197 GeodesicLength=0.7355894675676924 rxn_smarts="[C:1]1([H:7])([H:8])[C:2]([H:9])([H:10])[C:3]1([C@@:4]1([H:12])[C:5]([H:13])([H:14])[O:6]1)[H:11]>>[C:1]1([H:7])([H:8])[C:2]([H:9])([H:10])[C:3]1=[C:4]([C:5]([O:6][H:11])([H:13])[H:14])[H:12]"
C       -1.77175314      -0.16737859      -0.57681180
C       -1.17782184       1.17419808      -0.20147802
C       -0.44256095      -0.08338214       0.06753302
C        0.83553458      -0.49704206      -0.35259980
C        2.01045011      -0.17730824       0.47859336
O        1.44645166      -1.23351119       1.23571987
H       -1.84130992      -0.40484190      -1.63166742
H       -2.59879337      -0.54174997       0.01349731
H       -1.60014846       1.70114664       0.64494661
H       -0.84663250       1.81575291      -1.00957963
H        0.11549905      -0.72391172       1.45027562
H        0.92547703      -1.21109917      -1.16423588
H        2.98052196      -0.44044440       0.06339516
H        1.96508578       0.78957176       0.98241161
14
Frame=14 idx=006197 GeodesicLength=0.7921860167696522 rxn_smarts="[C:1]1([H:7])([H:8])[C:2]([H:9])([H:10])[C:3]1([C@@:4]1([H:12])[C:5]([H:13])([H:14])[O:6]1)[H:11]>>[C:1]1([H:7])([H:8])[C:2]([H:9])([H:10])[C:3]1=[C:4]([C:5]([O:6][H:11])([H:13])[H:14])[H:12]"
C       -1.77161219      -0.16916883      -0.57512007
C       -1.18085841       1.17573717      -0.20883607
C       -0.44429233      -0.07792785       0.07369268
C        0.83507376      -0.48810275      -0.34953562
C        2.01526051      -0.17929627       0.47890067
O        1.44687293      -1.24205339       1.22426942
H       -1.83766314      -0.41568990      -1.62804031
H       -2.59923021      -0.54107668       0.01582152
H       -1.60550067       1.70887720       0.63254248
H       -0.84763077       1.81124123      -1.02083976
H        0.11567892      -0.73265115       1.47892992
H        0.92013688      -1.18694464      -1.17488723
H        2.98206969      -0.44362638       0.05754326
H        1.97169503       0.78068224       0.99555911
14
Frame=15 idx=006197 GeodesicLength=0.8487772556064859 rxn_smarts="[C:1]1([H:7])([H:8])[C:2]([H:9])([H:10])[C:3]1([C@@:4]1([H:12])[C:5]([H:13])([H:14])[O:6]1)[H:11]>>[C:1]1([H:7])([H:8])[C:2]([H:9])([H:10])[C:3]1=[C:4]([C:5]([O:6][H:11])([H:13])[H:14])[H:12]"
C       -1.77143010      -0.17092436      -0.57346307
C       -1.18396844       1.17729153      -0.21625621
C       -0.44596065      -0.07225570       0.07962374
C        0.83468579      -0.47900315      -0.34660892
C        2.02004018      -0.18132241       0.47912926
O        1.44680389      -1.25015430       1.21281921
H       -1.83398520      -0.42647850      -1.62435987
H       -2.59951025      -0.54051034       0.01817275
H       -1.61087797       1.71648017       0.62010964
H       -0.84878000       1.80678319      -1.03209516
H        0.11612614      -0.74193187       1.50795470
H        0.91487220      -1.16255010      -1.18521610
H        2.98355079      -0.44709392       0.05180098
H        1.97843362       0.77166975       1.00838906
14
Frame=16 idx=006197 GeodesicLength=0.9053579001704364 rxn_smarts="[C:1]1([H:7])([H:8])[C:2]([H:9])([H:10])[C:3]1([C@@:4]1([H:12])[C:5]([H:13])([H:14])[O:6]1)[H:11]>>[C:1]1([H:7])([H:8])[C:2]([H:9])([H:10])[C:3]1=[C:4]([C:5]([O:6][H:11])([H:13])[H:14])[H:12]"
C       -1.77120799      -0.17263853      -0.57184352
C       -1.18715402       1.17886828      -0.22374591
C       -0.44757040      -0.06635964       0.08532699
C        0.83436687      -0.46974098      -0.34381489
C        2.02478396      -0.18338110       0.47927828
O        1.44625476      -1.25781385       1.20137883
H       -1.83026951      -0.43720638      -1.62062787
H       -2.59963604      -0.54004015       0.02055070
H       -1.61628532       1.72396839       0.60763956
H       -0.85007655       1.80238180      -1.04335636
H        0.11686650      -0.75180935       1.53736816
H        0.90968391      -1.13793565      -1.19521417
H        2.98495890      -0.45083751       0.04615777
H        1.98528495       0.76254467       1.02090243
