15
Frame=0 idx=010511 GeodesicLength=0.0 rxn_smarts="[C:1]([C:2]([C:3]([C:4](=[O:5])[C:6](=[O:7])[H:15])([H:13])[H:14])([H:11])[H:12])([H:8])([H:9])[H:10]>>[C:1]([C@:2]1([H:12])[C:3]([H:13])([H:14])[C:4](=[O:5])[C@@:6]1([O:7][H:11])[H:15])([H:8])([H:9])[H:10]"
C       -1.75070252      -0.15250413      -0.95344738
C       -0.88408529      -0.06100198       0.27316950
C        0.08461902       0.98342450       0.47404665
C        1.32817275       0.19129624       1.09860412
O        1.65434091       0.39419610       2.24943188
C        1.94190486      -0.62829353       0.10899974
O        1.28442411      -1.24494375      -0.83086825
H       -2.68264998       0.40766338      -0.80126838
H       -2.04246335      -1.17813814      -1.19303721
H       -1.25900339       0.27203862      -1.83088360
H        0.31647768      -1.13978437      -0.54855967
H       -1.26144654      -0.53569235       1.17425124
H        0.35658679       1.51761544      -0.43807885
H       -0.09519106       1.69777009       1.28081607
H        3.00901602      -0.52364612      -0.06317591
15
Frame=1 idx=010511 GeodesicLength=0.11744582128046764 rxn_smarts="[C:1]([C:2]([C:3]([C:4](=[O:5])[C:6](=[O:7])[H:15])([H:13])[H:14])([H:11])[H:12])([H:8])([H:9])[H:10]>>[C:1]([C@:2]1([H:12])[C:3]([H:13])([H:14])[C:4](=[O:5])[C@@:6]1([O:7][H:11])[H:15])([H:8])([H:9])[H:10]"
C       -1.75388513      -0.14948049      -0.94711254
C       -0.86671627      -0.08680637       0.26793680
C        0.08051273       0.98368375       0.47121095
C        1.33195746       0.21709082       1.09240853
O        1.66852515       0.42031583       2.23927368
C        1.93597828      -0.62728228       0.11247142
O        1.31154158      -1.22237411      -0.86159744
H       -2.67441559       0.42408974      -0.77902991
H       -2.06418015      -1.16836390      -1.19143540
H       -1.26722563       0.27417281      -1.82791946
H        0.31346622      -1.15947364      -0.57337318
H       -1.25013975      -0.55567599       1.16970428
H        0.33942196       1.52719560      -0.43926005
H       -0.12065117       1.69925765       1.27164429
H        3.01581032      -0.57634943      -0.00492198
15
Frame=2 idx=010511 GeodesicLength=0.23482702660355764 rxn_smarts="[C:1]([C:2]([C:3]([C:4](=[O:5])[C:6](=[O:7])[H:15])([H:13])[H:14])([H:11])[H:12])([H:8])([H:9])[H:10]>>[C:1]([C@:2]1([H:12])[C:3]([H:13])([H:14])[C:4](=[O:5])[C@@:6]1([O:7][H:11])[H:15])([H:8])([H:9])[H:10]"
C       -1.75646210      -0.14667076      -0.94031377
C       -0.84828202      -0.11193528       0.26181213
C        0.07653842       0.98442648       0.46828069
C        1.33629209       0.24403507       1.08534272
O        1.68261339       0.44680939       2.22849359
C        1.92959786      -0.62611395       0.11585352
O        1.33978020      -1.19872501      -0.89133259
H       -2.66582106       0.43874931      -0.75563374
H       -2.08433194      -1.15881381      -1.18893649
H       -1.27616101       0.27698903      -1.82473827
H        0.31107699      -1.17801583      -0.60054591
H       -1.23717754      -0.57567707       1.16417397
H        0.32191229       1.53739067      -0.44031668
H       -0.14628161       1.70014535       1.26264829
H        3.01670604      -0.63259357       0.05521255
15
Frame=3 idx=010511 GeodesicLength=0.3521611578664381 rxn_smarts="[C:1]([C:2]([C:3]([C:4](=[O:5])[C:6](=[O:7])[H:15])([H:13])[H:14])([H:11])[H:12])([H:8])([H:9])[H:10]>>[C:1]([C@:2]1([H:12])[C:3]([H:13])([H:14])[C:4](=[O:5])[C@@:6]1([O:7][H:11])[H:15])([H:8])([H:9])[H:10]"
C       -1.75833055      -0.14407924      -0.93312663
C       -0.82883189      -0.13628377       0.25482422
C        0.07276624       0.98559750       0.46534855
C        1.34112490       0.27190309       1.07745939
O        1.69679924       0.47360325       2.21705968
C        1.92274836      -0.62480782       0.11915031
O        1.36918176      -1.17435041      -0.91979182
H       -2.65677314       0.45174363      -0.73136951
H       -2.10286099      -1.14954783      -1.18555548
H       -1.28553220       0.28037018      -1.82134464
H        0.30914469      -1.19557311      -0.62968866
H       -1.22265737      -0.59560987       1.15767694
H        0.30415548       1.54811278      -0.44114314
H       -0.17188393       1.70036061       1.25395701
H        3.01094939      -0.69143896       0.11654379
15
Frame=4 idx=010511 GeodesicLength=0.4694822939175423 rxn_smarts="[C:1]([C:2]([C:3]([C:4](=[O:5])[C:6](=[O:7])[H:15])([H:13])[H:14])([H:11])[H:12])([H:8])([H:9])[H:10]>>[C:1]([C@:2]1([H:12])[C:3]([H:13])([H:14])[C:4](=[O:5])[C@@:6]1([O:7][H:11])[H:15])([H:8])([H:9])[H:10]"
C       -1.75940489      -0.14169837      -0.92564404
C       -0.80846140      -0.15976135       0.24702504
C        0.06924903       0.98712620       0.46252337
C        1.34636960       0.30041190       1.06884167
O        1.71128901       0.50060035       2.20493745
C        1.91543184      -0.62334748       0.12232471
O        1.39974448      -1.14966366      -0.94669695
H       -2.64717837       0.46322590      -0.70656527
H       -2.11974967      -1.14060130      -1.18133266
H       -1.29504124       0.28417665      -1.81775918
H        0.30747374      -1.21237858      -0.66031868
H       -1.20675267      -0.61537800       1.15024997
H        0.28624285       1.55926432      -0.44161487
H       -0.19726429       1.69982899       1.24571945
H        2.99805199      -0.75180556       0.17831000
15
Frame=5 idx=010511 GeodesicLength=0.5868366809747109 rxn_smarts="[C:1]([C:2]([C:3]([C:4](=[O:5])[C:6](=[O:7])[H:15])([H:13])[H:14])([H:11])[H:12])([H:8])([H:9])[H:10]>>[C:1]([C@:2]1([H:12])[C:3]([H:13])([H:14])[C:4](=[O:5])[C@@:6]1([O:7][H:11])[H:15])([H:8])([H:9])[H:10]"
C       -1.75963072      -0.13951947      -0.91795677
C       -0.78728833      -0.18229308       0.23847837
C        0.06601204       0.98895092       0.45990802
C        1.35192617       0.32928890       1.05957045
O        1.72627378       0.52768727       2.19208104
C        1.90770131      -0.62160601       0.12524960
O        1.43146271      -1.12502151      -0.97185449
H       -2.63697572       0.47335016      -0.68152876
H       -2.13500764      -1.13199826      -1.17631579
H       -1.30442476       0.28826742      -1.81400697
H        0.30587903      -1.22868315      -0.69191669
H       -1.18965250      -0.63489744       1.14193986
H        0.26822094       1.57076893      -0.44160902
H       -0.22225962       1.69848999       1.23808172
H        2.97776332      -0.81278466       0.23987944
15
Frame=6 idx=010511 GeodesicLength=0.7042764402239816 rxn_smarts="[C:1]([C:2]([C:3]([C:4](=[O:5])[C:6](=[O:7])[H:15])([H:13])[H:14])([H:11])[H:12])([H:8])([H:9])[H:10]>>[C:1]([C@:2]1([H:12])[C:3]([H:13])([H:14])[C:4](=[O:5])[C@@:6]1([O:7][H:11])[H:15])([H:8])([H:9])[H:10]"
C       -1.75896987      -0.13752032      -0.91017469
C       -0.76546495      -0.20382026       0.22927070
C        0.06307170       0.99100535       0.45761378
C        1.35767158       0.35823125       1.04976658
O        1.74191260       0.55467831       2.17848557
C        1.89965252      -0.61943933       0.12777227
O        1.46426691      -1.10081375      -0.99510903
H       -2.62610334       0.48232199      -0.65660615
H       -2.14868630      -1.12373919      -1.17058040
H       -1.31339887       0.29248344      -1.81013955
H        0.30413140      -1.24485770      -0.72384668
H       -1.17160628      -0.65407399       1.13281595
H        0.25014981       1.58254680      -0.44099361
H       -0.24670708       1.69629932       1.23119742
H        2.95008016      -0.87330193       0.30052784
15
Frame=7 idx=010511 GeodesicLength=0.821817306672095 rxn_smarts="[C:1]([C:2]([C:3]([C:4](=[O:5])[C:6](=[O:7])[H:15])([H:13])[H:14])([H:11])[H:12])([H:8])([H:9])[H:10]>>[C:1]([C@:2]1([H:12])[C:3]([H:13])([H:14])[C:4](=[O:5])[C@@:6]1([O:7][H:11])[H:15])([H:8])([H:9])[H:10]"
C       -1.75737029      -0.13568875      -0.90237873
C       -0.74311433      -0.22429641       0.21949489
C        0.06041578       0.99324019       0.45573879
C        1.36347176       0.38701748       1.03952712
O        1.75827864       0.58139690       2.16413583
C        1.89141548      -0.61662836       0.12967755
O        1.49808403      -1.07725248      -1.01645997
H       -2.61448017       0.49032458      -0.63207702
H       -2.16080040      -1.11581734      -1.16418180
H       -1.32169775       0.29664697      -1.80619244
H        0.30203629      -1.26128300      -0.75549066
H       -1.15280215      -0.67281580       1.12295118
H        0.23203447       1.59452990      -0.43963858
H       -0.27049867       1.69323384       1.22520496
H        2.91502731      -0.93260772       0.35968888
15
Frame=8 idx=010511 GeodesicLength=0.9395490678748394 rxn_smarts="[C:1]([C:2]([C:3]([C:4](=[O:5])[C:6](=[O:7])[H:15])([H:13])[H:14])([H:11])[H:12])([H:8])([H:9])[H:10]>>[C:1]([C@:2]1([H:12])[C:3]([H:13])([H:14])[C:4](=[O:5])[C@@:6]1([O:7][H:11])[H:15])([H:8])([H:9])[H:10]"
C       -1.75485820      -0.13400079      -0.89466007
C       -0.72037736      -0.24370463       0.20924833
C        0.05804576       0.99562254       0.45434511
C        1.36924415       0.41544956       1.02899113
O        1.77543296       0.60760035       2.14910594
C        1.88316259      -0.61305145       0.13085816
O        1.53289770      -1.05448793      -1.03592540
H       -2.60214394       0.49752331      -0.60819963
H       -2.17144612      -1.10822605      -1.15719899
H       -1.32914575       0.30065367      -1.80223705
H        0.29939891      -1.27837100      -0.78625338
H       -1.13346318      -0.69106861       1.11244409
H        0.21393107       1.60667030      -0.43748208
H       -0.29354009       1.68931242       1.22017530
H        2.87286149      -0.98992168       0.41678853
15
Frame=9 idx=010511 GeodesicLength=1.0575359300059959 rxn_smarts="[C:1]([C:2]([C:3]([C:4](=[O:5])[C:6](=[O:7])[H:15])([H:13])[H:14])([H:11])[H:12])([H:8])([H:9])[H:10]>>[C:1]([C@:2]1([H:12])[C:3]([H:13])([H:14])[C:4](=[O:5])[C@@:6]1([O:7][H:11])[H:15])([H:8])([H:9])[H:10]"
C       -1.75141764      -0.13248370      -0.88703411
C       -0.69725602      -0.26204387       0.19858665
C        0.05593884       0.99817692       0.45345600
C        1.37495530       0.44354942       1.01818287
O        1.79340665       0.63320000       2.13337857
C        1.87514018      -0.60839288       0.13105760
O        1.56880913      -1.03234281      -1.05374276
H       -2.58909971       0.50394834      -0.58502737
H       -2.18060339      -1.10101379      -1.14965561
H       -1.33567298       0.30441450      -1.79827969
H        0.29616466      -1.29638388      -0.81575979
H       -1.11355219      -0.70884295       1.10134838
H        0.19575911       1.61899526      -0.43447411
H       -0.31581543       1.68457458       1.21615990
H        2.82324348      -1.04535513       0.47180347
15
Frame=10 idx=010511 GeodesicLength=1.1758358071349122 rxn_smarts="[C:1]([C:2]([C:3]([C:4](=[O:5])[C:6](=[O:7])[H:15])([H:13])[H:14])([H:11])[H:12])([H:8])([H:9])[H:10]>>[C:1]([C@:2]1([H:12])[C:3]([H:13])([H:14])[C:4](=[O:5])[C@@:6]1([O:7][H:11])[H:15])([H:8])([H:9])[H:10]"
C       -1.74707600      -0.13106007      -0.87960429
C       -0.67393330      -0.27932901       0.18762722
C        0.05411265       1.00080514       0.45312088
C        1.38046518       0.47103934       1.00734805
O        1.81199659       0.65771281       2.11722164
C        1.86734667      -0.60293010       0.13045555
O        1.60571246      -1.01106571      -1.06981935
H       -2.57531034       0.50992171      -0.56285732
H       -2.18846777      -1.09406214      -1.14162872
H       -1.34104994       0.30778718      -1.79442334
H        0.29199024      -1.31593520      -0.84334063
H       -1.09342147      -0.72599030       1.08978781
H        0.17771301       1.63131600      -0.43058587
H       -0.33722433       1.67906816       1.21313932
H        2.76714636      -1.09727781       0.52355906
15
Frame=11 idx=010511 GeodesicLength=1.2944607694437615 rxn_smarts="[C:1]([C:2]([C:3]([C:4](=[O:5])[C:6](=[O:7])[H:15])([H:13])[H:14])([H:11])[H:12])([H:8])([H:9])[H:10]>>[C:1]([C@:2]1([H:12])[C:3]([H:13])([H:14])[C:4](=[O:5])[C@@:6]1([O:7][H:11])[H:15])([H:8])([H:9])[H:10]"
C       -1.74190032      -0.12963096      -0.87247260
C       -0.65063237      -0.29558485       0.17649016
C        0.05255176       1.00341116       0.45337453
C        1.38562901       0.49765218       0.99671862
O        1.83091122       0.68060785       2.10092750
C        1.85966862      -0.59701276       0.12925964
O        1.64347036      -0.99081684      -1.08407694
H       -2.56077353       0.51580193      -0.54199528
H       -2.19528392      -1.08721202      -1.13318761
H       -1.34508219       0.31063708      -1.79077475
H        0.28646807      -1.33765101      -0.86834695
H       -1.07347424      -0.74234669       1.07788103
H        0.15995967       1.64345080      -0.42580388
H       -0.35772516       1.67286303       1.21105109
H        2.70621302      -1.14416890       0.57095545
15
Frame=12 idx=010511 GeodesicLength=1.4134507514425692 rxn_smarts="[C:1]([C:2]([C:3]([C:4](=[O:5])[C:6](=[O:7])[H:15])([H:13])[H:14])([H:11])[H:12])([H:8])([H:9])[H:10]>>[C:1]([C@:2]1([H:12])[C:3]([H:13])([H:14])[C:4](=[O:5])[C@@:6]1([O:7][H:11])[H:15])([H:8])([H:9])[H:10]"
C       -1.73597692      -0.12813257      -0.86571785
C       -0.62750165      -0.31085258       0.16526435
C        0.05120755       1.00597930       0.45423054
C        1.39036735       0.52329670       0.98644016
O        1.84993122       0.70157035       2.08472491
C        1.85204380      -0.59078771       0.12751248
O        1.68206041      -0.97151863      -1.09661391
H       -2.54555254       0.52181666      -0.52260843
H       -2.20123649      -1.08037299      -1.12441608
H       -1.34771477       0.31290911      -1.78744516
H        0.27926572      -1.36202973      -0.89030582
H       -1.05394449      -0.75784246       1.06574128
H        0.14252653       1.65536396      -0.42014356
H       -0.37735929       1.66606880       1.20985649
H        2.64188357      -1.18546822       0.61348060
15
Frame=13 idx=010511 GeodesicLength=1.5327773021786864 rxn_smarts="[C:1]([C:2]([C:3]([C:4](=[O:5])[C:6](=[O:7])[H:15])([H:13])[H:14])([H:11])[H:12])([H:8])([H:9])[H:10]>>[C:1]([C@:2]1([H:12])[C:3]([H:13])([H:14])[C:4](=[O:5])[C@@:6]1([O:7][H:11])[H:15])([H:8])([H:9])[H:10]"
C       -1.72938113      -0.12648140      -0.85937484
C       -0.60468903      -0.32517280       0.15399249
C        0.05002494       1.00843291       0.45565596
C        1.39456774       0.54785820       0.97659551
O        1.86878225       0.72032565       2.06870789
C        1.84435503      -0.58435665       0.12522805
O        1.72152001      -0.95298135      -1.10746361
H       -2.52968020       0.52815831      -0.50479586
H       -2.20651838      -1.07336339      -1.11534539
H       -1.34887896       0.31457664      -1.78444897
H        0.27002416      -1.38943919      -0.90872974
H       -1.03508560      -0.77240580       1.05338029
H        0.12546061       1.66694380      -0.41361120
H       -0.39620886       1.65868018       1.20942021
H        2.57570744      -1.22077511       0.65078919
15
Frame=14 idx=010511 GeodesicLength=1.652432220423982 rxn_smarts="[C:1]([C:2]([C:3]([C:4](=[O:5])[C:6](=[O:7])[H:15])([H:13])[H:14])([H:11])[H:12])([H:8])([H:9])[H:10]>>[C:1]([C@:2]1([H:12])[C:3]([H:13])([H:14])[C:4](=[O:5])[C@@:6]1([O:7][H:11])[H:15])([H:8])([H:9])[H:10]"
C       -1.72219711      -0.12463273      -0.85356801
C       -0.58234612      -0.33858814       0.14278595
C        0.04892008       1.01081459       0.45770489
C        1.39818435       0.57130431       0.96732134
O        1.88733005       0.73666784       2.05309609
C        1.83649737      -0.57777304       0.12232622
O        1.76179035      -0.93486626      -1.11686088
H       -2.51324871       0.53503377      -0.48881328
H       -2.21127614      -1.06613783      -1.10612110
H       -1.34850449       0.31556180      -1.78196208
H        0.25832267      -1.42043172      -0.92303468
H       -1.01713260      -0.78596154       1.04095005
H        0.10870301       1.67826359      -0.40618978
H       -0.41435898       1.65085098       1.20978135
H        2.50931627      -1.25010561       0.68258392
15
Frame=15 idx=010511 GeodesicLength=1.7723389453913132 rxn_smarts="[C:1]([C:2]([C:3]([C:4](=[O:5])[C:6](=[O:7])[H:15])([H:13])[H:14])([H:11])[H:12])([H:8])([H:9])[H:10]>>[C:1]([C@:2]1([H:12])[C:3]([H:13])([H:14])[C:4](=[O:5])[C@@:6]1([O:7][H:11])[H:15])([H:8])([H:9])[H:10]"
C       -1.71446583      -0.12252728      -0.84836227
C       -0.56059274      -0.35114275       0.13169802
C        0.04780777       1.01308463       0.46037756
C        1.40113728       0.59357887       0.95866161
O        1.90542714       0.75047841       2.03789703
C        1.82834367      -0.57102780       0.11867681
O        1.80294104      -0.91669979      -1.12496370
H       -2.49628924       0.54259035      -0.47481376
H       -2.21562986      -1.05854822      -1.09682418
H       -1.34648301       0.31581875      -1.78003299
H        0.24374372      -1.45536745      -0.93259267
H       -1.00030623      -0.79844267       1.02847772
H        0.09220933       1.68929540      -0.39784193
H       -0.43193866       1.64256947       1.21088210
H        2.44409562      -1.27365991       0.70876065
15
Frame=16 idx=010511 GeodesicLength=1.8924221040755556 rxn_smarts="[C:1]([C:2]([C:3]([C:4](=[O:5])[C:6](=[O:7])[H:15])([H:13])[H:14])([H:11])[H:12])([H:8])([H:9])[H:10]>>[C:1]([C@:2]1([H:12])[C:3]([H:13])([H:14])[C:4](=[O:5])[C@@:6]1([O:7][H:11])[H:15])([H:8])([H:9])[H:10]"
C       -1.70624232      -0.12011008      -0.84388677
C       -0.53956372      -0.36290646       0.12079694
C        0.04659267       1.01523777       0.46371646
C        1.40336138       0.61462110       0.95069960
O        1.92302167       0.76170292       2.02316642
C        1.81974403      -0.56414613       0.11410253
O        1.84502162      -0.89797127      -1.13200410
H       -2.47884883       0.55100642      -0.46302395
H       -2.21971332      -1.05048501      -1.08763331
H       -1.34271229       0.31531291      -1.77880243
H        0.22576506      -1.49468831      -0.93666959
H       -0.98484460      -0.80981065       1.01603963
H        0.07589821       1.70009092      -0.38851544
H       -0.44906883       1.63387531       1.21275626
H        2.38158926      -1.29172944       0.72925775
