12
Frame=0 idx=011171 GeodesicLength=0.0 rxn_smarts="[N:1]([c:2]1[n:3][c:4]([O:5][H:10])[c:6]([H:11])[n:7]1[H:12])([H:8])[H:9]>>[N-:1]([C+:2]1[N-:3][C+:4]([O:5][H:10])[C-:6]([H:11])[N+:7]1([H:9])[H:12])[H:8]"
N       -1.94656382      -0.71721552       0.67736564
C       -0.68000545      -0.41195273       0.56284582
N        0.51798064      -0.90951161       0.63625176
C        1.24182798      -0.11485015      -0.24932893
O        2.51543529      -0.42850279      -0.48025043
C        0.54881727       0.89013639      -0.83404173
N       -0.75102328       0.86141883      -0.18550305
H       -2.23951767      -1.58576393       1.09492725
H       -1.91656333       0.31484394      -0.24744641
H        2.70852812      -1.21383141       0.04174427
H        0.85691912       1.68279354      -1.48926777
H       -0.85583484       1.63243544       0.47270359
12
Frame=1 idx=011171 GeodesicLength=0.04189616329448095 rxn_smarts="[N:1]([c:2]1[n:3][c:4]([O:5][H:10])[c:6]([H:11])[n:7]1[H:12])([H:8])[H:9]>>[N-:1]([C+:2]1[N-:3][C+:4]([O:5][H:10])[C-:6]([H:11])[N+:7]1([H:9])[H:12])[H:8]"
N       -1.94622119      -0.71373043       0.68593412
C       -0.67914698      -0.39986222       0.57994130
N        0.51530797      -0.91065278       0.63391942
C        1.24199612      -0.11577052      -0.24606500
O        2.51502227      -0.43216108      -0.47884830
C        0.54947321       0.88855516      -0.83298305
N       -0.74782371       0.86392098      -0.18257423
H       -2.22176109      -1.60035234       1.07730639
H       -1.92673170       0.31775156      -0.24795131
H        2.70545763      -1.22089968       0.03894477
H        0.85700140       1.67951952      -1.49055787
H       -0.86257393       1.64368184       0.46293377
12
Frame=2 idx=011171 GeodesicLength=0.0837921446828296 rxn_smarts="[N:1]([c:2]1[n:3][c:4]([O:5][H:10])[c:6]([H:11])[n:7]1[H:12])([H:8])[H:9]>>[N-:1]([C+:2]1[N-:3][C+:4]([O:5][H:10])[C-:6]([H:11])[N+:7]1([H:9])[H:12])[H:8]"
N       -1.94555755      -0.71063397       0.69440796
C       -0.67811141      -0.38795534       0.59674221
N        0.51271997      -0.91120825       0.63218195
C        1.24231723      -0.11636688      -0.24239699
O        2.51429550      -0.43648077      -0.47817156
C        0.55020577       0.88718895      -0.83158580
N       -0.74468051       0.86626060      -0.17958605
H       -2.20366408      -1.61366683       1.05955984
H       -1.93694971       0.32004299      -0.24871699
H        2.70216811      -1.22817134       0.03601087
H        0.85712705       1.67653500      -1.49140532
H       -0.86987038       1.65445585       0.45295987
12
Frame=3 idx=011171 GeodesicLength=0.12569298704439197 rxn_smarts="[N:1]([c:2]1[n:3][c:4]([O:5][H:10])[c:6]([H:11])[n:7]1[H:12])([H:8])[H:9]>>[N-:1]([C+:2]1[N-:3][C+:4]([O:5][H:10])[C-:6]([H:11])[N+:7]1([H:9])[H:12])[H:8]"
N       -1.94482891      -0.70817867       0.70185451
C       -0.67708040      -0.37672704       0.61247688
N        0.50997790      -0.91193787       0.62997830
C        1.24268342      -0.11701596      -0.23890607
O        2.51381722      -0.44041054      -0.47703596
C        0.55108971       0.88610962      -0.82994281
N       -0.74153320       0.86840845      -0.17665720
H       -2.18561390      -1.62510566       1.04419592
H       -1.94726063       0.32190270      -0.25020182
H        2.69874610      -1.23566613       0.03265864
H        0.85750059       1.67420145      -1.49151955
H       -0.87749792       1.66441965       0.44309917
12
Frame=4 idx=011171 GeodesicLength=0.16763544862344026 rxn_smarts="[N:1]([c:2]1[n:3][c:4]([O:5][H:10])[c:6]([H:11])[n:7]1[H:12])([H:8])[H:9]>>[N-:1]([C+:2]1[N-:3][C+:4]([O:5][H:10])[C-:6]([H:11])[N+:7]1([H:9])[H:12])[H:8]"
N       -1.94379710      -0.70617650       0.70895322
C       -0.67592595      -0.36554454       0.62799869
N        0.50751464      -0.91163120       0.62898170
C        1.24333022      -0.11708098      -0.23462468
O        2.51315764      -0.44473759      -0.47616430
C        0.55217138       0.88539167      -0.82781171
N       -0.73847046       0.87045384      -0.17379853
H       -2.16710145      -1.63564487       1.02911739
H       -1.95756165       0.32297421      -0.25232194
H        2.69460068      -1.24425657       0.02806659
H        0.85804246       1.67222387      -1.49115802
H       -0.88596042       1.67402867       0.43276158
12
Frame=5 idx=011171 GeodesicLength=0.20958115042373462 rxn_smarts="[N:1]([c:2]1[n:3][c:4]([O:5][H:10])[c:6]([H:11])[n:7]1[H:12])([H:8])[H:9]>>[N-:1]([C+:2]1[N-:3][C+:4]([O:5][H:10])[C-:6]([H:11])[N+:7]1([H:9])[H:12])[H:8]"
N       -1.94269406      -0.70456069       0.71541233
C       -0.67477222      -0.35484017       0.64276266
N        0.50502078      -0.91124270       0.62791835
C        1.24399010      -0.11723414      -0.23052466
O        2.51253885      -0.44905889      -0.47529323
C        0.55336362       0.88488894      -0.82547390
N       -0.73537645       0.87241257      -0.17088509
H       -2.14861179      -1.64495698       1.01537858
H       -1.96796742       0.32374662      -0.25489011
H        2.69039419      -1.25282804       0.02338569
H        0.85873359       1.67065710      -1.49032748
H       -0.89461919       1.68301638       0.42253686
12
Frame=6 idx=011171 GeodesicLength=0.2515512727634616 rxn_smarts="[N:1]([c:2]1[n:3][c:4]([O:5][H:10])[c:6]([H:11])[n:7]1[H:12])([H:8])[H:9]>>[N-:1]([C+:2]1[N-:3][C+:4]([O:5][H:10])[C-:6]([H:11])[N+:7]1([H:9])[H:12])[H:8]"
N       -1.94140980      -0.70324316       0.72157771
C       -0.67356836      -0.34430530       0.65720013
N        0.50271931      -0.91024001       0.62757197
C        1.24473160      -0.11725365      -0.22623552
O        2.51187729      -0.45348532      -0.47443927
C        0.55466696       0.88459250      -0.82286811
N       -0.73228895       0.87432674      -0.16792258
H       -2.12991952      -1.65347723       1.00197060
H       -1.97843708       0.32406800      -0.25782844
H        2.68578468      -1.26191303       0.01803891
H        0.85951693       1.66932828      -1.48919754
H       -0.90367305       1.69160218       0.41213215
12
Frame=7 idx=011171 GeodesicLength=0.29351401212953276 rxn_smarts="[N:1]([c:2]1[n:3][c:4]([O:5][H:10])[c:6]([H:11])[n:7]1[H:12])([H:8])[H:9]>>[N-:1]([C+:2]1[N-:3][C+:4]([O:5][H:10])[C-:6]([H:11])[N+:7]1([H:9])[H:12])[H:8]"
N       -1.94010742      -0.70211819       0.72735728
C       -0.67236548      -0.33426957       0.67095237
N        0.50035378      -0.90940197       0.62692300
C        1.24532269      -0.11768858      -0.22257581
O        2.51118923      -0.45800784      -0.47384376
C        0.55597441       0.88435592      -0.82024021
N       -0.72911360       0.87621274      -0.16476903
H       -2.11143338      -1.66099443       0.98935824
H       -1.98908667       0.32437370      -0.26085723
H        2.68150559      -1.27033211       0.01341903
H        0.86033093       1.66825222      -1.48779105
H       -0.91257008       1.69961810       0.40206718
12
Frame=8 idx=011171 GeodesicLength=0.3355112599016901 rxn_smarts="[N:1]([c:2]1[n:3][c:4]([O:5][H:10])[c:6]([H:11])[n:7]1[H:12])([H:8])[H:9]>>[N-:1]([C+:2]1[N-:3][C+:4]([O:5][H:10])[C-:6]([H:11])[N+:7]1([H:9])[H:12])[H:8]"
N       -1.93857784      -0.70138647       0.73264759
C       -0.67114534      -0.32417233       0.68455028
N        0.49835250      -0.90747683       0.62759911
C        1.24622793      -0.11750744      -0.21802391
O        2.51080176      -0.46200626      -0.47220984
C        0.55753216       0.88445874      -0.81715675
N       -0.72601086       0.87803735      -0.16178258
H       -2.09250826      -1.66788770       0.97763422
H       -1.99968805       0.32380634      -0.26477607
H        2.67593115      -1.28067671       0.00615953
H        0.86141708       1.66749488      -1.48593997
H       -0.92233221       1.70731644       0.39129839
12
Frame=9 idx=011171 GeodesicLength=0.37750322271270376 rxn_smarts="[N:1]([c:2]1[n:3][c:4]([O:5][H:10])[c:6]([H:11])[n:7]1[H:12])([H:8])[H:9]>>[N-:1]([C+:2]1[N-:3][C+:4]([O:5][H:10])[C-:6]([H:11])[N+:7]1([H:9])[H:12])[H:8]"
N       -1.93710953      -0.70071148       0.73767221
C       -0.66993577      -0.31467543       0.69743903
N        0.49619339      -0.90609313       0.62751090
C        1.24682789      -0.11807420      -0.21455823
O        2.51022863      -0.46641682      -0.47137178
C        0.55900211       0.88450740      -0.81422840
N       -0.72275476       0.87989971      -0.15846095
H       -2.07403669      -1.67392872       0.96643439
H       -2.01055018       0.32355572      -0.26846940
H        2.67126970      -1.28945502       0.00079883
H        0.86244112       1.66692094      -1.48395104
H       -0.93157591       1.71447103       0.38118445
12
Frame=10 idx=011171 GeodesicLength=0.4195157723276484 rxn_smarts="[N:1]([c:2]1[n:3][c:4]([O:5][H:10])[c:6]([H:11])[n:7]1[H:12])([H:8])[H:9]>>[N-:1]([C+:2]1[N-:3][C+:4]([O:5][H:10])[C-:6]([H:11])[N+:7]1([H:9])[H:12])[H:8]"
N       -1.93546960      -0.70033004       0.74227309
C       -0.66872679      -0.30517823       0.71015296
N        0.49432823      -0.90391255       0.62843885
C        1.24762677      -0.11826932      -0.21056773
O        2.50978355      -0.47063352      -0.47003207
C        0.56066772       0.88483394      -0.81093559
N       -0.71951680       0.88175705      -0.15518407
H       -2.05527156      -1.67942928       0.95592734
H       -2.02141066       0.32265104      -0.27284665
H        2.66573014      -1.29941456      -0.00624824
H        0.86368004       1.66662599      -1.48158314
H       -0.94142104       1.72129947       0.37060524
12
Frame=11 idx=011171 GeodesicLength=0.4615600009112789 rxn_smarts="[N:1]([c:2]1[n:3][c:4]([O:5][H:10])[c:6]([H:11])[n:7]1[H:12])([H:8])[H:9]>>[N-:1]([C+:2]1[N-:3][C+:4]([O:5][H:10])[C-:6]([H:11])[N+:7]1([H:9])[H:12])[H:8]"
N       -1.93367056      -0.70020354       0.74651965
C       -0.66752867      -0.29568883       0.72273506
N        0.49275788      -0.90104745       0.63027957
C        1.24856822      -0.11820807      -0.20619501
O        2.50909991      -0.47532457      -0.46912554
C        0.56250752       0.88543696      -0.80728489
N       -0.71626856       0.88366453      -0.15184963
H       -2.03626860      -1.68447656       0.94578112
H       -2.03227252       0.32119992      -0.27777517
H        2.65969944      -1.30981750      -0.01396748
H        0.86511442       1.66664383      -1.47882000
H       -0.95173848       1.72782129       0.35970232
12
Frame=12 idx=011171 GeodesicLength=0.50362313250515 rxn_smarts="[N:1]([c:2]1[n:3][c:4]([O:5][H:10])[c:6]([H:11])[n:7]1[H:12])([H:8])[H:9]>>[N-:1]([C+:2]1[N-:3][C+:4]([O:5][H:10])[C-:6]([H:11])[N+:7]1([H:9])[H:12])[H:8]"
N       -1.93154100      -0.70041689       0.75036545
C       -0.66634233      -0.28580545       0.73549723
N        0.49175238      -0.89671929       0.63407817
C        1.24992513      -0.11727868      -0.20053174
O        2.50824789      -0.48023251      -0.46801927
C        0.56466074       0.88646080      -0.80296371
N       -0.71308838       0.88558987      -0.14863371
H       -2.01651536      -1.68924908       0.93591442
H       -2.04295779       0.31864084      -0.28372640
H        2.65205630      -1.32204983      -0.02430904
H        0.86687819       1.66696470      -1.47547821
H       -0.96307577       1.73409553       0.34780680
12
Frame=13 idx=011171 GeodesicLength=0.5457288738554519 rxn_smarts="[N:1]([c:2]1[n:3][c:4]([O:5][H:10])[c:6]([H:11])[n:7]1[H:12])([H:8])[H:9]>>[N-:1]([C+:2]1[N-:3][C+:4]([O:5][H:10])[C-:6]([H:11])[N+:7]1([H:9])[H:12])[H:8]"
N       -1.92923467      -0.70088020       0.75385271
C       -0.66520384      -0.27585902       0.74817476
N        0.49107125      -0.89166658       0.63885609
C        1.25147579      -0.11601084      -0.19437497
O        2.50718752      -0.48552722      -0.46715396
C        0.56702614       0.88779319      -0.79824558
N       -0.70989245       0.88758696      -0.14537583
H       -1.99642973      -1.69360366       0.92652130
H       -2.05358434       0.31540207      -0.29034578
H        2.64361528      -1.33489453      -0.03567589
H        0.86889886       1.66763099      -1.47169451
H       -0.97492980       1.74002884       0.33546167
12
Frame=14 idx=011171 GeodesicLength=0.5878487314071281 rxn_smarts="[N:1]([c:2]1[n:3][c:4]([O:5][H:10])[c:6]([H:11])[n:7]1[H:12])([H:8])[H:9]>>[N-:1]([C+:2]1[N-:3][C+:4]([O:5][H:10])[C-:6]([H:11])[N+:7]1([H:9])[H:12])[H:8]"
N       -1.92679291      -0.70149809       0.75703765
C       -0.66410265      -0.26595505       0.76066694
N        0.49060745      -0.88619475       0.64419170
C        1.25312518      -0.11461377      -0.18802848
O        2.50596754      -0.49107758      -0.46647417
C        0.56953546       0.88932963      -0.79325457
N       -0.70663671       0.88965177      -0.14200736
H       -1.97618436      -1.69748054       0.91762528
H       -2.06419526       0.31165662      -0.29746392
H        2.63461846      -1.34794438      -0.04761141
H        0.87110564       1.66856881      -1.46753225
H       -0.98704785       1.74555730       0.32285060
12
Frame=15 idx=011171 GeodesicLength=0.6299674581189536 rxn_smarts="[N:1]([c:2]1[n:3][c:4]([O:5][H:10])[c:6]([H:11])[n:7]1[H:12])([H:8])[H:9]>>[N-:1]([C+:2]1[N-:3][C+:4]([O:5][H:10])[C-:6]([H:11])[N+:7]1([H:9])[H:12])[H:8]"
N       -1.92430944      -0.70215959       0.76001107
C       -0.66302316      -0.25630553       0.77282585
N        0.49018696      -0.88080400       0.64941303
C        1.25470774      -0.11344805      -0.18202157
O        2.50458178      -0.49689241      -0.46620789
C        0.57207112       0.89092510      -0.78821854
N       -0.70325910       0.89180794      -0.13839919
H       -1.95610116      -1.70082721       0.90915492
H       -2.07490116       0.30776282      -0.30474809
H        2.62570970      -1.36041204      -0.05901469
H        0.87336732       1.66969798      -1.46315843
H       -0.99903059       1.75065498       0.31036353
12
Frame=16 idx=011171 GeodesicLength=0.6720801343219269 rxn_smarts="[N:1]([c:2]1[n:3][c:4]([O:5][H:10])[c:6]([H:11])[n:7]1[H:12])([H:8])[H:9]>>[N-:1]([C+:2]1[N-:3][C+:4]([O:5][H:10])[C-:6]([H:11])[N+:7]1([H:9])[H:12])[H:8]"
N       -1.92184809      -0.70277669       0.76285134
C       -0.66193960      -0.24704286       0.78457849
N        0.48969964      -0.87581551       0.65409154
C        1.25612884      -0.11272120      -0.17666248
O        2.50317551      -0.50273330      -0.46621039
C        0.57453909       0.89245998      -0.78330655
N       -0.69972733       0.89407325      -0.13446439
H       -1.93639880      -1.70361188       0.90100649
H       -2.08580449       0.30397918      -0.31195230
H        2.61726866      -1.37201724      -0.06940264
H        0.87553756       1.67087526      -1.45879086
H       -1.01063098       1.75533101       0.29826176
