15
Frame=0 idx=011846 GeodesicLength=0.0 rxn_smarts="[C:1]([C:2]#[C:3][C:4]([C:5](=[O:6])[C:7]([H:13])([H:14])[H:15])([H:11])[H:12])([H:8])([H:9])[H:10]>>[C:1]([C:2]#[C:3][C@:4]([C:5](=[O:6])[H:12])([C:7]([H:13])([H:14])[H:15])[H:11])([H:8])([H:9])[H:10]"
C        3.01426462       0.47923273      -0.39264575
C        1.73104868      -0.06000008       0.01639506
C        0.66164261      -0.51195299       0.35036577
C       -0.56755985      -1.02933047       0.74390100
C       -1.81612850      -0.84106168       0.02556888
O       -2.90406812      -1.41473113       0.36030423
C       -1.97053103       0.78240146      -0.03843079
H        3.77869400       0.28905976       0.36093588
H        2.93763623       1.55667885      -0.55021918
H        3.33147727       0.02601932      -1.33396752
H       -0.59471639      -1.61934086       1.65936876
H       -1.48391979      -0.99021968      -1.04949543
H       -2.82115561       0.93019197      -0.69733787
H       -2.21715947       1.12441902       0.96374941
H       -1.07952465       1.27863373      -0.41849244
15
Frame=1 idx=011846 GeodesicLength=0.10291280169473645 rxn_smarts="[C:1]([C:2]#[C:3][C:4]([C:5](=[O:6])[C:7]([H:13])([H:14])[H:15])([H:11])[H:12])([H:8])([H:9])[H:10]>>[C:1]([C:2]#[C:3][C@:4]([C:5](=[O:6])[H:12])([C:7]([H:13])([H:14])[H:15])[H:11])([H:8])([H:9])[H:10]"
C        3.01618440       0.47789289      -0.39500355
C        1.72479865      -0.04800542       0.00688600
C        0.65420748      -0.50908901       0.32166737
C       -0.57938240      -1.02601999       0.71244508
C       -1.84065449      -0.85166794       0.01177952
O       -2.91728210      -1.43562247       0.34156631
C       -1.96279385       0.78626812      -0.00572240
H        3.74681968       0.38444495       0.40878680
H        2.92762606       1.53182298      -0.66524871
H        3.39028359      -0.05975672      -1.26856733
H       -0.60308782      -1.61523932       1.62873458
H       -1.45422423      -1.00542185      -1.05931391
H       -2.81133168       0.96012335      -0.66171574
H       -2.20994940       1.10681813       1.00358928
H       -1.08121389       1.30345231      -0.37988329
15
Frame=2 idx=011846 GeodesicLength=0.20583277960892074 rxn_smarts="[C:1]([C:2]#[C:3][C:4]([C:5](=[O:6])[C:7]([H:13])([H:14])[H:15])([H:11])[H:12])([H:8])([H:9])[H:10]>>[C:1]([C:2]#[C:3][C@:4]([C:5](=[O:6])[H:12])([C:7]([H:13])([H:14])[H:15])[H:11])([H:8])([H:9])[H:10]"
C        3.02126620       0.47448623      -0.39713451
C        1.71825860      -0.03133693      -0.00584588
C        0.64600323      -0.49759543       0.29276388
C       -0.59042187      -1.01823557       0.68037756
C       -1.86425310      -0.86150892      -0.00351520
O       -2.92726636      -1.45904717       0.32331823
C       -1.95944386       0.78916142       0.02707288
H        3.71294191       0.47619709       0.44571894
H        2.93343320       1.49443270      -0.77611428
H        3.44686594      -0.14031380      -1.19275991
H       -0.60843539      -1.60884571       1.59612434
H       -1.42512045      -1.02115407      -1.06909227
H       -2.80690676       0.98637087      -0.62445380
H       -2.20766952       1.08690169       1.04328657
H       -1.08925177       1.33048761      -0.33974653
15
Frame=3 idx=011846 GeodesicLength=0.30869877301845794 rxn_smarts="[C:1]([C:2]#[C:3][C:4]([C:5](=[O:6])[C:7]([H:13])([H:14])[H:15])([H:11])[H:12])([H:8])([H:9])[H:10]>>[C:1]([C:2]#[C:3][C@:4]([C:5](=[O:6])[H:12])([C:7]([H:13])([H:14])[H:15])[H:11])([H:8])([H:9])[H:10]"
C        3.02361957       0.47296616      -0.39885610
C        1.71096637      -0.01824694      -0.01986229
C        0.63821090      -0.49150439       0.26300728
C       -0.60239625      -1.01226641       0.64812508
C       -1.88792315      -0.87019717      -0.01959291
O       -2.93830498      -1.47821280       0.30690042
C       -1.95185012       0.79210248       0.05893188
H        3.67297184       0.57540054       0.47112152
H        2.93883071       1.44734704      -0.88362436
H        3.50002733      -0.20921431      -1.10580490
H       -0.61556570      -1.60506352       1.56274415
H       -1.39866401      -1.04055351      -1.07825961
H       -2.79824494       1.01415936      -0.58672846
H       -2.19971879       1.06810489       1.08156565
H       -1.09195880       1.35517859      -0.29966736
15
Frame=4 idx=011846 GeodesicLength=0.411554401838094 rxn_smarts="[C:1]([C:2]#[C:3][C:4]([C:5](=[O:6])[C:7]([H:13])([H:14])[H:15])([H:11])[H:12])([H:8])([H:9])[H:10]>>[C:1]([C:2]#[C:3][C@:4]([C:5](=[O:6])[H:12])([C:7]([H:13])([H:14])[H:15])[H:11])([H:8])([H:9])[H:10]"
C        3.02636411       0.47131071      -0.40019640
C        1.70325816      -0.00489286      -0.03708590
C        0.63014246      -0.48380354       0.23196036
C       -0.61434875      -1.00477122       0.61562093
C       -1.91131065      -0.87794899      -0.03625427
O       -2.94824538      -1.49671270       0.29223687
C       -1.94452410       0.79461161       0.09015338
H        3.63010914       0.67302759       0.48522633
H        2.95266302       1.39090125      -0.98372761
H        3.54892197      -0.26771620      -1.01080675
H       -0.62169669      -1.60065199       1.52850210
H       -1.37405622      -1.06251165      -1.08687845
H       -2.79033679       1.04052778      -0.54835156
H       -2.19157768       1.04899624       1.11879741
H       -1.09536260       1.37963396      -0.25919643
15
Frame=5 idx=011846 GeodesicLength=0.5144069585776015 rxn_smarts="[C:1]([C:2]#[C:3][C:4]([C:5](=[O:6])[C:7]([H:13])([H:14])[H:15])([H:11])[H:12])([H:8])([H:9])[H:10]>>[C:1]([C:2]#[C:3][C@:4]([C:5](=[O:6])[H:12])([C:7]([H:13])([H:14])[H:15])[H:11])([H:8])([H:9])[H:10]"
C        3.02830867       0.47009883      -0.40147864
C        1.69535538       0.00723041      -0.05569699
C        0.62203844      -0.47654807       0.20086633
C       -0.62667723      -0.99687998       0.58326407
C       -1.93432356      -0.88455240      -0.05378957
O       -2.95770299      -1.51365099       0.27789180
C       -1.93597611       0.79693575       0.12090006
H        3.58445034       0.77122902       0.48697843
H        2.97121437       1.32547397      -1.07721542
H        3.59258635      -0.31518830      -0.90835674
H       -0.62829772      -1.59683395       1.49369656
H       -1.35054441      -1.08696641      -1.09502528
H       -2.78099272       1.06662342      -0.50978714
H       -2.18226030       1.02964627       1.15508821
H       -1.09717851       1.40338244      -0.21733568
15
Frame=6 idx=011846 GeodesicLength=0.6172548411789749 rxn_smarts="[C:1]([C:2]#[C:3][C:4]([C:5](=[O:6])[C:7]([H:13])([H:14])[H:15])([H:11])[H:12])([H:8])([H:9])[H:10]>>[C:1]([C:2]#[C:3][C@:4]([C:5](=[O:6])[H:12])([C:7]([H:13])([H:14])[H:15])[H:11])([H:8])([H:9])[H:10]"
C        3.02979814       0.46918489      -0.40259718
C        1.68728774       0.01838246      -0.07637343
C        0.61378511      -0.46922523       0.16913095
C       -0.63923665      -0.98825843       0.55105528
C       -1.95705259      -0.89009013      -0.07187522
O       -2.96656109      -1.52933418       0.26431242
C       -1.92665770       0.79903015       0.15102385
H        3.53704085       0.86702091       0.47711667
H        2.99530138       1.25279159      -1.16172196
H        3.63035038      -0.35099714      -0.80080186
H       -0.63489574      -1.59287633       1.45857823
H       -1.32826477      -1.11419880      -1.10240740
H       -2.77075309       1.09203419      -0.47121720
H       -2.17216195       1.01016640       1.19027071
H       -1.09798002       1.42636964      -0.17449384
15
Frame=7 idx=011846 GeodesicLength=0.720042148194198 rxn_smarts="[C:1]([C:2]#[C:3][C:4]([C:5](=[O:6])[C:7]([H:13])([H:14])[H:15])([H:11])[H:12])([H:8])([H:9])[H:10]>>[C:1]([C:2]#[C:3][C@:4]([C:5](=[O:6])[H:12])([C:7]([H:13])([H:14])[H:15])[H:11])([H:8])([H:9])[H:10]"
C        3.03073281       0.46860210      -0.40361807
C        1.67919064       0.02840026      -0.09867070
C        0.60538841      -0.46188467       0.13704044
C       -0.65204572      -0.97893959       0.51917543
C       -1.97945916      -0.89455313      -0.09048390
O       -2.97487089      -1.54373561       0.25111586
C       -1.91651308       0.80089805       0.18048326
H        3.48890636       0.95902102       0.45612213
H        3.02406441       1.17434944      -1.23628791
H        3.66155362      -0.37503594      -0.69026355
H       -0.64168325      -1.58861390       1.42340407
H       -1.30686619      -1.14424731      -1.10874530
H       -2.75937587       1.11677314      -0.43294820
H       -2.16145671       0.99054552       1.22423723
H       -1.09756538       1.44842062      -0.13056078
15
Frame=8 idx=011846 GeodesicLength=0.8227346734650807 rxn_smarts="[C:1]([C:2]#[C:3][C:4]([C:5](=[O:6])[C:7]([H:13])([H:14])[H:15])([H:11])[H:12])([H:8])([H:9])[H:10]>>[C:1]([C:2]#[C:3][C@:4]([C:5](=[O:6])[H:12])([C:7]([H:13])([H:14])[H:15])[H:11])([H:8])([H:9])[H:10]"
C        3.03146333       0.46785571      -0.40497701
C        1.67159044       0.03803311      -0.12032888
C        0.59687830      -0.45288559       0.10675934
C       -0.66504883      -0.96816003       0.48866852
C       -2.00096502      -0.89815700      -0.10984772
O       -2.98199481      -1.55770098       0.23698521
C       -1.90641729       0.80248141       0.20887264
H        3.44427895       1.04296144       0.42490061
H        3.05565180       1.09353545      -1.29905482
H        3.68457154      -0.38868744      -0.58277166
H       -0.64913865      -1.58298092       1.38942846
H       -1.28445213      -1.17697627      -1.11332424
H       -2.74728093       1.14012806      -0.39639596
H       -2.15225217       0.97067223       1.25632675
H       -1.09688455       1.46988083      -0.08524124
15
Frame=9 idx=011846 GeodesicLength=0.925471700227766 rxn_smarts="[C:1]([C:2]#[C:3][C:4]([C:5](=[O:6])[C:7]([H:13])([H:14])[H:15])([H:11])[H:12])([H:8])([H:9])[H:10]>>[C:1]([C:2]#[C:3][C@:4]([C:5](=[O:6])[H:12])([C:7]([H:13])([H:14])[H:15])[H:11])([H:8])([H:9])[H:10]"
C        3.03110434       0.46782828      -0.40643847
C        1.66397378       0.04572478      -0.14296338
C        0.58830884      -0.44526330       0.07612767
C       -0.67851688      -0.95769387       0.45799409
C       -2.02230930      -0.90029054      -0.13032206
O       -2.98930782      -1.56963476       0.22156454
C       -1.89469365       0.80399812       0.23755727
H        3.39762030       1.12672542       0.38187633
H        3.08999234       1.00527965      -1.35457143
H        3.70247532      -0.39052627      -0.47016964
H       -0.65755664      -1.57859591       1.35456924
H       -1.26283914      -1.21169120      -1.11703678
H       -2.73282491       1.16407709      -0.35926395
H       -2.14181889       0.95000644       1.28828678
H       -1.09360768       1.49005607      -0.03721020
15
Frame=10 idx=011846 GeodesicLength=1.0281828703529912 rxn_smarts="[C:1]([C:2]#[C:3][C:4]([C:5](=[O:6])[C:7]([H:13])([H:14])[H:15])([H:11])[H:12])([H:8])([H:9])[H:10]>>[C:1]([C:2]#[C:3][C@:4]([C:5](=[O:6])[H:12])([C:7]([H:13])([H:14])[H:15])[H:11])([H:8])([H:9])[H:10]"
C        3.03090452       0.46764447      -0.40769221
C        1.65648530       0.05312894      -0.16814436
C        0.57931995      -0.43604294       0.04414327
C       -0.69188538      -0.94581079       0.42750863
C       -2.04332795      -0.90163156      -0.15095695
O       -2.99567053      -1.58104200       0.20684819
C       -1.88324686       0.80527568       0.26553582
H        3.35334462       1.20200833       0.33175642
H        3.12876903       0.91598150      -1.39793954
H        3.71329255      -0.38296454      -0.36008086
H       -0.66515155      -1.57259750       1.31992448
H       -1.24182518      -1.24920558      -1.11866510
H       -2.71861245       1.18669350      -0.32256979
H       -2.13176500       0.92922653       1.31902478
H       -1.09063108       1.50933596       0.01130722
15
Frame=11 idx=011846 GeodesicLength=1.1308974800455671 rxn_smarts="[C:1]([C:2]#[C:3][C:4]([C:5](=[O:6])[C:7]([H:13])([H:14])[H:15])([H:11])[H:12])([H:8])([H:9])[H:10]>>[C:1]([C:2]#[C:3][C@:4]([C:5](=[O:6])[H:12])([C:7]([H:13])([H:14])[H:15])[H:11])([H:8])([H:9])[H:10]"
C        3.03018560       0.46779294      -0.40878655
C        1.64910962       0.05920207      -0.19546496
C        0.56999289      -0.42673016       0.01078954
C       -0.70539768      -0.93342515       0.39690082
C       -2.06419816      -0.90192215      -0.17206872
O       -3.00179623      -1.59111411       0.19200963
C       -1.87105091       0.80635553       0.29325088
H        3.30995048       1.27165777       0.27365743
H        3.17063067       0.82453311      -1.43061457
H        3.71754924      -0.36520166      -0.25061283
H       -0.67265620      -1.56617594       1.28499607
H       -1.22160229      -1.28912070      -1.11829586
H       -2.70331441       1.20888057      -0.28582341
H       -2.12102287       0.90804578       1.34904169
H       -1.08637975       1.52722210       0.06102085
15
Frame=12 idx=011846 GeodesicLength=1.2335936777896022 rxn_smarts="[C:1]([C:2]#[C:3][C:4]([C:5](=[O:6])[C:7]([H:13])([H:14])[H:15])([H:11])[H:12])([H:8])([H:9])[H:10]>>[C:1]([C:2]#[C:3][C@:4]([C:5](=[O:6])[H:12])([C:7]([H:13])([H:14])[H:15])[H:11])([H:8])([H:9])[H:10]"
C        3.02881368       0.46827340      -0.41010316
C        1.64209916       0.06390694      -0.22309587
C        0.56046434      -0.41723002      -0.02249209
C       -0.71915797      -0.92066405       0.36646379
C       -2.08464744      -0.90097249      -0.19426773
O       -3.00776494      -1.59975353       0.17532009
C       -1.85808224       0.80715994       0.32104245
H        3.26833028       1.33612036       0.20614738
H        3.21399314       0.72999873      -1.45328351
H        3.71531087      -0.33683554      -0.14232358
H       -0.68082622      -1.55975345       1.24987966
H       -1.20116244      -1.33060082      -1.11578273
H       -2.68646101       1.23089533      -0.24909903
H       -2.11031627       0.88587528       1.37852433
H       -1.08059292       1.54357991       0.11307000
15
Frame=13 idx=011846 GeodesicLength=1.3362711852495472 rxn_smarts="[C:1]([C:2]#[C:3][C:4]([C:5](=[O:6])[C:7]([H:13])([H:14])[H:15])([H:11])[H:12])([H:8])([H:9])[H:10]>>[C:1]([C:2]#[C:3][C@:4]([C:5](=[O:6])[H:12])([C:7]([H:13])([H:14])[H:15])[H:11])([H:8])([H:9])[H:10]"
C        3.02698836       0.46895932      -0.41139635
C        1.63539809       0.06751112      -0.25184250
C        0.55059012      -0.40710059      -0.05659277
C       -0.73301310      -0.90729069       0.33602495
C       -2.10478540      -0.89901142      -0.21716506
O       -3.01347159      -1.60722012       0.15765533
C       -1.84461169       0.80761139       0.34866430
H        3.22944681       1.39349529       0.13142365
H        3.25897968       0.63478722      -1.46477846
H        3.70622434      -0.29899055      -0.03736890
H       -0.68904087      -1.55265355       1.21469829
H       -1.18082291      -1.37361917      -1.11063397
H       -2.66863897       1.25231191      -0.21241185
H       -2.09947224       0.86296324       1.40725865
H       -1.07377064       1.55824660       0.16646468
15
Frame=14 idx=011846 GeodesicLength=1.438954208061529 rxn_smarts="[C:1]([C:2]#[C:3][C:4]([C:5](=[O:6])[C:7]([H:13])([H:14])[H:15])([H:11])[H:12])([H:8])([H:9])[H:10]>>[C:1]([C:2]#[C:3][C@:4]([C:5](=[O:6])[H:12])([C:7]([H:13])([H:14])[H:15])[H:11])([H:8])([H:9])[H:10]"
C        3.02443127       0.47007389      -0.41298942
C        1.62910013       0.06968490      -0.28032952
C        0.54054208      -0.39690731      -0.09052120
C       -0.74713328      -0.89376577       0.30556437
C       -2.12453137      -0.89565887      -0.24142601
O       -3.01932845      -1.61304968       0.13733116
C       -1.83023315       0.80755785       0.37670263
H        3.19291866       1.44503891       0.04675535
H        3.30458689       0.53650391      -1.46550312
H        3.69066382      -0.24958359       0.06538470
H       -0.69812832      -1.54579507       1.17913686
H       -1.16016607      -1.41709917      -1.10307911
H       -2.64900243       1.27365626      -0.17528231
H       -2.08859229       0.83855266       1.43570441
H       -1.06512747       1.57079107       0.22255123
15
Frame=15 idx=011846 GeodesicLength=1.5416434671090489 rxn_smarts="[C:1]([C:2]#[C:3][C:4]([C:5](=[O:6])[C:7]([H:13])([H:14])[H:15])([H:11])[H:12])([H:8])([H:9])[H:10]>>[C:1]([C:2]#[C:3][C@:4]([C:5](=[O:6])[H:12])([C:7]([H:13])([H:14])[H:15])[H:11])([H:8])([H:9])[H:10]"
C        3.02118157       0.47155178      -0.41429045
C        1.62294808       0.07061506      -0.31023727
C        0.53008220      -0.38649028      -0.12602864
C       -0.76128857      -0.87986404       0.27493001
C       -2.14415251      -0.89149623      -0.26598168
O       -3.02516152      -1.61765802       0.11678468
C       -1.81501692       0.80699129       0.40422094
H        3.15990011       1.48766715      -0.04197970
H        3.35050106       0.44118107      -1.45406604
H        3.66806249      -0.19187980       0.16166967
H       -0.70700844      -1.53792348       1.14376781
H       -1.14003915      -1.46164865      -1.09222117
H       -2.62820981       1.29419154      -0.13832039
H       -2.07677353       0.81371990       1.46306848
H       -1.05502505       1.58104271       0.27868373
15
Frame=16 idx=011846 GeodesicLength=1.644377787702966 rxn_smarts="[C:1]([C:2]#[C:3][C:4]([C:5](=[O:6])[C:7]([H:13])([H:14])[H:15])([H:11])[H:12])([H:8])([H:9])[H:10]>>[C:1]([C:2]#[C:3][C@:4]([C:5](=[O:6])[H:12])([C:7]([H:13])([H:14])[H:15])[H:11])([H:8])([H:9])[H:10]"
C        3.01692005       0.47373153      -0.41582136
C        1.61708903       0.06991613      -0.33923061
C        0.51954743      -0.37673184      -0.16120541
C       -0.77575258      -0.86621231       0.24434508
C       -2.16348712      -0.88598001      -0.29177790
O       -3.03152172      -1.62043903       0.09359044
C       -1.79844962       0.80567902       0.43189402
H        3.12990549       1.52283332      -0.13840092
H        3.39518417       0.34589611      -1.43113747
H        3.63924812      -0.12301898       0.25245738
H       -0.71705247      -1.53028221       1.10844573
H       -1.11978106      -1.50589551      -1.07849870
H       -2.60498574       1.31457221      -0.10118197
H       -2.06447246       0.78751931       1.48978742
H       -1.04239152       1.58841226       0.33673426
