12
Frame=0 idx=000789 GeodesicLength=0.0 rxn_smarts="[N:1]([C:2](=[O:3])[C@@:4]1([H:9])[C:5]([H:10])([H:11])[N:6]1[H:12])([H:7])[H:8]>>[N:1]([C:2](=[O:3])[N+:6]1([H:12])[C-:4]([H:9])[C:5]1([H:10])[H:11])([H:7])[H:8]"
N        1.69724497      -0.19643085      -0.47774218
C        0.86349758       0.09363858       0.61342852
O        1.28124886       0.38882843       1.71252497
C       -0.73705007       0.91314486      -0.04688600
C       -1.23188011      -0.32454216      -0.67000704
N       -0.46500304      -0.53681176       0.54968777
H        2.62128316       0.14662301      -0.26148819
H        1.37330047       0.19920395      -1.34629507
H       -1.44666261       1.42200663       0.60239156
H       -0.77670703      -0.73097758      -1.56814554
H       -2.26958940      -0.61786756      -0.53673362
H       -0.90968278      -0.75681554       1.42926478
12
Frame=1 idx=000789 GeodesicLength=0.06878909864449258 rxn_smarts="[N:1]([C:2](=[O:3])[C@@:4]1([H:9])[C:5]([H:10])([H:11])[N:6]1[H:12])([H:7])[H:8]>>[N:1]([C:2](=[O:3])[N+:6]1([H:12])[C-:4]([H:9])[C:5]1([H:10])[H:11])([H:7])[H:8]"
N        1.70244782      -0.18745226      -0.46789683
C        0.87307818       0.10142623       0.62120031
O        1.29405716       0.39644000       1.71923845
C       -0.73175257       0.90579063      -0.04270463
C       -1.23576268      -0.32442836      -0.67267182
N       -0.46955926      -0.54181285       0.54668477
H        2.62763102       0.16215266      -0.26990261
H        1.35976151       0.17377719      -1.34432227
H       -1.44020891       1.41947546       0.60399134
H       -0.78093822      -0.73009628      -1.57112811
H       -2.27619798      -0.60985559      -0.54370064
H       -0.92255609      -0.76541684       1.42121203
12
Frame=2 idx=000789 GeodesicLength=0.13756854439592953 rxn_smarts="[N:1]([C:2](=[O:3])[C@@:4]1([H:9])[C:5]([H:10])([H:11])[N:6]1[H:12])([H:7])[H:8]>>[N:1]([C:2](=[O:3])[N+:6]1([H:12])[C-:4]([H:9])[C:5]1([H:10])[H:11])([H:7])[H:8]"
N        1.70746540      -0.17799294      -0.45828024
C        0.88272068       0.10963145       0.62897909
O        1.30714071       0.40485033       1.72576111
C       -0.72659965       0.89828527      -0.03839916
C       -1.23973316      -0.32425124      -0.67538933
N       -0.47413869      -0.54702225       0.54353114
H        2.63384598       0.17695752      -0.27852392
H        1.34667250       0.14788564      -1.34138903
H       -1.43385220       1.41667342       0.60581974
H       -0.78532306      -0.72894037      -1.57429128
H       -2.28281714      -0.60175254      -0.55071512
H       -0.93538135      -0.77432428       1.41289701
12
Frame=3 idx=000789 GeodesicLength=0.2063311172358322 rxn_smarts="[N:1]([C:2](=[O:3])[C@@:4]1([H:9])[C:5]([H:10])([H:11])[N:6]1[H:12])([H:7])[H:8]>>[N:1]([C:2](=[O:3])[N+:6]1([H:12])[C-:4]([H:9])[C:5]1([H:10])[H:11])([H:7])[H:8]"
N        1.71227559      -0.16804251      -0.44891566
C        0.89242284       0.11826988       0.63675381
O        1.32050855       0.41408254       1.73207262
C       -0.72159825       0.89062315      -0.03396048
C       -1.24379040      -0.32400918      -0.67816080
N       -0.47874799      -0.55244646       0.54022574
H        2.63995566       0.19095703      -0.28733462
H        1.33403680       0.12157599      -1.33747070
H       -1.42760885       1.41358962       0.60788300
H       -0.78985121      -0.72749108      -1.57763838
H       -2.28944197      -0.59357093      -0.55777609
H       -0.94816076      -0.78353805       1.40432154
12
Frame=4 idx=000789 GeodesicLength=0.27507855715568885 rxn_smarts="[N:1]([C:2](=[O:3])[C@@:4]1([H:9])[C:5]([H:10])([H:11])[N:6]1[H:12])([H:7])[H:8]>>[N:1]([C:2](=[O:3])[N+:6]1([H:12])[C-:4]([H:9])[C:5]1([H:10])[H:11])([H:7])[H:8]"
N        1.71686033      -0.15758465      -0.43982965
C        0.90218538       0.12735987       0.64451335
O        1.33417427       0.42415759       1.73815564
C       -0.71675785       0.88279900      -0.02938000
C       -1.24793565      -0.32370084      -0.68098869
N       -0.48339459      -0.55809224       0.53676938
H        2.64599523       0.20406550      -0.29631265
H        1.32185658       0.09489690      -1.33254756
H       -1.42149991       1.41021370       0.61018692
H       -0.79451215      -0.72573109      -1.58117399
H       -2.29607309      -0.58532369      -0.56488425
H       -0.96089856      -0.79306005       1.39549151
12
Frame=5 idx=000789 GeodesicLength=0.34379353847189364 rxn_smarts="[N:1]([C:2](=[O:3])[C@@:4]1([H:9])[C:5]([H:10])([H:11])[N:6]1[H:12])([H:7])[H:8]>>[N:1]([C:2](=[O:3])[N+:6]1([H:12])[C-:4]([H:9])[C:5]1([H:10])[H:11])([H:7])[H:8]"
N        1.72118454      -0.14660242      -0.43105782
C        0.91199733       0.13693350       0.65224264
O        1.34813490       0.43511155       1.74398967
C       -0.71208372       0.87481381      -0.02463893
C       -1.25216036      -0.32332989      -0.68387526
N       -0.48808846      -0.56396782       0.53316082
H        2.65200024       0.21615499      -0.30543870
H        1.31013452       0.06792541      -1.32660255
H       -1.41553897       1.40654244       0.61275388
H       -0.79928425      -0.72364816      -1.58490657
H       -2.30269433      -0.57703929      -0.57203872
H       -0.97360146      -0.80289412       1.38641154
12
Frame=6 idx=000789 GeodesicLength=0.41243260006048515 rxn_smarts="[N:1]([C:2](=[O:3])[C@@:4]1([H:9])[C:5]([H:10])([H:11])[N:6]1[H:12])([H:7])[H:8]>>[N:1]([C:2](=[O:3])[N+:6]1([H:12])[C-:4]([H:9])[C:5]1([H:10])[H:11])([H:7])[H:8]"
N        1.72520817      -0.13507167      -0.42261756
C        0.92186069       0.14701608       0.65990961
O        1.36241484       0.44696144       1.74950914
C       -0.70761207       0.86664821      -0.01973680
C       -1.25646070      -0.32288729      -0.68681039
N       -0.49281337      -0.57006383       0.52939574
H        2.65799417       0.22705039      -0.31464250
H        1.29885239       0.04077648      -1.31959777
H       -1.40977917       1.40253387       0.61555972
H       -0.80415032      -0.72120624      -1.58880115
H       -2.30928820      -0.56873094      -0.57923462
H       -0.98622643      -0.81302650       1.37706659
12
Frame=7 idx=000789 GeodesicLength=0.48103605105650693 rxn_smarts="[N:1]([C:2](=[O:3])[C@@:4]1([H:9])[C:5]([H:10])([H:11])[N:6]1[H:12])([H:7])[H:8]>>[N:1]([C:2](=[O:3])[N+:6]1([H:12])[C-:4]([H:9])[C:5]1([H:10])[H:11])([H:7])[H:8]"
N        1.72890709      -0.12292730      -0.41458895
C        0.93176651       0.15769165       0.66748537
O        1.37701155       0.45980748       1.75469453
C       -0.70336955       0.85831893      -0.01464378
C       -1.26084271      -0.32239244      -0.68980241
N       -0.49758970      -0.57639167       0.52548186
H        2.66412709       0.23643571      -0.32381794
H        1.28801293       0.01363235      -1.31160784
H       -1.40426955       1.39818721       0.61866793
H       -0.80908991      -0.71840072      -1.59290185
H       -2.31586519      -0.56047548      -0.58646202
H       -0.99879856      -0.82348572       1.36749512
12
Frame=8 idx=000789 GeodesicLength=0.5496184782176093 rxn_smarts="[N:1]([C:2](=[O:3])[C@@:4]1([H:9])[C:5]([H:10])([H:11])[N:6]1[H:12])([H:7])[H:8]>>[N:1]([C:2](=[O:3])[N+:6]1([H:12])[C-:4]([H:9])[C:5]1([H:10])[H:11])([H:7])[H:8]"
N        1.73229963      -0.11018458      -0.40694514
C        0.94172582       0.16893581       0.67497198
O        1.39194851       0.47358188       1.75952867
C       -0.69934887       0.84980061      -0.00935822
C       -1.26530636      -0.32182097      -0.69284274
N       -0.50242969      -0.58296216       0.52140879
H        2.67036234       0.24445944      -0.33310101
H        1.27763089      -0.01360731      -1.30246080
H       -1.39901829       1.39347881       0.62203281
H       -0.81408386      -0.71519413      -1.59714872
H       -2.32244006      -0.55222165      -0.59373991
H       -1.01134005      -0.83426575       1.35765430
12
Frame=9 idx=000789 GeodesicLength=0.6180722074945898 rxn_smarts="[N:1]([C:2](=[O:3])[C@@:4]1([H:9])[C:5]([H:10])([H:11])[N:6]1[H:12])([H:7])[H:8]>>[N:1]([C:2](=[O:3])[N+:6]1([H:12])[C-:4]([H:9])[C:5]1([H:10])[H:11])([H:7])[H:8]"
N        1.73527457      -0.09675458      -0.39976270
C        0.95170694       0.18082558       0.68233431
O        1.40719448       0.48840316       1.76397375
C       -0.69554885       0.84109042      -0.00383781
C       -1.26980291      -0.32117640      -0.69594398
N       -0.50730550      -0.58976782       0.51717216
H        2.67662045       0.25082288      -0.34230453
H        1.26766474      -0.04086944      -1.29227463
H       -1.39400465       1.38837649       0.62575406
H       -0.81908802      -0.71156124      -1.60160100
H       -2.32892202      -0.54400648      -0.60107063
H       -1.02378923      -0.84538256       1.34756098
12
Frame=10 idx=000789 GeodesicLength=0.6865192921797892 rxn_smarts="[N:1]([C:2](=[O:3])[C@@:4]1([H:9])[C:5]([H:10])([H:11])[N:6]1[H:12])([H:7])[H:8]>>[N:1]([C:2](=[O:3])[N+:6]1([H:12])[C-:4]([H:9])[C:5]1([H:10])[H:11])([H:7])[H:8]"
N        1.73787164      -0.08252127      -0.39308415
C        0.96173189       0.19345422       0.68953516
O        1.42278992       0.50439799       1.76796109
C       -0.69205043       0.83220627       0.00193528
C       -1.27438337      -0.32045805      -0.69909901
N       -0.51222150      -0.59683502       0.51276153
H        2.68316480       0.25519350      -0.35135323
H        1.25812427      -0.06805190      -1.28101053
H       -1.38935945       1.38284901       0.62986143
H       -0.82411681      -0.70743092      -1.60625171
H       -2.33539867      -0.53587615      -0.60845216
H       -1.03615228      -0.85692767       1.33719630
12
Frame=11 idx=000789 GeodesicLength=0.7549216169134334 rxn_smarts="[N:1]([C:2](=[O:3])[C@@:4]1([H:9])[C:5]([H:10])([H:11])[N:6]1[H:12])([H:7])[H:8]>>[N:1]([C:2](=[O:3])[N+:6]1([H:12])[C-:4]([H:9])[C:5]1([H:10])[H:11])([H:7])[H:8]"
N        1.74000614      -0.06731696      -0.38699843
C        0.97176945       0.20697695       0.69651194
O        1.43871061       0.52177361       1.77139644
C       -0.68891654       0.82313850       0.00801107
C       -1.27902403      -0.31967179      -0.70230280
N       -0.51713317      -0.60415083       0.50814996
H        2.69007861       0.25694613      -0.36006461
H        1.24896042      -0.09491854      -1.26868428
H       -1.38516529       1.37680178       0.63444665
H       -0.82913405      -0.70272298      -1.61111589
H       -2.34181515      -0.52790801      -0.61587805
H       -1.04833702      -0.86894786       1.32652798
12
Frame=12 idx=000789 GeodesicLength=0.8232773623280324 rxn_smarts="[N:1]([C:2](=[O:3])[C@@:4]1([H:9])[C:5]([H:10])([H:11])[N:6]1[H:12])([H:7])[H:8]>>[N:1]([C:2](=[O:3])[N+:6]1([H:12])[C-:4]([H:9])[C:5]1([H:10])[H:11])([H:7])[H:8]"
N        1.74165472      -0.05097825      -0.38158264
C        0.98181987       0.22147929       0.70323400
O        1.45496420       0.54066947       1.77423748
C       -0.68619000       0.81388871       0.01443300
C       -1.28372614      -0.31880827      -0.70556640
N       -0.52200964      -0.61172953       0.50331967
H        2.69739153       0.25576419      -0.36832663
H        1.24017948      -0.12148379      -1.25529258
H       -1.38148905       1.37019079       0.63960163
H       -0.83412508      -0.69736692      -1.61623534
H       -2.34817725      -0.52011409      -0.62336077
H       -1.06029265      -0.88151160       1.31553858
12
Frame=13 idx=000789 GeodesicLength=0.8915747744818159 rxn_smarts="[N:1]([C:2](=[O:3])[C@@:4]1([H:9])[C:5]([H:10])([H:11])[N:6]1[H:12])([H:7])[H:8]>>[N:1]([C:2](=[O:3])[N+:6]1([H:12])[C-:4]([H:9])[C:5]1([H:10])[H:11])([H:7])[H:8]"
N        1.74273628      -0.03311181      -0.37699332
C        0.99183957       0.23720588       0.70956022
O        1.47149208       0.56131954       1.77627472
C       -0.68396198       0.80445552       0.02123805
C       -1.28845864      -0.31787571      -0.70884023
N       -0.52680031      -0.61955387       0.49824006
H        2.70524274       0.25052650      -0.37582152
H        1.23175457      -0.14721153      -1.24086518
H       -1.37847306       1.36287103       0.64537893
H       -0.83901673      -0.69125012      -1.62153573
H       -2.35442582      -0.51266077      -0.63082049
H       -1.07192870      -0.89471466       1.30418450
12
Frame=14 idx=000789 GeodesicLength=0.9598585989479707 rxn_smarts="[N:1]([C:2](=[O:3])[C@@:4]1([H:9])[C:5]([H:10])([H:11])[N:6]1[H:12])([H:7])[H:8]>>[N:1]([C:2](=[O:3])[N+:6]1([H:12])[C-:4]([H:9])[C:5]1([H:10])[H:11])([H:7])[H:8]"
N        1.74319011      -0.01309308      -0.37347154
C        1.00182720       0.25452022       0.71539349
O        1.48832992       0.58419469       1.77741824
C       -0.68243628       0.79488842       0.02852773
C       -1.29326461      -0.31689183      -0.71216059
N       -0.53135182      -0.62761566       0.49283379
H        2.71382573       0.23972219      -0.38204163
H        1.22366721      -0.17174279      -1.22553525
H       -1.37639791       1.35471689       0.65203381
H       -0.84383978      -0.68421202      -1.62715727
H       -2.36058913      -0.50576501      -0.63825479
H       -1.08296065      -0.90872200       1.29241401
12
Frame=15 idx=000789 GeodesicLength=1.0280799215374443 rxn_smarts="[N:1]([C:2](=[O:3])[C@@:4]1([H:9])[C:5]([H:10])([H:11])[N:6]1[H:12])([H:7])[H:8]>>[N:1]([C:2](=[O:3])[N+:6]1([H:12])[C-:4]([H:9])[C:5]1([H:10])[H:11])([H:7])[H:8]"
N        1.74297766       0.00940328      -0.37110897
C        1.01175977       0.27351410       0.72063858
O        1.50542276       0.60943796       1.77748165
C       -0.68153424       0.78516450       0.03635117
C       -1.29803701      -0.31582887      -0.71549096
N       -0.53559888      -0.63593042       0.48704734
H        2.72259253       0.22281715      -0.38685056
H        1.21592079      -0.19498497      -1.20913338
H       -1.37517633       1.34561718       0.65961703
H       -0.84848341      -0.67614309      -1.63301121
H       -2.36653507      -0.49942736      -0.64565048
H       -1.09330858      -0.92363946       1.28010980
12
Frame=16 idx=000789 GeodesicLength=1.096224789853798 rxn_smarts="[N:1]([C:2](=[O:3])[C@@:4]1([H:9])[C:5]([H:10])([H:11])[N:6]1[H:12])([H:7])[H:8]>>[N:1]([C:2](=[O:3])[N+:6]1([H:12])[C-:4]([H:9])[C:5]1([H:10])[H:11])([H:7])[H:8]"
N        1.74216453       0.03492711      -0.37011272
C        1.02166796       0.29443310       0.72522737
O        1.52279991       0.63743604       1.77637680
C       -0.68133553       0.77529798       0.04479530
C       -1.30272438      -0.31467408      -0.71886290
N       -0.53938399      -0.64450735       0.48084301
H        2.73096586       0.19851912      -0.38997944
H        1.20865105      -0.21660733      -1.19163847
H       -1.37498394       1.33543341       0.66832964
H       -0.85283735      -0.66687375      -1.63919295
H       -2.37222890      -0.49376884      -0.65303791
H       -1.10275523      -0.93961542       1.26725227
