16
Frame=0 idx=011775 GeodesicLength=0.0 rxn_smarts="[C:1]([C:2]1([C:3]([H:11])([H:12])[H:13])[C:4]([H:14])([H:15])[N:5]([H:16])[C:6]1=[O:7])([H:8])([H:9])[H:10]>>[C:1]([C:2]1([C:3]([H:11])([H:12])[H:13])[C:6]([N:5]([C-:4]([H:14])[H:15])[H:16])=[O+:7]1)([H:8])([H:9])[H:10]"
C        1.71376635       0.42849838      -0.16580876
C        0.48686711      -0.39382632       0.00615262
C        0.45125497      -1.46938583       1.03039331
C       -1.99699119       1.39695597       0.13588661
N       -1.58336782       0.60997543      -0.95449686
C       -0.58257193      -0.21038978      -0.91202955
O       -0.16006833      -1.22571294      -1.56806075
H        2.29326223      -0.00289040      -0.98795869
H        2.33525717       0.41030897       0.72946480
H        1.46051221       1.45473773      -0.43044578
H        0.46327994      -0.98475924       2.01243197
H        1.33904876      -2.10297553       0.96966074
H       -0.44554196      -2.07749423       0.94869910
H       -1.52063722       1.11660555       1.06915165
H       -2.10167745       2.45217734      -0.09274708
H       -2.15239279       0.59817484      -1.79029326
16
Frame=1 idx=011775 GeodesicLength=0.07990799420694332 rxn_smarts="[C:1]([C:2]1([C:3]([H:11])([H:12])[H:13])[C:4]([H:14])([H:15])[N:5]([H:16])[C:6]1=[O:7])([H:8])([H:9])[H:10]>>[C:1]([C:2]1([C:3]([H:11])([H:12])[H:13])[C:6]([N:5]([C-:4]([H:14])[H:15])[H:16])=[O+:7]1)([H:8])([H:9])[H:10]"
C        1.71055703       0.43792642      -0.16527885
C        0.47572344      -0.37704336      -0.00256615
C        0.43576398      -1.45406633       1.02215640
C       -1.94596540       1.38809223       0.14736973
N       -1.61083656       0.57443910      -0.94539513
C       -0.57281230      -0.20291423      -0.94991101
O       -0.13825868      -1.22514650      -1.58515464
H        2.31810124      -0.02121674      -0.95120947
H        2.30441788       0.45248965       0.74880933
H        1.47030468       1.45540977      -0.47242103
H        0.45726313      -0.97473180       2.00646192
H        1.31743656      -2.09568150       0.95758618
H       -0.46724425      -2.05377229       0.94373375
H       -1.53154921       1.07374147       1.09776660
H       -2.03105779       2.44500842      -0.07958414
H       -2.19184373       0.57746570      -1.77236348
16
Frame=2 idx=011775 GeodesicLength=0.1590414946303803 rxn_smarts="[C:1]([C:2]1([C:3]([H:11])([H:12])[H:13])[C:4]([H:14])([H:15])[N:5]([H:16])[C:6]1=[O:7])([H:8])([H:9])[H:10]>>[C:1]([C:2]1([C:3]([H:11])([H:12])[H:13])[C:6]([N:5]([C-:4]([H:14])[H:15])[H:16])=[O+:7]1)([H:8])([H:9])[H:10]"
C        1.70950847       0.44535870      -0.16499509
C        0.46558899      -0.36033034      -0.01145351
C        0.42036430      -1.43885168       1.01372053
C       -1.89657230       1.37607138       0.15845581
N       -1.63221589       0.54351118      -0.93543399
C       -0.56269156      -0.19298412      -0.98601000
O       -0.11793868      -1.22206296      -1.60143924
H        2.34218323      -0.04095524      -0.91371982
H        2.27576360       0.49176066       0.76557999
H        1.48506226       1.45316397      -0.51324097
H        0.45165011      -0.96493580       2.00021711
H        1.29510976      -2.08936551       0.94506912
H       -0.48912985      -2.02949809       0.93838292
H       -1.54044438       1.03895054       1.12339930
H       -1.97798784       2.43315820      -0.06745558
H       -2.22825024       0.55700910      -1.75107659
16
Frame=3 idx=011775 GeodesicLength=0.23738815203230834 rxn_smarts="[C:1]([C:2]1([C:3]([H:11])([H:12])[H:13])[C:4]([H:14])([H:15])[N:5]([H:16])[C:6]1=[O:7])([H:8])([H:9])[H:10]>>[C:1]([C:2]1([C:3]([H:11])([H:12])[H:13])[C:6]([N:5]([C-:4]([H:14])[H:15])[H:16])=[O+:7]1)([H:8])([H:9])[H:10]"
C        1.71045011       0.45095211      -0.16490998
C        0.45650839      -0.34374974      -0.02044773
C        0.40514473      -1.42372966       1.00520733
C       -1.84899352       1.36209182       0.16886763
N       -1.64759457       0.51765206      -0.92589423
C       -0.55227131      -0.18121107      -1.02040201
O       -0.09877056      -1.21692247      -1.61704986
H        2.36538597      -0.06194113      -0.87562582
H        2.24938945       0.52840621       0.77988325
H        1.50417607       1.44810114      -0.55281036
H        0.44657100      -0.95534454       1.99380106
H        1.27217376      -2.08393607       0.93225171
H       -0.51110335      -2.00464986       0.93286012
H       -1.54775056       1.01030759       1.14625494
H       -1.94089486       2.41851501      -0.05501022
H       -2.26242077       0.53545860      -1.72697582
16
Frame=4 idx=011775 GeodesicLength=0.31518739967525955 rxn_smarts="[C:1]([C:2]1([C:3]([H:11])([H:12])[H:13])[C:4]([H:14])([H:15])[N:5]([H:16])[C:6]1=[O:7])([H:8])([H:9])[H:10]>>[C:1]([C:2]1([C:3]([H:11])([H:12])[H:13])[C:6]([N:5]([C-:4]([H:14])[H:15])[H:16])=[O+:7]1)([H:8])([H:9])[H:10]"
C        1.71262668       0.45512777      -0.16515023
C        0.44821249      -0.32750189      -0.02943586
C        0.39034792      -1.40874816       0.99689910
C       -1.80336504       1.34673072       0.17861880
N       -1.65841756       0.49570572      -0.91699692
C       -0.54203939      -0.16857900      -1.05300328
O       -0.08076825      -1.21056436      -1.63186660
H        2.38712854      -0.08356561      -0.83724855
H        2.22485174       0.56321226       0.79159195
H        1.52613002       1.44050063      -0.59128487
H        0.44225511      -0.94587307       1.98742655
H        1.24909123      -2.07909366       0.91939202
H       -0.53273912      -1.97956616       0.92769126
H       -1.55434184       0.98591762       1.16663868
H       -1.91570411       2.40189149      -0.04137117
H       -2.29326842       0.51440570      -1.70190090
16
Frame=5 idx=011775 GeodesicLength=0.3926713838381221 rxn_smarts="[C:1]([C:2]1([C:3]([H:11])([H:12])[H:13])[C:4]([H:14])([H:15])[N:5]([H:16])[C:6]1=[O:7])([H:8])([H:9])[H:10]>>[C:1]([C:2]1([C:3]([H:11])([H:12])[H:13])[C:6]([N:5]([C-:4]([H:14])[H:15])[H:16])=[O+:7]1)([H:8])([H:9])[H:10]"
C        1.71541598       0.45830608      -0.16573285
C        0.44045063      -0.31168237      -0.03835067
C        0.37608857      -1.39394010       0.98892884
C       -1.75980653       1.33031152       0.18775077
N       -1.66597799       0.47663076      -0.90875597
C       -0.53234030      -0.15570899      -1.08384323
O       -0.06387565      -1.20348570      -1.64588094
H        2.40706826      -0.10522905      -0.79869284
H        2.20163661       0.59689013       0.80076528
H        1.54972398       1.43067199      -0.62876349
H        0.43872952      -0.93649347       1.98119290
H        1.22617674      -2.07457635       0.90663023
H       -0.55376173      -1.95452770       0.92311130
H       -1.56074315       0.96453141       1.18473579
H       -1.89825927       2.38356905      -0.02613652
H       -2.32052566       0.49473279      -1.67695860
16
Frame=6 idx=011775 GeodesicLength=0.4699805018496065 rxn_smarts="[C:1]([C:2]1([C:3]([H:11])([H:12])[H:13])[C:4]([H:14])([H:15])[N:5]([H:16])[C:6]1=[O:7])([H:8])([H:9])[H:10]>>[C:1]([C:2]1([C:3]([H:11])([H:12])[H:13])[C:6]([N:5]([C-:4]([H:14])[H:15])[H:16])=[O+:7]1)([H:8])([H:9])[H:10]"
C        1.71840630       0.46084084      -0.16655492
C        0.43304094      -0.29630716      -0.04714780
C        0.36237784      -1.37936161       0.98130501
C       -1.71846814       1.31302587       0.19631265
N       -1.67123973       0.45966952      -0.90113640
C       -0.52334343      -0.14289045      -1.11303008
O       -0.04796225      -1.19588052      -1.65919193
H        2.42505097      -0.12635740      -0.75999510
H        2.17939828       0.62983857       0.80760302
H        1.57412893       1.41897436      -0.66507926
H        0.43591502      -0.92728861       1.97512327
H        1.20357871      -2.07024606       0.89396947
H       -0.57406516      -1.92974542       0.91912278
H       -1.56700541       0.94553210       1.20069123
H       -1.88517643       2.36382253      -0.00945346
H       -2.34463643       0.47637346      -1.65253847
16
Frame=7 idx=011775 GeodesicLength=0.5472084706209622 rxn_smarts="[C:1]([C:2]1([C:3]([H:11])([H:12])[H:13])[C:4]([H:14])([H:15])[N:5]([H:16])[C:6]1=[O:7])([H:8])([H:9])[H:10]>>[C:1]([C:2]1([C:3]([H:11])([H:12])[H:13])[C:6]([N:5]([C-:4]([H:14])[H:15])[H:16])=[O+:7]1)([H:8])([H:9])[H:10]"
C        1.72128031       0.46302319      -0.16750279
C        0.42582054      -0.28135939      -0.05578526
C        0.34920549      -1.36507091       0.97399748
C       -1.67956826       1.29492446       0.20438684
N       -1.67496415       0.44421080      -0.89405703
C       -0.51516846      -0.13027177      -1.14067476
O       -0.03290711      -1.18782489      -1.67189926
H        2.44101876      -0.14651598      -0.72111075
H        2.15780011       0.66238996       0.81233676
H        1.59874143       1.40571323      -0.70013644
H        0.43373173      -0.91837094       1.96921333
H        1.18140154      -2.06601157       0.88136101
H       -0.59358730      -1.90540128       0.91566793
H       -1.57303264       0.92848719       1.21474013
H       -1.87366057       2.34293737       0.00830873
H       -2.36611140       0.45914051      -1.62884593
16
Frame=8 idx=011775 GeodesicLength=0.6244045494766374 rxn_smarts="[C:1]([C:2]1([C:3]([H:11])([H:12])[H:13])[C:4]([H:14])([H:15])[N:5]([H:16])[C:6]1=[O:7])([H:8])([H:9])[H:10]>>[C:1]([C:2]1([C:3]([H:11])([H:12])[H:13])[C:6]([N:5]([C-:4]([H:14])[H:15])[H:16])=[O+:7]1)([H:8])([H:9])[H:10]"
C        1.72381380       0.46507743      -0.16845441
C        0.41866234      -0.26682177      -0.06422057
C        0.33654869      -1.35114777       0.96695996
C       -1.64324674       1.27602539       0.21206359
N       -1.67772259       0.42975436      -0.88741466
C       -0.50787921      -0.11791494      -1.16687776
O       -0.01859603      -1.17933110      -1.68410425
H        2.45495942      -0.16533283      -0.68204488
H        2.13662079       0.69470025       0.81519921
H        1.62310483       1.39119297      -0.73375223
H        0.43211460      -0.90989149       1.96345256
H        1.15970637      -2.06184777       0.86871926
H       -0.61230928      -1.88166076       0.91266828
H       -1.57862611       0.91315359       1.22717368
H       -1.86169291       2.32132264       0.02655227
H       -2.38545798       0.44272181      -1.60592006
16
Frame=9 idx=011775 GeodesicLength=0.7016180740258688 rxn_smarts="[C:1]([C:2]1([C:3]([H:11])([H:12])[H:13])[C:4]([H:14])([H:15])[N:5]([H:16])[C:6]1=[O:7])([H:8])([H:9])[H:10]>>[C:1]([C:2]1([C:3]([H:11])([H:12])[H:13])[C:6]([N:5]([C-:4]([H:14])[H:15])[H:16])=[O+:7]1)([H:8])([H:9])[H:10]"
C        1.72587978       0.46713522      -0.16931195
C        0.41148574      -0.25267679      -0.07242480
C        0.32438924      -1.33765450       0.96013685
C       -1.60951629       1.25637352       0.21939609
N       -1.67990369       0.41596409      -0.88111110
C       -0.50149316      -0.10581553      -1.19173798
O       -0.00493107      -1.17036724      -1.69588872
H        2.46694282      -0.18263064      -0.64272303
H        2.11566002       0.72689767       0.81640301
H        1.64698222       1.37558386      -0.76588977
H        0.43102521      -0.90197839       1.95780722
H        1.13853131      -2.05775266       0.85596048
H       -0.63022884      -1.85863144       0.91003842
H       -1.58358785       0.89932989       1.23833997
H       -1.84812788       2.29935998       0.04475092
H       -2.40310756       0.42686297      -1.58374561
16
Frame=10 idx=011775 GeodesicLength=0.7788445898291436 rxn_smarts="[C:1]([C:2]1([C:3]([H:11])([H:12])[H:13])[C:4]([H:14])([H:15])[N:5]([H:16])[C:6]1=[O:7])([H:8])([H:9])[H:10]>>[C:1]([C:2]1([C:3]([H:11])([H:12])[H:13])[C:6]([N:5]([C-:4]([H:14])[H:15])[H:16])=[O+:7]1)([H:8])([H:9])[H:10]"
C        1.72746525       0.46925404      -0.16999439
C        0.40427024      -0.23891348      -0.08037820
C        0.31268974      -1.32465528       0.95348122
C       -1.57819815       1.23613081       0.22642022
N       -1.68173277       0.40260808      -0.87504917
C       -0.49595753      -0.09391460      -1.21535065
O        0.00818020      -1.16089079      -1.70734499
H        2.47707301      -0.19830619      -0.60319747
H        2.09491798       0.75890990       0.81613488
H        1.67026609       1.35907004      -0.79639575
H        0.43042273      -0.89475187       1.95225813
H        1.11785185      -2.05377949       0.84300476
H       -0.64739800      -1.83637717       0.90770512
H       -1.58770061       0.88699840       1.24849285
H       -1.83273549       2.27738201       0.06238223
H       -2.41941454       0.41123557      -1.56216881
16
Frame=11 idx=011775 GeodesicLength=0.8560841266269275 rxn_smarts="[C:1]([C:2]1([C:3]([H:11])([H:12])[H:13])[C:4]([H:14])([H:15])[N:5]([H:16])[C:6]1=[O:7])([H:8])([H:9])[H:10]>>[C:1]([C:2]1([C:3]([H:11])([H:12])[H:13])[C:6]([N:5]([C-:4]([H:14])[H:15])[H:16])=[O+:7]1)([H:8])([H:9])[H:10]"
C        1.72861174       0.47143121      -0.17045601
C        0.39702640      -0.22551662      -0.08807343
C        0.30141967      -1.31217690       0.94695498
C       -1.54904906       1.21548108       0.23313356
N       -1.68332629       0.38956613      -0.86915453
C       -0.49119673      -0.08213266      -1.23780704
O        0.02081161      -1.15085560      -1.71853747
H        2.48548777      -0.21239373      -0.56347431
H        2.07441244       0.79067551       0.81453889
H        1.69297653       1.34172325      -0.82525154
H        0.43028460      -0.88827659       1.94677664
H        1.09762958      -2.04996710       0.82980006
H       -0.66387038      -1.81489817       0.90561521
H       -1.59082592       0.87612289       1.25784453
H       -1.81577010       2.25558799       0.07915366
H       -2.43462185       0.39562931      -1.54106320
16
Frame=12 idx=011775 GeodesicLength=0.9333266585127156 rxn_smarts="[C:1]([C:2]1([C:3]([H:11])([H:12])[H:13])[C:4]([H:14])([H:15])[N:5]([H:16])[C:6]1=[O:7])([H:8])([H:9])[H:10]>>[C:1]([C:2]1([C:3]([H:11])([H:12])[H:13])[C:6]([N:5]([C-:4]([H:14])[H:15])[H:16])=[O+:7]1)([H:8])([H:9])[H:10]"
C        1.72938583       0.47364043      -0.17067395
C        0.38977845      -0.21246786      -0.09550839
C        0.29054880      -1.30022474       0.94053364
C       -1.52181171       1.19460923       0.23952426
N       -1.68473970       0.37677296      -0.86337264
C       -0.48712749      -0.07038957      -1.25919165
O        0.03302021      -1.14022822      -1.72951512
H        2.49232025      -0.22497035      -0.52358472
H        2.05420571       0.82211109       0.81172616
H        1.71517150       1.32358828      -0.85246004
H        0.43059164      -0.88258071       1.94134090
H        1.07781547      -2.04634337       0.81631700
H       -0.67970342      -1.79416427       0.90373789
H       -1.59288851       0.86666788       1.26654170
H       -1.79767336       2.23409036       0.09490577
H       -2.44889367       0.37988885      -1.52032080
16
Frame=13 idx=011775 GeodesicLength=1.0105593582070567 rxn_smarts="[C:1]([C:2]1([C:3]([H:11])([H:12])[H:13])[C:4]([H:14])([H:15])[N:5]([H:16])[C:6]1=[O:7])([H:8])([H:9])[H:10]>>[C:1]([C:2]1([C:3]([H:11])([H:12])[H:13])[C:6]([N:5]([C-:4]([H:14])[H:15])[H:16])=[O+:7]1)([H:8])([H:9])[H:10]"
C        1.72985680       0.47584888      -0.17063989
C        0.38255206      -0.19974540      -0.10268407
C        0.28004869      -1.28878901       0.93420096
C       -1.49625204       1.17367864       0.24557939
N       -1.68599723       0.36419411      -0.85766532
C       -0.48367158      -0.05861229      -1.27958148
O        0.04485042      -1.12898532      -1.74031395
H        2.49769066      -0.23613090      -0.48356460
H        2.03436895       0.85314184       0.80778442
H        1.73691822       1.30469027      -0.87804789
H        0.43132510      -0.87766802       1.93593254
H        1.05836034      -2.04292110       0.80254076
H       -0.69495053      -1.77413086       0.90205593
H       -1.59386236       0.85858266       1.27468649
H       -1.77889480       2.21294863       0.10957304
H       -2.46234270       0.36389786      -1.49985634
16
Frame=14 idx=011775 GeodesicLength=1.0877670404623963 rxn_smarts="[C:1]([C:2]1([C:3]([H:11])([H:12])[H:13])[C:4]([H:14])([H:15])[N:5]([H:16])[C:6]1=[O:7])([H:8])([H:9])[H:10]>>[C:1]([C:2]1([C:3]([H:11])([H:12])[H:13])[C:6]([N:5]([C-:4]([H:14])[H:15])[H:16])=[O+:7]1)([H:8])([H:9])[H:10]"
C        1.73008492       0.47802673      -0.17035380
C        0.37536805      -0.18732684      -0.10960132
C        0.26989352      -1.27785205       0.92794863
C       -1.47217244       1.15282051       0.25129227
N       -1.68711125       0.35180488      -0.85200620
C       -0.48076223      -0.04674208      -1.29904363
O        0.05633546      -1.11711607      -1.75095819
H        2.50170044      -0.24596438      -0.44346491
H        2.01497890       0.88369698       0.80278687
H        1.75826283       1.28505675      -0.90204255
H        0.43246546      -0.87352783       1.93053817
H        1.03922084      -2.03969978       0.78846842
H       -0.70965806      -1.75475132       0.90056365
H       -1.59375487       0.85180580       1.28234252
H       -1.75980950       2.19219210       0.12313856
H       -2.47504205       0.34757660      -1.47960848
16
Frame=15 idx=011775 GeodesicLength=1.1649383254353596 rxn_smarts="[C:1]([C:2]1([C:3]([H:11])([H:12])[H:13])[C:4]([H:14])([H:15])[N:5]([H:16])[C:6]1=[O:7])([H:8])([H:9])[H:10]>>[C:1]([C:2]1([C:3]([H:11])([H:12])[H:13])[C:6]([N:5]([C-:4]([H:14])[H:15])[H:16])=[O+:7]1)([H:8])([H:9])[H:10]"
C        1.73012075       0.48014850      -0.16982146
C        0.36824231      -0.17518869      -0.11626247
C        0.26005999      -1.26739069       0.92177146
C       -1.44940832       1.13213846       0.25665987
N       -1.68808565       0.33959098      -0.84637882
C       -0.47834286      -0.03473000      -1.31763897
O        0.06750124      -1.10461574      -1.76146465
H        2.50443738      -0.25455740      -0.40332938
H        1.99609789       0.91372759       0.79679464
H        1.77924471       1.26470529      -0.92448783
H        0.43399248      -0.87014026       1.92514585
H        1.02035968      -2.03666832       0.77410302
H       -0.72386534      -1.73597926       0.89926032
H       -1.59259999       0.84625878       1.28955942
H       -1.74071047       2.17183687       0.13562490
H       -2.48704378       0.33086390      -1.45953592
16
Frame=16 idx=011775 GeodesicLength=1.242061393946727 rxn_smarts="[C:1]([C:2]1([C:3]([H:11])([H:12])[H:13])[C:4]([H:14])([H:15])[N:5]([H:16])[C:6]1=[O:7])([H:8])([H:9])[H:10]>>[C:1]([C:2]1([C:3]([H:11])([H:12])[H:13])[C:6]([N:5]([C-:4]([H:14])[H:15])[H:16])=[O+:7]1)([H:8])([H:9])[H:10]"
C        1.73000513       0.48219357      -0.16905097
C        0.36118585      -0.16330845      -0.12266888
C        0.25052681      -1.25737974       0.91566830
C       -1.42782372       1.11171126       0.26168464
N       -1.68892213       0.32753903      -0.84077312
C       -0.47636644      -0.02253877      -1.33542018
O        0.07836756      -1.09148708      -1.77184278
H        2.50597553      -0.26198483      -0.36321497
H        1.97779066       0.94318363       0.78986442
H        1.79987886       1.24366378      -0.94541853
H        0.43588432      -0.86748067       1.91974671
H        1.00174580      -2.03380825       0.75945377
H       -0.73760602      -1.71777160       0.89815007
H       -1.59044440       0.84186189       1.29636714
H       -1.72181677       2.15189110       0.14706553
H       -2.49838104       0.31371514      -1.43961115
