15
Frame=0 idx=009688 GeodesicLength=0.0 rxn_smarts="[O:1]([C:2]([C:3]1([H:11])[C:4]([H:12])([H:13])[C:5](=[O:6])[C:7]1([H:14])[H:15])([H:9])[H:10])[H:8]>>[C:4](=[C:5]=[O:6])([H:12])[H:13].[O:1]([C:2]([C:3](=[C:7]([H:14])[H:15])[H:11])([H:9])[H:10])[H:8]"
O       -1.65588718       1.35980492      -0.70731735
C       -1.62547528       0.01377486      -0.35671818
C       -0.28909453      -0.64939076      -0.51351326
C        1.30749278      -0.61348158       1.37735766
C        0.93544927       0.46792587       0.61553970
O        0.56001610       1.60539033       0.89509658
C        0.84896260       0.02721711      -0.99825541
H       -1.03071160       1.81667783      -0.11806410
H       -1.98236142      -0.16080903       0.66726087
H       -2.31327560      -0.52842439      -1.01760252
H       -0.26871299      -1.71832086      -0.34323477
H        1.45749819      -0.48980246       2.44354160
H        1.67026033      -1.51715346       0.91236039
H        0.69042772       0.95211958      -1.53735423
H        1.69541155      -0.56552792      -1.31909703
15
Frame=1 idx=009688 GeodesicLength=0.13923917015304743 rxn_smarts="[O:1]([C:2]([C:3]1([H:11])[C:4]([H:12])([H:13])[C:5](=[O:6])[C:7]1([H:14])[H:15])([H:9])[H:10])[H:8]>>[C:4](=[C:5]=[O:6])([H:12])[H:13].[O:1]([C:2]([C:3](=[C:7]([H:14])[H:15])[H:11])([H:9])[H:10])[H:8]"
O       -1.65480377       1.35165755      -0.69159306
C       -1.62027694       0.00307332      -0.34732846
C       -0.28023529      -0.65160485      -0.50829849
C        1.28653398      -0.60659391       1.38045320
C        0.97871083       0.49251521       0.61152539
O        0.64982526       1.64364090       0.87881218
C        0.84943386       0.02450159      -1.01591402
H       -1.05981536       1.81539435      -0.07851517
H       -1.97689643      -0.18153693       0.67498885
H       -2.30759270      -0.53520814      -1.01194986
H       -0.26154957      -1.72529656      -0.36820040
H        1.35313866      -0.50137322       2.45706700
H        1.67695104      -1.50776751       0.93327772
H        0.67659807       0.94515324      -1.55866988
H        1.68997836      -0.56655505      -1.35565501
15
Frame=2 idx=009688 GeodesicLength=0.27861943633829295 rxn_smarts="[O:1]([C:2]([C:3]1([H:11])[C:4]([H:12])([H:13])[C:5](=[O:6])[C:7]1([H:14])[H:15])([H:9])[H:10])[H:8]>>[C:4](=[C:5]=[O:6])([H:12])[H:13].[O:1]([C:2]([C:3](=[C:7]([H:14])[H:15])[H:11])([H:9])[H:10])[H:8]"
O       -1.65235597       1.34395109      -0.67155062
C       -1.61508145      -0.00844828      -0.33875282
C       -0.27134970      -0.65462439      -0.50390074
C        1.26471073      -0.59732998       1.38362774
C        1.02286595       0.51570308       0.60734037
O        0.74417585       1.67945999       0.86106125
C        0.84971810       0.02146531      -1.03328323
H       -1.08859376       1.81091596      -0.03340575
H       -1.97265457      -0.20616588       0.68077303
H       -2.30123056      -0.54015853      -1.00982029
H       -0.25477414      -1.73219706      -0.39347580
H        1.24858898      -0.50503567       2.46333110
H        1.67955755      -1.49839875       0.95869786
H        0.66277896       0.93865129      -1.57797533
H        1.68364402      -0.56778818      -1.39266676
15
Frame=3 idx=009688 GeodesicLength=0.41825613340948375 rxn_smarts="[O:1]([C:2]([C:3]1([H:11])[C:4]([H:12])([H:13])[C:5](=[O:6])[C:7]1([H:14])[H:15])([H:9])[H:10])[H:8]>>[C:4](=[C:5]=[O:6])([H:12])[H:13].[O:1]([C:2]([C:3](=[C:7]([H:14])[H:15])[H:11])([H:9])[H:10])[H:8]"
O       -1.64863469       1.33655603      -0.64731271
C       -1.61002561      -0.02083884      -0.33117042
C       -0.26255389      -0.65848626      -0.50049465
C        1.24174041      -0.58581223       1.38699118
C        1.06780099       0.53730268       0.60314105
O        0.84327408       1.71227354       0.84204579
C        0.84975571       0.01822385      -1.05037861
H       -1.11725423       1.80300086       0.01708611
H       -1.96981809      -0.23477561       0.68430986
H       -2.29431322      -0.54318521      -1.01138642
H       -0.24837992      -1.73912270      -0.41913075
H        1.14547885      -0.49992562       2.46303617
H        1.67756093      -1.48918349       0.98858039
H        0.64899471       0.93293163      -1.59510041
H        1.67637398      -0.56895865      -1.43021658
15
Frame=4 idx=009688 GeodesicLength=0.5581367991738838 rxn_smarts="[O:1]([C:2]([C:3]1([H:11])[C:4]([H:12])([H:13])[C:5](=[O:6])[C:7]1([H:14])[H:15])([H:9])[H:10])[H:8]>>[C:4](=[C:5]=[O:6])([H:12])[H:13].[O:1]([C:2]([C:3](=[C:7]([H:14])[H:15])[H:11])([H:9])[H:10])[H:8]"
O       -1.64377745       1.32917637      -0.61917919
C       -1.60520977      -0.03413172      -0.32465267
C       -0.25392081      -0.66315953      -0.49812029
C        1.21751255      -0.57198448       1.39046648
C        1.11348041       0.55723799       0.59905035
O        0.94749754       1.74147860       0.82198598
C        0.84948342       0.01494523      -1.06717904
H       -1.14604925       1.79136600       0.07240687
H       -1.96843781      -0.26717608       0.68541435
H       -2.28695265      -0.54436143      -1.01644589
H       -0.24228751      -1.74607242      -0.44509060
H        1.04460055      -0.48595851       2.45688335
H        1.67073402      -1.47991082       1.02273230
H        0.63526023       0.92829109      -1.60985821
H        1.66806654      -0.56974027      -1.46841379
15
Frame=5 idx=009688 GeodesicLength=0.6980677251119182 rxn_smarts="[O:1]([C:2]([C:3]1([H:11])[C:4]([H:12])([H:13])[C:5](=[O:6])[C:7]1([H:14])[H:15])([H:9])[H:10])[H:8]>>[C:4](=[C:5]=[O:6])([H:12])[H:13].[O:1]([C:2]([C:3](=[C:7]([H:14])[H:15])[H:11])([H:9])[H:10])[H:8]"
O       -1.63800314       1.32150746      -0.58756416
C       -1.60085626      -0.04835041      -0.31951620
C       -0.24563268      -0.66860839      -0.49692400
C        1.19148390      -0.55592240       1.39410293
C        1.15966540       0.57527746       0.59535453
O        1.05729796       1.76623603       0.80115376
C        0.84881527       0.01180250      -1.08358469
H       -1.17555290       1.77566689       0.13202564
H       -1.96882156      -0.30325916       0.68355956
H       -2.27928204      -0.54364909      -1.02516945
H       -0.23655268      -1.75305131      -0.47156228
H        0.94879505      -0.46249596       2.44618534
H        1.65836549      -1.47044770       1.06109148
H        0.62165701       0.92507212      -1.62192510
H        1.65862118      -0.56977804      -1.50722737
15
Frame=6 idx=009688 GeodesicLength=0.8381190356869126 rxn_smarts="[O:1]([C:2]([C:3]1([H:11])[C:4]([H:12])([H:13])[C:5](=[O:6])[C:7]1([H:14])[H:15])([H:9])[H:10])[H:8]>>[C:4](=[C:5]=[O:6])([H:12])[H:13].[O:1]([C:2]([C:3](=[C:7]([H:14])[H:15])[H:11])([H:9])[H:10])[H:8]"
O       -1.63152533       1.31314535      -0.55287498
C       -1.59699191      -0.06353346      -0.31569362
C       -0.23766422      -0.67475805      -0.49680487
C        1.16390042      -0.53735836       1.39767631
C        1.20650129       0.59147231       0.59210498
O        1.17354963       1.78578061       0.77975683
C        0.84769142       0.00900884      -1.09964313
H       -1.20633420       1.75565012       0.19519899
H       -1.97082847      -0.34266019       0.67876324
H       -2.27135593      -0.54128750      -1.03701794
H       -0.23096110      -1.76003980      -0.49834697
H        0.85748781      -0.43001956       2.43165386
H        1.64053577      -1.46026240       1.10336226
H        0.60817048       0.92359453      -1.63118409
H        1.64782433      -0.56873244      -1.54695086
15
Frame=7 idx=009688 GeodesicLength=0.9781453188492155 rxn_smarts="[O:1]([C:2]([C:3]1([H:11])[C:4]([H:12])([H:13])[C:5](=[O:6])[C:7]1([H:14])[H:15])([H:9])[H:10])[H:8]>>[C:4](=[C:5]=[O:6])([H:12])[H:13].[O:1]([C:2]([C:3](=[C:7]([H:14])[H:15])[H:11])([H:9])[H:10])[H:8]"
O       -1.62462360       1.30370919      -0.51542602
C       -1.59376673      -0.07973962      -0.31339336
C       -0.23009357      -0.68153468      -0.49779369
C        1.13449812      -0.51611419       1.40113126
C        1.25397229       0.60567584       0.58947995
O        1.29724480       1.79890310       0.75787232
C        0.84602420       0.00677449      -1.11533079
H       -1.23931984       1.73091201       0.26144091
H       -1.97463401      -0.38530477       0.67060743
H       -2.26320901      -0.53730794      -1.05201023
H       -0.22541808      -1.76701081      -0.52555144
H        0.77232254      -0.38807359       2.41453446
H        1.61669105      -1.44891039       1.14949203
H        0.59482729       0.92421345      -1.63734184
H        1.63548456      -0.56619209      -1.58771100
15
Frame=8 idx=009688 GeodesicLength=1.1180742913310973 rxn_smarts="[O:1]([C:2]([C:3]1([H:11])[C:4]([H:12])([H:13])[C:5](=[O:6])[C:7]1([H:14])[H:15])([H:9])[H:10])[H:8]>>[C:4](=[C:5]=[O:6])([H:12])[H:13].[O:1]([C:2]([C:3](=[C:7]([H:14])[H:15])[H:11])([H:9])[H:10])[H:8]"
O       -1.61769621       1.29275389      -0.47558465
C       -1.59126554      -0.09704243      -0.31266709
C       -0.22291407      -0.68881320      -0.49981504
C        1.10330152      -0.49184453       1.40430594
C        1.30220918       0.61783671       0.58760216
O        1.42955582       1.80405775       0.73564577
C        0.84372846       0.00537726      -1.13064045
H       -1.27547848       1.70112416       0.32993144
H       -1.98019850      -0.43098752       0.65891947
H       -2.25485848      -0.53193882      -1.06982933
H       -0.21969721      -1.77388588      -0.55311205
H        0.69382402      -0.33658586       2.39569797
H        1.58651728      -1.43571889       1.19934541
H        0.58163190       0.92733156      -1.64007821
H        1.62134033      -0.56166419      -1.62972133
15
Frame=9 idx=009688 GeodesicLength=1.2578366653453037 rxn_smarts="[O:1]([C:2]([C:3]1([H:11])[C:4]([H:12])([H:13])[C:5](=[O:6])[C:7]1([H:14])[H:15])([H:9])[H:10])[H:8]>>[C:4](=[C:5]=[O:6])([H:12])[H:13].[O:1]([C:2]([C:3](=[C:7]([H:14])[H:15])[H:11])([H:9])[H:10])[H:8]"
O       -1.61126309       1.27979018      -0.43359333
C       -1.58960433      -0.11558259      -0.31364927
C       -0.21611560      -0.69644441      -0.50282723
C        1.07015784      -0.46404368       1.40708648
C        1.35135231       0.62786572       0.58660843
O        1.57187454       1.79908539       0.71309361
C        0.84068961       0.00516731      -1.14555731
H       -1.31590901       1.66583468       0.39989530
H       -1.98754346      -0.47973129       0.64337265
H       -2.24628063      -0.52539901      -1.09035922
H       -0.21351478      -1.78055377      -0.58105768
H        0.62318619      -0.27504529       2.37625110
H        1.54934321      -1.41985531       1.25289793
H        0.56855105       0.93342243      -1.63896345
H        1.60507613      -0.55451033      -1.67319802
15
Frame=10 idx=009688 GeodesicLength=1.3974373647452984 rxn_smarts="[O:1]([C:2]([C:3]1([H:11])[C:4]([H:12])([H:13])[C:5](=[O:6])[C:7]1([H:14])[H:15])([H:9])[H:10])[H:8]>>[C:4](=[C:5]=[O:6])([H:12])[H:13].[O:1]([C:2]([C:3](=[C:7]([H:14])[H:15])[H:11])([H:9])[H:10])[H:8]"
O       -1.60597249       1.26430082      -0.38981485
C       -1.58880410      -0.13550445      -0.31627606
C       -0.20957485      -0.70419823      -0.50663933
C        1.03528910      -0.43205967       1.40927328
C        1.40186500       0.63566509       0.58660173
O        1.72530117       1.78111901       0.69034437
C        0.83680749       0.00658642      -1.16004250
H       -1.36184434       1.62479162       0.47020607
H       -1.99642042      -0.53140201       0.62396218
H       -2.23742775      -0.51813763      -1.11312425
H       -0.20643231      -1.78682344      -0.60922697
H        0.56060261      -0.20316120       2.35653168
H        1.50476063      -1.40025793       1.31005788
H        0.55557260       0.94303423      -1.63343222
H        1.58627765      -0.54395263      -1.71842102
15
Frame=11 idx=009688 GeodesicLength=1.5370282434584233 rxn_smarts="[O:1]([C:2]([C:3]1([H:11])[C:4]([H:12])([H:13])[C:5](=[O:6])[C:7]1([H:14])[H:15])([H:9])[H:10])[H:8]>>[C:4](=[C:5]=[O:6])([H:12])[H:13].[O:1]([C:2]([C:3](=[C:7]([H:14])[H:15])[H:11])([H:9])[H:10])[H:8]"
O       -1.60271038       1.24565340      -0.34453188
C       -1.58885067      -0.15709627      -0.32043384
C       -0.20308772      -0.71177322      -0.51110319
C        0.99885552      -0.39493257       1.41063195
C        1.45435618       0.64105592       0.58762889
O        1.89102371       1.74623062       0.66763906
C        0.83194875       0.01027823      -1.17406835
H       -1.41435992       1.57764748       0.53960552
H       -2.00636958      -0.58609684       0.60078901
H       -2.22826176      -0.51087490      -1.13755157
H       -0.19778204      -1.79242120      -0.63746924
H        0.50631856      -0.12011451       2.33651090
H        1.45187279      -1.37558394       1.37079941
H        0.54263217       0.95690413      -1.62271048
H        1.56441440      -0.52887633      -1.76573618
15
Frame=12 idx=009688 GeodesicLength=1.6767287443638992 rxn_smarts="[O:1]([C:2]([C:3]1([H:11])[C:4]([H:12])([H:13])[C:5](=[O:6])[C:7]1([H:14])[H:15])([H:9])[H:10])[H:8]>>[C:4](=[C:5]=[O:6])([H:12])[H:13].[O:1]([C:2]([C:3](=[C:7]([H:14])[H:15])[H:11])([H:9])[H:10])[H:8]"
O       -1.60235304       1.22330825      -0.29808988
C       -1.58959760      -0.18061016      -0.32586509
C       -0.19633144      -0.71878295      -0.51587934
C        0.96148725      -0.35161994       1.41089791
C        1.51000650       0.64352694       0.58979395
O        2.06878803       1.68963982       0.64510714
C        0.82600874       0.01696660      -1.18753255
H       -1.47477257       1.52430572       0.60675865
H       -2.01675439      -0.64387850       0.57415673
H       -2.21863393      -0.50437659      -1.16299443
H       -0.18679073      -1.79699228      -0.66551360
H        0.46029866      -0.02508651       2.31537290
H        1.39009914      -1.34419879       1.43509941
H        0.52974287       0.97578132      -1.60581950
H        1.53880251      -0.50798293      -1.81549230
15
Frame=13 idx=009688 GeodesicLength=1.8167583904657807 rxn_smarts="[O:1]([C:2]([C:3]1([H:11])[C:4]([H:12])([H:13])[C:5](=[O:6])[C:7]1([H:14])[H:15])([H:9])[H:10])[H:8]>>[C:4](=[C:5]=[O:6])([H:12])[H:13].[O:1]([C:2]([C:3](=[C:7]([H:14])[H:15])[H:11])([H:9])[H:10])[H:8]"
O       -1.60615845       1.19652249      -0.25105721
C       -1.59071826      -0.20655182      -0.33194657
C       -0.18878032      -0.72467970      -0.52085115
C        0.92400188      -0.30078430       1.40937926
C        1.57049013       0.64189215       0.59291278
O        2.25758320       1.60516576       0.62403746
C        0.81885547       0.02778497      -1.20038857
H       -1.54367815       1.46475514       0.66980203
H       -2.02599587      -0.70479848       0.54524649
H       -2.20870676      -0.50040438      -1.18787196
H       -0.17221445      -1.79995468      -0.69319284
H        0.42170687       0.08366408       2.29049537
H        1.31800997      -1.30413103       1.50280634
H        0.51694929       1.00078818      -1.58131736
H        1.50865544      -0.47926838      -1.86805410
15
Frame=14 idx=009688 GeodesicLength=1.9571315340605975 rxn_smarts="[O:1]([C:2]([C:3]1([H:11])[C:4]([H:12])([H:13])[C:5](=[O:6])[C:7]1([H:14])[H:15])([H:9])[H:10])[H:8]>>[C:4](=[C:5]=[O:6])([H:12])[H:13].[O:1]([C:2]([C:3](=[C:7]([H:14])[H:15])[H:11])([H:9])[H:10])[H:8]"
O       -1.61482789       1.16481267      -0.20356915
C       -1.59174659      -0.23527360      -0.33820960
C       -0.17990977      -0.72897152      -0.52568661
C        0.88769147      -0.24125017       1.40556404
C        1.63781511       0.63383843       0.59723408
O        2.45291534       1.48710503       0.60449372
C        0.81042496       0.04373388      -1.21239819
H       -1.62177721       1.39886736       0.72769786
H       -2.03292809      -0.76923711       0.51473426
H       -2.19820446      -0.49990442      -1.21150327
H       -0.15303651      -1.80075981      -0.72046928
H        0.39123514       0.20795927       2.25935841
H        1.23463409      -1.25284522       1.57378340
H        0.50450126       1.03261473      -1.54764418
H        1.47321314      -0.44068952      -1.92338550
15
Frame=15 idx=009688 GeodesicLength=2.098316285877571 rxn_smarts="[O:1]([C:2]([C:3]1([H:11])[C:4]([H:12])([H:13])[C:5](=[O:6])[C:7]1([H:14])[H:15])([H:9])[H:10])[H:8]>>[C:4](=[C:5]=[O:6])([H:12])[H:13].[O:1]([C:2]([C:3](=[C:7]([H:14])[H:15])[H:11])([H:9])[H:10])[H:8]"
O       -1.62948347       1.12746197      -0.15629611
C       -1.59223034      -0.26753705      -0.34376578
C       -0.16925571      -0.73120134      -0.53060210
C        0.85433223      -0.17202459       1.39838181
C        1.71380717       0.61565028       0.60283130
O        2.64867905       1.33023018       0.58888829
C        0.80050001       0.06625237      -1.22349499
H       -1.70749520       1.32683990       0.77892733
H       -2.03550455      -0.83751499       0.48462022
H       -2.18776643      -0.50525829      -1.23210894
H       -0.12824385      -1.79881237      -0.74794089
H        0.36947063       0.35032262       2.21699409
H        1.13834154      -1.18729841       1.64761488
H        0.49278165       1.07222531      -1.50306501
H        1.43206727      -0.38933557      -1.98098410
15
Frame=16 idx=009688 GeodesicLength=2.2390521902661296 rxn_smarts="[O:1]([C:2]([C:3]1([H:11])[C:4]([H:12])([H:13])[C:5](=[O:6])[C:7]1([H:14])[H:15])([H:9])[H:10])[H:8]>>[C:4](=[C:5]=[O:6])([H:12])[H:13].[O:1]([C:2]([C:3](=[C:7]([H:14])[H:15])[H:11])([H:9])[H:10])[H:8]"
O       -1.64834133       1.08426953      -0.10661058
C       -1.59115451      -0.30283773      -0.34852019
C       -0.15631956      -0.73114630      -0.53497745
C        0.82543864      -0.09216487       1.38658212
C        1.79604027       0.58497998       0.61075679
O        2.83351875       1.13169236       0.57529900
C        0.78921431       0.09509724      -1.23260343
H       -1.80028424       1.24637777       0.82579441
H       -2.03355157      -0.91031867       0.45315804
H       -2.17556078      -0.51365786      -1.25064894
H       -0.09723374      -1.79347675      -0.77526664
H        0.35917509       0.51114814       2.15955254
H        1.03099469      -1.10221902       1.72183712
H        0.48197661       1.11741947      -1.44678063
H        1.38608736      -0.32516328      -2.03757215
