13
Frame=0 idx=005990 GeodesicLength=0.0 rxn_smarts="[C:1]([C@@:2]1([C:5]#[C:6][H:13])[C:3]([H:10])([H:11])[N:4]1[H:12])([H:7])([H:8])[H:9]>>[C:1]([C@@:2]([N:4]([C:3][H:11])[H:12])([C:5]#[C:6][H:13])[H:10])([H:7])([H:8])[H:9]"
C       -0.33447359       1.11221012      -0.91864144
C       -0.06724339       0.04068608       0.11697140
C       -1.24596740      -0.17769930       1.55813067
N       -1.20196177      -0.88149574       0.32239897
C        1.19650223      -0.66447512      -0.03476729
C        2.23193948      -1.24249868      -0.19112676
H       -0.29160556       0.66657996      -1.91253747
H        0.40569334       1.91029195      -0.85687263
H       -1.32820017       1.53221411      -0.76894382
H        0.08470227       0.50714929       1.19728160
H       -1.77999786       0.76280118       1.32213672
H       -0.82407563      -1.80853979       0.48778551
H        3.15468804      -1.75722402      -0.32181552
13
Frame=1 idx=005990 GeodesicLength=0.052968414231279466 rxn_smarts="[C:1]([C@@:2]1([C:5]#[C:6][H:13])[C:3]([H:10])([H:11])[N:4]1[H:12])([H:7])([H:8])[H:9]>>[C:1]([C@@:2]([N:4]([C:3][H:11])[H:12])([C:5]#[C:6][H:13])[H:10])([H:7])([H:8])[H:9]"
C       -0.33216211       1.10908326      -0.92166030
C       -0.06577486       0.04268570       0.12020554
C       -1.25067306      -0.17808173       1.55540095
N       -1.20220644      -0.87778487       0.32221786
C        1.19684182      -0.66438013      -0.03532429
C        2.23157873      -1.24329945      -0.19368423
H       -0.29423091       0.65933140      -1.91399859
H        0.41126315       1.90461590      -0.86635813
H       -1.32380794       1.53452776      -0.77324251
H        0.08579735       0.50444076       1.21860262
H       -1.78464672       0.76484203       1.33388285
H       -0.83232378      -1.80917274       0.47935119
H        3.16034477      -1.74680790      -0.32539294
13
Frame=2 idx=005990 GeodesicLength=0.10591438405250014 rxn_smarts="[C:1]([C@@:2]1([C:5]#[C:6][H:13])[C:3]([H:10])([H:11])[N:4]1[H:12])([H:7])([H:8])[H:9]>>[C:1]([C@@:2]([N:4]([C:3][H:11])[H:12])([C:5]#[C:6][H:13])[H:10])([H:7])([H:8])[H:9]"
C       -0.32989303       1.10596812      -0.92477967
C       -0.06427596       0.04476755       0.12334031
C       -1.25525462      -0.17834538       1.55262364
N       -1.20233706      -0.87405290       0.32204156
C        1.19726500      -0.66410759      -0.03590494
C        2.23136415      -1.24383595      -0.19616246
H       -0.29685063       0.65210444      -1.91551818
H        0.41670128       1.89895944      -0.87591000
H       -1.31946446       1.53677111      -0.77768335
H        0.08687171       0.50140102       1.24025016
H       -1.78929245       0.76675398       1.34577461
H       -0.84049214      -1.80965386       0.47082165
H        3.16565821      -1.73672999      -0.32889333
13
Frame=3 idx=005990 GeodesicLength=0.15885055344863117 rxn_smarts="[C:1]([C@@:2]1([C:5]#[C:6][H:13])[C:3]([H:10])([H:11])[N:4]1[H:12])([H:7])([H:8])[H:9]>>[C:1]([C@@:2]([N:4]([C:3][H:11])[H:12])([C:5]#[C:6][H:13])[H:10])([H:7])([H:8])[H:9]"
C       -0.32758096       1.10279919      -0.92799308
C       -0.06278321       0.04686674       0.12641184
C       -1.25980498      -0.17841909       1.54980870
N       -1.20247533      -0.87026229       0.32189716
C        1.19767836      -0.66383702      -0.03642124
C        2.23116046      -1.24437595      -0.19843140
H       -0.29939075       0.64480757      -1.91707857
H        0.42216151       1.89319366      -0.88551738
H       -1.31505205       1.53896723      -0.78229735
H        0.08789627       0.49794282       1.26227378
H       -1.79393701       0.76864239       1.35779501
H       -0.84879060      -1.80997083       0.46225186
H        3.17091829      -1.72635442      -0.33269933
13
Frame=4 idx=005990 GeodesicLength=0.21177869758263945 rxn_smarts="[C:1]([C@@:2]1([C:5]#[C:6][H:13])[C:3]([H:10])([H:11])[N:4]1[H:12])([H:7])([H:8])[H:9]>>[C:1]([C@@:2]([N:4]([C:3][H:11])[H:12])([C:5]#[C:6][H:13])[H:10])([H:7])([H:8])[H:9]"
C       -0.32534228       1.09966326      -0.93132035
C       -0.06125753       0.04906797       0.12935767
C       -1.26419153      -0.17837955       1.54694688
N       -1.20248250      -0.86644733       0.32175176
C        1.19818406      -0.66335481      -0.03701408
C        2.23111796      -1.24459799      -0.20070844
H       -0.30196981       0.63755708      -1.91871371
H        0.42745219       1.88747851      -0.89521513
H       -1.31072312       1.54110081      -0.78704427
H        0.08891770       0.49410554       1.28463284
H       -1.79855000       0.77038050       1.36999340
H       -0.85698082      -1.81012643       0.45356571
H        3.17582568      -1.71644756      -0.33623230
13
Frame=5 idx=005990 GeodesicLength=0.2647064321910432 rxn_smarts="[C:1]([C@@:2]1([C:5]#[C:6][H:13])[C:3]([H:10])([H:11])[N:4]1[H:12])([H:7])([H:8])[H:9]>>[C:1]([C@@:2]([N:4]([C:3][H:11])[H:12])([C:5]#[C:6][H:13])[H:10])([H:7])([H:8])[H:9]"
C       -0.32313895       1.09653158      -0.93476163
C       -0.05971433       0.05134850       0.13219575
C       -1.26845925      -0.17819068       1.54404114
N       -1.20240875      -0.86259063       0.32161777
C        1.19874531      -0.66273003      -0.03763432
C        2.23118525      -1.24460515      -0.20291985
H       -0.30454867       0.63030839      -1.92041658
H        0.43263825       1.88176141      -0.90500146
H       -1.30642833       1.54317843      -0.79194599
H        0.08991546       0.48983818       1.30736077
H       -1.80313659       0.77201201       1.38236093
H       -0.86515061      -1.81011121       0.44479147
H        3.18050122      -1.70675081      -0.33968801
13
Frame=6 idx=005990 GeodesicLength=0.31764028628300706 rxn_smarts="[C:1]([C@@:2]1([C:5]#[C:6][H:13])[C:3]([H:10])([H:11])[N:4]1[H:12])([H:7])([H:8])[H:9]>>[C:1]([C@@:2]([N:4]([C:3][H:11])[H:12])([C:5]#[C:6][H:13])[H:10])([H:7])([H:8])[H:9]"
C       -0.32096213       1.09339488      -0.93832155
C       -0.05816382       0.05369405       0.13492000
C       -1.27261259      -0.17783374       1.54109685
N       -1.20228756      -0.85867665       0.32149995
C        1.19933211      -0.66201121      -0.03829548
C        2.23131405      -1.24447483      -0.20509445
H       -0.30713858       0.62304930      -1.92219101
H        0.43775024       1.87601326      -0.91488822
H       -1.30214687       1.54521672      -0.79700012
H        0.09089895       0.48508188       1.33046982
H       -1.80767109       0.77356259       1.39491571
H       -0.87336049      -1.80991598       0.43593001
H        3.18504777      -1.69710027      -0.34304151
13
Frame=7 idx=005990 GeodesicLength=0.37058761628638853 rxn_smarts="[C:1]([C@@:2]1([C:5]#[C:6][H:13])[C:3]([H:10])([H:11])[N:4]1[H:12])([H:7])([H:8])[H:9]>>[C:1]([C@@:2]([N:4]([C:3][H:11])[H:12])([C:5]#[C:6][H:13])[H:10])([H:7])([H:8])[H:9]"
C       -0.31884510       1.09027770      -0.94201077
C       -0.05659579       0.05613373       0.13751191
C       -1.27661488      -0.17732462       1.53811180
N       -1.20208035      -0.85471182       0.32139026
C        1.19997407      -0.66113198      -0.03903119
C        2.23154810      -1.24411041      -0.20728423
H       -0.30977002       0.61580778      -1.92404910
H        0.44273259       1.87028155      -0.92489239
H       -1.29792408       1.54721041      -0.80220342
H        0.09187662       0.47982570       1.35396171
H       -1.81214349       0.77499621       1.40767436
H       -0.88154543      -1.80953620       0.42696300
H        3.18938776      -1.68771805      -0.34614194
13
Frame=8 idx=005990 GeodesicLength=0.42354534295440516 rxn_smarts="[C:1]([C@@:2]1([C:5]#[C:6][H:13])[C:3]([H:10])([H:11])[N:4]1[H:12])([H:7])([H:8])[H:9]>>[C:1]([C@@:2]([N:4]([C:3][H:11])[H:12])([C:5]#[C:6][H:13])[H:10])([H:7])([H:8])[H:9]"
C       -0.31674624       1.08714980      -0.94582894
C       -0.05502175       0.05865038       0.13999599
C       -1.28051647      -0.17662524       1.53508735
N       -1.20182840      -0.85068009       0.32130103
C        1.20064382      -0.66014900      -0.03977591
C        2.23185090      -1.24359535      -0.20938902
H       -0.31239196       0.60853459      -1.92598116
H        0.44764895       1.86451527      -0.93501052
H       -1.29370970       1.54915839      -0.80758631
H        0.09281514       0.47401433       1.37787602
H       -1.81656914       0.77635465       1.42061914
H       -0.88977923      -1.80896099       0.41792405
H        3.19360408      -1.67836676      -0.34923174
13
Frame=9 idx=005990 GeodesicLength=0.4765152682485535 rxn_smarts="[C:1]([C@@:2]1([C:5]#[C:6][H:13])[C:3]([H:10])([H:11])[N:4]1[H:12])([H:7])([H:8])[H:9]>>[C:1]([C@@:2]([N:4]([C:3][H:11])[H:12])([C:5]#[C:6][H:13])[H:10])([H:7])([H:8])[H:9]"
C       -0.31470454       1.08403873      -0.94978810
C       -0.05343138       0.06127285       0.14234761
C       -1.28426846      -0.17575574       1.53202479
N       -1.20149440      -0.84658615       0.32122321
C        1.20136863      -0.65899709      -0.04057928
C        2.23225825      -1.24283980      -0.21148975
H       -0.31504850       0.60126343      -1.92800202
H        0.45243921       1.85876357      -0.94526467
H       -1.28955287       1.55106024      -0.81313811
H        0.09373100       0.46763354       1.40220563
H       -1.82092771       0.77760058       1.43377555
H       -0.89799845      -1.80818566       0.40878647
H        3.19762922      -1.66926851      -0.35210132
13
Frame=10 idx=005990 GeodesicLength=0.5294968622447234 rxn_smarts="[C:1]([C@@:2]1([C:5]#[C:6][H:13])[C:3]([H:10])([H:11])[N:4]1[H:12])([H:7])([H:8])[H:9]>>[C:1]([C@@:2]([N:4]([C:3][H:11])[H:12])([C:5]#[C:6][H:13])[H:10])([H:7])([H:8])[H:9]"
C       -0.31269484       1.08092410      -0.95389250
C       -0.05183629       0.06398417       0.14457286
C       -1.28789702      -0.17468053       1.52892869
N       -1.20112028      -0.84240913       0.32116693
C        1.20211429      -0.65773757      -0.04142407
C        2.23271600      -1.24194379      -0.21356615
H       -0.31772597       0.59396290      -1.93011023
H        0.45715392       1.85298171      -0.95566305
H       -1.28541604       1.55292752      -0.81887249
H        0.09461341       0.46060058       1.42697668
H       -1.82520348       0.77877324       1.44715019
H       -0.90628134      -1.80719611       0.39956830
H        3.20157762      -1.66018710      -0.35483515
13
Frame=11 idx=005990 GeodesicLength=0.5824954582499067 rxn_smarts="[C:1]([C@@:2]1([C:5]#[C:6][H:13])[C:3]([H:10])([H:11])[N:4]1[H:12])([H:7])([H:8])[H:9]>>[C:1]([C@@:2]([N:4]([C:3][H:11])[H:12])([C:5]#[C:6][H:13])[H:10])([H:7])([H:8])[H:9]"
C       -0.31071705       1.07780649      -0.95814918
C       -0.05023349       0.06679829       0.14667426
C       -1.29140377      -0.17338946       1.52579732
N       -1.20069607      -0.83814598       0.32113407
C        1.20289246      -0.65634637      -0.04229061
C        2.23324093      -1.24087612      -0.21558797
H       -0.32041194       0.58662431      -1.93230784
H        0.46178569       1.84717791      -0.96621399
H       -1.28130533       1.55475095      -0.82480787
H        0.09544211       0.45287974       1.45221219
H       -1.82940125       0.77986772       1.46074224
H       -0.91461451      -1.80598220       0.39027586
H        3.20542222      -1.65116527      -0.35747849
13
Frame=12 idx=005990 GeodesicLength=0.6354987794462605 rxn_smarts="[C:1]([C@@:2]1([C:5]#[C:6][H:13])[C:3]([H:10])([H:11])[N:4]1[H:12])([H:7])([H:8])[H:9]>>[C:1]([C@@:2]([N:4]([C:3][H:11])[H:12])([C:5]#[C:6][H:13])[H:10])([H:7])([H:8])[H:9]"
C       -0.30878239       1.07469443      -0.96256668
C       -0.04861777       0.06973470       0.14864721
C       -1.29477425      -0.17188093       1.52263199
N       -1.20020543      -0.83379298       0.32112409
C        1.20371752      -0.65478918      -0.04318272
C        2.23385047      -1.23959422      -0.21756479
H       -0.32311274       0.57925058      -1.93460008
H        0.46631315       1.84137105      -0.97693217
H       -1.27723849       1.55652583      -0.83095301
H        0.09620572       0.44443181       1.47792102
H       -1.83351660       0.78087315       1.47455948
H       -0.92297101      -1.80453576       0.38090771
H        3.20913183      -1.64228848      -0.35999204
13
Frame=13 idx=005990 GeodesicLength=0.688504594897907 rxn_smarts="[C:1]([C@@:2]1([C:5]#[C:6][H:13])[C:3]([H:10])([H:11])[N:4]1[H:12])([H:7])([H:8])[H:9]>>[C:1]([C@@:2]([N:4]([C:3][H:11])[H:12])([C:5]#[C:6][H:13])[H:10])([H:7])([H:8])[H:9]"
C       -0.30688685       1.07158314      -0.96715348
C       -0.04699163       0.07279572       0.15048832
C       -1.29800510      -0.17013443       1.51943807
N       -1.19965997      -0.82933663       0.32114231
C        1.20458000      -0.65307775      -0.04409983
C        2.23452601      -1.23812670      -0.21949901
H       -0.32583040       0.57182943      -1.93699095
H        0.47074783       1.83554910      -0.98783268
H       -1.27320815       1.55825628      -0.83731801
H        0.09689138       0.43518641       1.50411850
H       -1.83753397       0.78180149       1.48861458
H       -0.93137803      -1.80284183       0.37146741
H        3.21274889      -1.63348422      -0.36237524
13
Frame=14 idx=005990 GeodesicLength=0.74150876694098 rxn_smarts="[C:1]([C@@:2]1([C:5]#[C:6][H:13])[C:3]([H:10])([H:11])[N:4]1[H:12])([H:7])([H:8])[H:9]>>[C:1]([C@@:2]([N:4]([C:3][H:11])[H:12])([C:5]#[C:6][H:13])[H:10])([H:7])([H:8])[H:9]"
C       -0.30503198       1.06847254      -0.97191877
C       -0.04535499       0.07599140       0.15219438
C       -1.30109263      -0.16813508       1.51621708
N       -1.19906036      -0.82476654       0.32119153
C        1.20548000      -0.65120451      -0.04503993
C        2.23526316      -1.23647384      -0.22139167
H       -0.32856668       0.56435306      -1.93948472
H        0.47508798       1.82971163      -0.99893108
H       -1.26921716       1.55994154      -0.84391554
H        0.09748757       0.42508030       1.53081731
H       -1.84143823       0.78265574       1.50292099
H       -0.93984189      -1.80088701       0.36195780
H        3.21628519      -1.62473922      -0.36461737
13
Frame=15 idx=005990 GeodesicLength=0.7944995480666142 rxn_smarts="[C:1]([C@@:2]1([C:5]#[C:6][H:13])[C:3]([H:10])([H:11])[N:4]1[H:12])([H:7])([H:8])[H:9]>>[C:1]([C@@:2]([N:4]([C:3][H:11])[H:12])([C:5]#[C:6][H:13])[H:10])([H:7])([H:8])[H:9]"
C       -0.30321999       1.06536386      -0.97687168
C       -0.04370511       0.07933698       0.15376433
C       -1.30402788      -0.16587013       1.51297269
N       -1.19840061      -0.82007320       0.32127539
C        1.20642443      -0.64915010      -0.04599552
C        2.23606848      -1.23461731      -0.22323208
H       -0.33131923       0.55681318      -1.94208458
H        0.47932730       1.82386352      -1.01024309
H       -1.26527168       1.56157717      -0.85076051
H        0.09797085       0.41405344       1.55802838
H       -1.84522267       0.78343498       1.51748764
H       -0.94835679      -1.79865781       0.35238233
H        3.21973290      -1.61607458      -0.36672330
13
Frame=16 idx=005990 GeodesicLength=0.8474693521452314 rxn_smarts="[C:1]([C@@:2]1([C:5]#[C:6][H:13])[C:3]([H:10])([H:11])[N:4]1[H:12])([H:7])([H:8])[H:9]>>[C:1]([C@@:2]([N:4]([C:3][H:11])[H:12])([C:5]#[C:6][H:13])[H:10])([H:7])([H:8])[H:9]"
C       -0.30145883       1.06226033      -0.98202441
C       -0.04204050       0.08284418       0.15518757
C       -1.30679125      -0.16332524       1.50971170
N       -1.19768040      -0.81524296       0.32139730
C        1.20741228      -0.64690650      -0.04698223
C        2.23693613      -1.23255526      -0.22504565
H       -0.33410483       0.54920705      -1.94479806
H        0.48345881       1.81800636      -1.02179227
H       -1.26137913       1.56316707      -0.85785956
H        0.09833065       0.40202730       1.58575428
H       -1.84886139       0.78413952       1.53233741
H       -0.95693078      -1.79613769       0.34273730
H        3.22310924      -1.60748414      -0.36862337
