10
Frame=0 idx=001331 GeodesicLength=0.0 rxn_smarts="[C:1]([O:2][C:3](=[O:4])[C:5]#[C:6][H:10])([H:7])([H:8])[H:9]>>[C:1]([O:2][C:3]#[C:5][C:6](=[O:4])[H:10])([H:7])([H:8])[H:9]"
C       -1.69590718       0.10109370       0.02566748
O       -0.56401839       0.64530163      -0.68713535
C        0.58797392       0.57342623      -0.13709723
O        0.90783975      -0.90574691       0.57725914
C        1.85397097       1.02656094      -0.17014167
C        2.00538259      -0.35959183       0.08373795
H       -2.54448546       0.24276233      -0.63594109
H       -1.52607004      -0.95437260       0.22432053
H       -1.83839665       0.65093759       0.95496724
H        2.81371051      -1.02037108      -0.23563701
10
Frame=1 idx=001331 GeodesicLength=0.12042145577779417 rxn_smarts="[C:1]([O:2][C:3](=[O:4])[C:5]#[C:6][H:10])([H:7])([H:8])[H:9]>>[C:1]([O:2][C:3]#[C:5][C:6](=[O:4])[H:10])([H:7])([H:8])[H:9]"
C       -1.71050488       0.10725405       0.02382930
O       -0.57745866       0.64939093      -0.68748961
C        0.57555231       0.55878008      -0.13977206
O        0.92219739      -0.91186838       0.60198136
C        1.84188956       1.00604499      -0.19423338
C        2.03438587      -0.36548958       0.07522147
H       -2.56236822       0.27352911      -0.62801175
H       -1.55262914      -0.95414596       0.20068872
H       -1.84054699       0.64055539       0.96460655
H        2.86948277      -1.00405063      -0.21682058
10
Frame=2 idx=001331 GeodesicLength=0.24011891653200862 rxn_smarts="[C:1]([O:2][C:3](=[O:4])[C:5]#[C:6][H:10])([H:7])([H:8])[H:9]>>[C:1]([O:2][C:3]#[C:5][C:6](=[O:4])[H:10])([H:7])([H:8])[H:9]"
C       -1.72552545       0.11408647       0.02226570
O       -0.59146169       0.65346510      -0.68786990
C        0.56257172       0.54172975      -0.14370846
O        0.93669071      -0.91957597       0.62495869
C        1.82887924       0.98296950      -0.21805305
C        2.06381848      -0.37247990       0.06549844
H       -2.58028439       0.30523313      -0.61909400
H       -1.58069989      -0.95261402       0.17733059
H       -1.84239893       0.63054243       0.97407641
H        2.92841020      -0.98335649      -0.19540443
10
Frame=3 idx=001331 GeodesicLength=0.36009862011019345 rxn_smarts="[C:1]([O:2][C:3](=[O:4])[C:5]#[C:6][H:10])([H:7])([H:8])[H:9]>>[C:1]([O:2][C:3]#[C:5][C:6](=[O:4])[H:10])([H:7])([H:8])[H:9]"
C       -1.74117885       0.12140092       0.02085603
O       -0.60587500       0.65822934      -0.68795096
C        0.54930732       0.52275581      -0.14878498
O        0.95143204      -0.92783719       0.64780274
C        1.81573403       0.95711880      -0.24294830
C        2.09404299      -0.38054093       0.05471445
H       -2.59849263       0.33821489      -0.60915269
H       -1.61030838      -0.95031965       0.15316752
H       -1.84441120       0.61984381       0.98385199
H        2.98974968      -0.95886580      -0.17155579
10
Frame=4 idx=001331 GeodesicLength=0.4803032286083468 rxn_smarts="[C:1]([O:2][C:3](=[O:4])[C:5]#[C:6][H:10])([H:7])([H:8])[H:9]>>[C:1]([O:2][C:3]#[C:5][C:6](=[O:4])[H:10])([H:7])([H:8])[H:9]"
C       -1.75717544       0.12917762       0.01947423
O       -0.62029069       0.66325663      -0.68761700
C        0.53573755       0.50161426      -0.15463632
O        0.96657948      -0.93674534       0.67114455
C        1.80219911       0.92854841      -0.26806572
C        2.12535468      -0.38963568       0.04364215
H       -2.61635313       0.37201021      -0.59862413
H       -1.64138387      -0.94707022       0.12869485
H       -1.84654379       0.60900842       0.99324415
H        3.05187609      -0.93016432      -0.14725674
10
Frame=5 idx=001331 GeodesicLength=0.5991760791852028 rxn_smarts="[C:1]([O:2][C:3](=[O:4])[C:5]#[C:6][H:10])([H:7])([H:8])[H:9]>>[C:1]([O:2][C:3]#[C:5][C:6](=[O:4])[H:10])([H:7])([H:8])[H:9]"
C       -1.77332504       0.13735128       0.01837983
O       -0.63520603       0.67010263      -0.68636324
C        0.52170971       0.47844979      -0.16243123
O        0.98168097      -0.94479423       0.69484689
C        1.78839002       0.89558734      -0.29695100
C        2.15651673      -0.40042001       0.02980970
H       -2.63413637       0.40818583      -0.58584851
H       -1.67350145      -0.94301502       0.10120767
H       -1.84771548       0.59513047       1.00407908
H        3.11558694      -0.89657808      -0.11672918
10
Frame=6 idx=001331 GeodesicLength=0.7181080617552039 rxn_smarts="[C:1]([O:2][C:3](=[O:4])[C:5]#[C:6][H:10])([H:7])([H:8])[H:9]>>[C:1]([O:2][C:3]#[C:5][C:6](=[O:4])[H:10])([H:7])([H:8])[H:9]"
C       -1.78949752       0.14600305       0.01701893
O       -0.64916181       0.67617372      -0.68441627
C        0.50755815       0.45270774      -0.16967038
O        0.99764490      -0.95390371       0.71963508
C        1.77429624       0.86019782      -0.32320101
C        2.18967642      -0.41160099       0.01782809
H       -2.65054331       0.44358785      -0.57428781
H       -1.70685128      -0.93740836       0.07532106
H       -1.84995783       0.58289150       1.01302133
H        3.17683606      -0.85864862      -0.09124902
10
Frame=7 idx=001331 GeodesicLength=0.8381651488532913 rxn_smarts="[C:1]([O:2][C:3](=[O:4])[C:5]#[C:6][H:10])([H:7])([H:8])[H:9]>>[C:1]([O:2][C:3]#[C:5][C:6](=[O:4])[H:10])([H:7])([H:8])[H:9]"
C       -1.80611244       0.15529356       0.01578636
O       -0.66289725       0.68238506      -0.68217750
C        0.49298121       0.42364280      -0.17858485
O        1.01420504      -0.96413578       0.74445989
C        1.75988337       0.82113418      -0.35007784
C        2.22495930      -0.42329950       0.00629936
H       -2.66665144       0.48075125      -0.56176177
H       -1.74217233      -0.93065143       0.04884404
H       -1.85229840       0.57011678       1.02201643
H        3.23810295      -0.81523692      -0.06480413
10
Frame=8 idx=001331 GeodesicLength=0.9557118661367563 rxn_smarts="[C:1]([O:2][C:3](=[O:4])[C:5]#[C:6][H:10])([H:7])([H:8])[H:9]>>[C:1]([O:2][C:3]#[C:5][C:6](=[O:4])[H:10])([H:7])([H:8])[H:9]"
C       -1.82244204       0.16516586       0.01486584
O       -0.67619640       0.68851546      -0.67951585
C        0.47806989       0.38996386      -0.19068964
O        1.03102056      -0.97509185       0.76840729
C        1.74490940       0.77744116      -0.37911654
C        2.26127933      -0.43484458      -0.00509741
H       -2.68181490       0.52074520      -0.54664713
H       -1.77964338      -0.92237528       0.02050805
H       -1.85252377       0.55531787       1.03154260
H        3.29734131      -0.76483770      -0.03425721
10
Frame=9 idx=001331 GeodesicLength=1.074784315762502 rxn_smarts="[C:1]([O:2][C:3](=[O:4])[C:5]#[C:6][H:10])([H:7])([H:8])[H:9]>>[C:1]([O:2][C:3]#[C:5][C:6](=[O:4])[H:10])([H:7])([H:8])[H:9]"
C       -1.83894516       0.17592195       0.01400363
O       -0.68853950       0.69334543      -0.67652095
C        0.46229948       0.35130065      -0.20434848
O        1.04811947      -0.98859612       0.79183721
C        1.72906767       0.72955994      -0.40721636
C        2.30042330      -0.44510055      -0.01400626
H       -2.69555270       0.56268336      -0.53105452
H       -1.81984605      -0.91225606      -0.00753566
H       -1.85271801       0.54101986       1.04034706
H        3.35569149      -0.70787847      -0.00550568
10
Frame=10 idx=001331 GeodesicLength=1.1952586421904525 rxn_smarts="[C:1]([O:2][C:3](=[O:4])[C:5]#[C:6][H:10])([H:7])([H:8])[H:9]>>[C:1]([O:2][C:3]#[C:5][C:6](=[O:4])[H:10])([H:7])([H:8])[H:9]"
C       -1.85594608       0.18852639       0.01405824
O       -0.70045580       0.69337491      -0.67660854
C        0.44522305       0.30205698      -0.22561466
O        1.06521257      -1.01109609       0.80793946
C        1.71184375       0.67799722      -0.43210125
C        2.34425941      -0.45214929      -0.01818047
H       -2.70852544       0.60954674      -0.51215589
H       -1.86661186      -0.89909655      -0.03293369
H       -1.84914882       0.52925881       1.04889774
H        3.41414923      -0.63841912       0.02669905
10
Frame=11 idx=001331 GeodesicLength=1.3109995562323116 rxn_smarts="[C:1]([O:2][C:3](=[O:4])[C:5]#[C:6][H:10])([H:7])([H:8])[H:9]>>[C:1]([O:2][C:3]#[C:5][C:6](=[O:4])[H:10])([H:7])([H:8])[H:9]"
C       -1.87136912       0.20189479       0.01457647
O       -0.71015679       0.69123950      -0.67610506
C        0.42745363       0.24736019      -0.24883587
O        1.08183581      -1.03690339       0.82152577
C        1.69361852       0.62058998      -0.45890218
C        2.38789269      -0.45592467      -0.02024830
H       -2.71744029       0.65925129      -0.49140576
H       -1.91512058      -0.88364327      -0.05855856
H       -1.84331872       0.51658532       1.05721697
H        3.46660484      -0.56044975       0.06073650
10
Frame=12 idx=001331 GeodesicLength=1.426679058958247 rxn_smarts="[C:1]([O:2][C:3](=[O:4])[C:5]#[C:6][H:10])([H:7])([H:8])[H:9]>>[C:1]([O:2][C:3]#[C:5][C:6](=[O:4])[H:10])([H:7])([H:8])[H:9]"
C       -1.88593941       0.21552670       0.01480505
O       -0.71706435       0.68905686      -0.67246126
C        0.40916361       0.19104545      -0.26886899
O        1.09889728      -1.06203357       0.83824376
C        1.67587975       0.55520023      -0.48942816
C        2.43215643      -0.45783882      -0.02176146
H       -2.72252339       0.71072102      -0.47100189
H       -1.96441806      -0.86583669      -0.08677772
H       -1.83901709       0.50075126       1.06531649
H        3.51286521      -0.47659242       0.09193418
10
Frame=13 idx=001331 GeodesicLength=1.5436849529933465 rxn_smarts="[C:1]([O:2][C:3](=[O:4])[C:5]#[C:6][H:10])([H:7])([H:8])[H:9]>>[C:1]([O:2][C:3]#[C:5][C:6](=[O:4])[H:10])([H:7])([H:8])[H:9]"
C       -1.90017329       0.22956006       0.01418988
O       -0.72086468       0.68640533      -0.66517405
C        0.39047002       0.13700128      -0.27946482
O        1.11730488      -1.09014705       0.85668028
C        1.65901497       0.48363590      -0.51803675
C        2.47783396      -0.45813622      -0.02303111
H       -2.72407361       0.76052250      -0.45569499
H       -2.01257034      -0.84607896      -0.11423625
H       -1.84086016       0.48637685       1.07147821
H        3.55391825      -0.38913970       0.11328962
10
Frame=14 idx=001331 GeodesicLength=1.6601582826606047 rxn_smarts="[C:1]([O:2][C:3](=[O:4])[C:5]#[C:6][H:10])([H:7])([H:8])[H:9]>>[C:1]([O:2][C:3]#[C:5][C:6](=[O:4])[H:10])([H:7])([H:8])[H:9]"
C       -1.91339933       0.24429008       0.01280445
O       -0.72074636       0.68441152      -0.65289449
C        0.37149198       0.08425433      -0.28096199
O        1.13647253      -1.12195886       0.87695151
C        1.64189774       0.40035396      -0.54902979
C        2.52419441      -0.45484962      -0.02116623
H       -2.72100968       0.81054903      -0.44392597
H       -2.05951766      -0.82388438      -0.14363923
H       -1.84795653       0.47156184       1.07655120
H        3.58857290      -0.29472790       0.12531054
10
Frame=15 idx=001331 GeodesicLength=1.776781906837355 rxn_smarts="[C:1]([O:2][C:3](=[O:4])[C:5]#[C:6][H:10])([H:7])([H:8])[H:9]>>[C:1]([O:2][C:3]#[C:5][C:6](=[O:4])[H:10])([H:7])([H:8])[H:9]"
C       -1.92737243       0.25917874       0.00906426
O       -0.71668590       0.68572961      -0.63113254
C        0.35424200       0.04262044      -0.25969948
O        1.15976667      -1.15804923       0.90149716
C        1.62607162       0.30876920      -0.57411673
C        2.57118397      -0.45080622      -0.02150943
H       -2.71619137       0.85423842      -0.44450275
H       -2.09992159      -0.80077392      -0.17436440
H       -1.86998529       0.46065275       1.07851919
H        3.61889232      -0.20155978       0.11624472
10
Frame=16 idx=001331 GeodesicLength=1.8922848831772028 rxn_smarts="[C:1]([O:2][C:3](=[O:4])[C:5]#[C:6][H:10])([H:7])([H:8])[H:9]>>[C:1]([O:2][C:3]#[C:5][C:6](=[O:4])[H:10])([H:7])([H:8])[H:9]"
C       -1.93753734       0.27692885       0.00620859
O       -0.70849982       0.68114130      -0.61115072
C        0.33696211      -0.00527761      -0.23714240
O        1.18243824      -1.21429397       0.91405296
C        1.60743298       0.20194565      -0.59804109
C        2.61656976      -0.43857213      -0.01899505
H       -2.70425697       0.90101810      -0.44612970
H       -2.14033274      -0.77370910      -0.19867394
H       -1.88804088       0.45780152       1.07952056
H        3.63526465      -0.08698260       0.11035078
