9
Frame=0 idx=001646 GeodesicLength=0.0 rxn_smarts="[C:1](#[C:2][C@@:3]1([H:7])[C:4]([H:8])([H:9])[O:5]1)[H:6]>>[C:1](#[C:2][C@@:3]([C:4][H:9])([O:5][H:8])[H:7])[H:6]"
C        2.23689752      -0.37095614       0.09311514
C        1.09967619      -0.03542229      -0.06465216
C       -0.27162938       0.38468943      -0.27734675
C       -1.38145669      -0.59605548      -0.27357949
O       -1.04316728       0.63864499       0.91163541
H        3.24627331      -0.67673930       0.23901562
H       -0.35846261       1.24948571      -0.93014554
H       -1.29201730      -0.40705348       1.12360550
H       -2.23611373      -0.18659342      -0.82164769
9
Frame=1 idx=001646 GeodesicLength=0.045974205874813566 rxn_smarts="[C:1](#[C:2][C@@:3]1([H:7])[C:4]([H:8])([H:9])[O:5]1)[H:6]>>[C:1](#[C:2][C@@:3]([C:4][H:9])([O:5][H:8])[H:7])[H:6]"
C        2.23534946      -0.37141050       0.08981015
C        1.09875161      -0.03451882      -0.06985091
C       -0.27134636       0.38823813      -0.28346898
C       -1.38344945      -0.58902942      -0.27021306
O       -1.04451082       0.63709270       0.90576902
H        3.24222002      -0.67751951       0.25179093
H       -0.35750722       1.25297334      -0.93640352
H       -1.27885462      -0.42178252       1.12975258
H       -2.24065262      -0.18404339      -0.81718621
9
Frame=2 idx=001646 GeodesicLength=0.0919449387803285 rxn_smarts="[C:1](#[C:2][C@@:3]1([H:7])[C:4]([H:8])([H:9])[O:5]1)[H:6]>>[C:1](#[C:2][C@@:3]([C:4][H:9])([O:5][H:8])[H:7])[H:6]"
C        2.23434729      -0.36897077       0.08792888
C        1.09808559      -0.03187768      -0.07401714
C       -0.27108242       0.39225872      -0.28928770
C       -1.38453479      -0.58250455      -0.26665884
O       -1.04646419       0.63587571       0.89984042
H        3.23690933      -0.68215958       0.26245266
H       -0.35703636       1.25659081      -0.94274983
H       -1.26587600      -0.43621376       1.13561806
H       -2.24434844      -0.18299888      -0.81312651
9
Frame=3 idx=001646 GeodesicLength=0.13790221385878623 rxn_smarts="[C:1](#[C:2][C@@:3]1([H:7])[C:4]([H:8])([H:9])[O:5]1)[H:6]>>[C:1](#[C:2][C@@:3]([C:4][H:9])([O:5][H:8])[H:7])[H:6]"
C        2.23283578      -0.36915668       0.08587980
C        1.09715561      -0.03093390      -0.07811982
C       -0.27074260       0.39572143      -0.29496858
C       -1.38626215      -0.57564256      -0.26308575
O       -1.04800745       0.63468738       0.89414005
H        3.23287931      -0.68311586       0.27299201
H       -0.35579736       1.25977339      -0.94888839
H       -1.25374198      -0.45043090       1.14110084
H       -2.24831915      -0.18090230      -0.80905017
9
Frame=4 idx=001646 GeodesicLength=0.18384404005203828 rxn_smarts="[C:1](#[C:2][C@@:3]1([H:7])[C:4]([H:8])([H:9])[O:5]1)[H:6]>>[C:1](#[C:2][C@@:3]([C:4][H:9])([O:5][H:8])[H:7])[H:6]"
C        2.23136939      -0.36881941       0.08502982
C        1.09622786      -0.02974416      -0.08127301
C       -0.27037454       0.39918762      -0.30034022
C       -1.38776901      -0.56892595      -0.25940121
O       -1.04990075       0.63381271       0.88843258
H        3.22900385      -0.68468973       0.28159333
H       -0.35439200       1.26275148      -0.95501288
H       -1.24229200      -0.46431739       1.14632021
H       -2.25187282      -0.17925516      -0.80534862
9
Frame=5 idx=001646 GeodesicLength=0.22977726477617078 rxn_smarts="[C:1](#[C:2][C@@:3]1([H:7])[C:4]([H:8])([H:9])[O:5]1)[H:6]>>[C:1](#[C:2][C@@:3]([C:4][H:9])([O:5][H:8])[H:7])[H:6]"
C        2.22978612      -0.36854922       0.08559528
C        1.09522224      -0.02866739      -0.08327433
C       -0.26995369       0.40252797      -0.30534108
C       -1.38921533      -0.56227060      -0.25563206
O       -1.05219539       0.63329888       0.88269456
H        3.22575972      -0.68607538       0.28785637
H       -0.35258145       1.26538745      -0.96108822
H       -1.23177522      -0.47782011       1.15131451
H       -2.25504700      -0.17783159      -0.80212502
9
Frame=6 idx=001646 GeodesicLength=0.2757000737783753 rxn_smarts="[C:1](#[C:2][C@@:3]1([H:7])[C:4]([H:8])([H:9])[O:5]1)[H:6]>>[C:1](#[C:2][C@@:3]([C:4][H:9])([O:5][H:8])[H:7])[H:6]"
C        2.22820231      -0.36811904       0.08679082
C        1.09419519      -0.02753444      -0.08468121
C       -0.26951540       0.40583339      -0.31013449
C       -1.39056824      -0.55567570      -0.25178437
O       -1.05464469       0.63302514       0.87699195
H        3.22273864      -0.68761219       0.29299429
H       -0.35062678       1.26785247      -0.96715190
H       -1.22179226      -0.49114574       1.15607948
H       -2.25798876      -0.17662390      -0.79910457
9
Frame=7 idx=001646 GeodesicLength=0.32161716599353013 rxn_smarts="[C:1](#[C:2][C@@:3]1([H:7])[C:4]([H:8])([H:9])[O:5]1)[H:6]>>[C:1](#[C:2][C@@:3]([C:4][H:9])([O:5][H:8])[H:7])[H:6]"
C        2.22669595      -0.36733961       0.08802788
C        1.09318854      -0.02620738      -0.08593882
C       -0.26908741       0.40917595      -0.31484835
C       -1.39178592      -0.54913674      -0.24786224
O       -1.05706060       0.63289798       0.87136805
H        3.21957587      -0.68957681       0.29794436
H       -0.34873555       1.27027114      -0.97323155
H       -1.21199797      -0.50445973       1.16060423
H       -2.26079291      -0.17562481      -0.79606357
9
Frame=8 idx=001646 GeodesicLength=0.3675281458032304 rxn_smarts="[C:1](#[C:2][C@@:3]1([H:7])[C:4]([H:8])([H:9])[O:5]1)[H:6]>>[C:1](#[C:2][C@@:3]([C:4][H:9])([O:5][H:8])[H:7])[H:6]"
C        2.22508863      -0.36743429       0.08839045
C        1.09211657      -0.02542853      -0.08766162
C       -0.26866332       0.41236729      -0.31962414
C       -1.39319750      -0.54244449      -0.24390324
O       -1.05902891       0.63276486       0.86595560
H        3.21655042      -0.69030682       0.30399731
H       -0.34676757       1.27262794      -0.97926503
H       -1.20228453      -0.51796704       1.16481406
H       -2.26381380      -0.17417892      -0.79270342
9
Frame=9 idx=001646 GeodesicLength=0.4134361977790166 rxn_smarts="[C:1](#[C:2][C@@:3]1([H:7])[C:4]([H:8])([H:9])[O:5]1)[H:6]>>[C:1](#[C:2][C@@:3]([C:4][H:9])([O:5][H:8])[H:7])[H:6]"
C        2.22359276      -0.36716552       0.08831426
C        1.09108937      -0.02442087      -0.08961987
C       -0.26826452       0.41563494      -0.32443363
C       -1.39446683      -0.53578363      -0.23986527
O       -1.06078325       0.63271280       0.86066076
H        3.21309107      -0.69149776       0.31065521
H       -0.34498870       1.27502743      -0.98534937
H       -1.19247217      -0.53163532       1.16874375
H       -2.26679774      -0.17287207      -0.78910584
9
Frame=10 idx=001646 GeodesicLength=0.45934376197052096 rxn_smarts="[C:1](#[C:2][C@@:3]1([H:7])[C:4]([H:8])([H:9])[O:5]1)[H:6]>>[C:1](#[C:2][C@@:3]([C:4][H:9])([O:5][H:8])[H:7])[H:6]"
C        2.22202021      -0.36705868       0.08881595
C        1.08999946      -0.02357326      -0.09104253
C       -0.26784020       0.41880325      -0.32905793
C       -1.39575181      -0.52910234      -0.23576078
O       -1.06265042       0.63292292       0.85538661
H        3.21003433      -0.69236410       0.31629778
H       -0.34297206       1.27719233      -0.99143773
H       -1.18320048      -0.54524221       1.17245803
H       -2.26963903      -0.17157792      -0.78565940
9
Frame=11 idx=001646 GeodesicLength=0.5052392710640087 rxn_smarts="[C:1](#[C:2][C@@:3]1([H:7])[C:4]([H:8])([H:9])[O:5]1)[H:6]>>[C:1](#[C:2][C@@:3]([C:4][H:9])([O:5][H:8])[H:7])[H:6]"
C        2.22033065      -0.36748992       0.08943001
C        1.08883034      -0.02310061      -0.09226435
C       -0.26739519       0.42183178      -0.33358148
C       -1.39714795      -0.52232708      -0.23160100
O       -1.06443436       0.63332397       0.85019676
H        3.20738018      -0.69240989       0.32162124
H       -0.34073229       1.27915946      -0.99752148
H       -1.17434270      -0.55891640       1.17591769
H       -2.27248868      -0.17007131      -0.78219740
9
Frame=12 idx=001646 GeodesicLength=0.5511326904876136 rxn_smarts="[C:1](#[C:2][C@@:3]1([H:7])[C:4]([H:8])([H:9])[O:5]1)[H:6]>>[C:1](#[C:2][C@@:3]([C:4][H:9])([O:5][H:8])[H:7])[H:6]"
C        2.21871715      -0.36751952       0.09016697
C        1.08768076      -0.02240299      -0.09332524
C       -0.26696085       0.42491018      -0.33804356
C       -1.39841231      -0.51558586      -0.22735780
O       -1.06621226       0.63393442       0.84504962
H        3.20456964      -0.69294034       0.32672966
H       -0.33855345       1.28105714      -1.00368339
H       -1.16560849      -0.57269297       1.17914453
H       -2.27522018      -0.16876008      -0.77868079
9
Frame=13 idx=001646 GeodesicLength=0.5970258211727321 rxn_smarts="[C:1](#[C:2][C@@:3]1([H:7])[C:4]([H:8])([H:9])[O:5]1)[H:6]>>[C:1](#[C:2][C@@:3]([C:4][H:9])([O:5][H:8])[H:7])[H:6]"
C        2.21711285      -0.36763795       0.09060762
C        1.08651705      -0.02180850      -0.09455652
C       -0.26653533       0.42795926      -0.34252314
C       -1.39968355      -0.50878071      -0.22304178
O       -1.06777362       0.63467852       0.84000937
H        3.20166959      -0.69325466       0.33226861
H       -0.33639136       1.28288558      -1.00990455
H       -1.15691216      -0.58670199       1.18207854
H       -2.27800347      -0.16733956      -0.77493815
9
Frame=14 idx=001646 GeodesicLength=0.6429287528540377 rxn_smarts="[C:1](#[C:2][C@@:3]1([H:7])[C:4]([H:8])([H:9])[O:5]1)[H:6]>>[C:1](#[C:2][C@@:3]([C:4][H:9])([O:5][H:8])[H:7])[H:6]"
C        2.21540371      -0.36872116       0.09006747
C        1.08528137      -0.02188372      -0.09645867
C       -0.26611508       0.43084369      -0.34713159
C       -1.40118613      -0.50175631      -0.21866691
O       -1.06878792       0.63544925       0.83519060
H        3.19883638      -0.69213248       0.33924080
H       -0.33416422       1.28464674      -1.01614229
H       -1.14816112      -0.60114195       1.18462325
H       -2.28110699      -0.16530406      -0.77072266
9
Frame=15 idx=001646 GeodesicLength=0.6888225275757047 rxn_smarts="[C:1](#[C:2][C@@:3]1([H:7])[C:4]([H:8])([H:9])[O:5]1)[H:6]>>[C:1](#[C:2][C@@:3]([C:4][H:9])([O:5][H:8])[H:7])[H:6]"
C        2.21339718      -0.37162184       0.08841164
C        1.08389446      -0.02318202      -0.09923502
C       -0.26565747       0.43339641      -0.35189778
C       -1.40311450      -0.49436350      -0.21423601
O       -1.06906099       0.63618219       0.83063662
H        3.19635330      -0.68832861       0.34787975
H       -0.33163759       1.28623711      -1.02233597
H       -1.13949891      -0.61610890       1.18667563
H       -2.28467549      -0.16221085      -0.76589885
9
Frame=16 idx=001646 GeodesicLength=0.7347155438847781 rxn_smarts="[C:1](#[C:2][C@@:3]1([H:7])[C:4]([H:8])([H:9])[O:5]1)[H:6]>>[C:1](#[C:2][C@@:3]([C:4][H:9])([O:5][H:8])[H:7])[H:6]"
C        2.21160445      -0.37314930       0.08759208
C        1.08259430      -0.02365934      -0.10138050
C       -0.26521884       0.43614866      -0.35651355
C       -1.40467472      -0.48713693      -0.20966834
O       -1.06965800       0.63729992       0.82598991
H        3.19347938      -0.68632249       0.35536239
H       -0.32928252       1.28772789      -1.02871909
H       -1.13096577      -0.63109987       1.18853990
H       -2.28787828      -0.15980855      -0.76120280
