11
Frame=0 idx=003109 GeodesicLength=0.0 rxn_smarts="[C:1]([c:2]1[c:3]([H:10])[n:4][c:5]([H:11])[o:6]1)([H:7])([H:8])[H:9]>>[C:1]([C:2](=[C:3]([N+:4]#[C:5][H:11])[H:10])[O-:6])([H:7])([H:8])[H:9]"
C       -1.74081692      -0.31909179      -0.08011394
C       -0.23727973      -0.27066994      -0.11831373
C        0.43862675       0.90228690       0.37865225
N        1.73841854       0.72818438       0.33943927
C        2.51114504      -0.15235705       0.10809687
O        0.42038450      -1.21893116      -0.54066806
H       -2.05057943      -1.14736168       0.55854834
H       -2.17495117       0.60672069       0.29618038
H       -2.11876534      -0.51619084      -1.08364548
H       -0.00924455       1.78348075       0.80488413
H        3.22306234      -0.39607030      -0.66306007
11
Frame=1 idx=003109 GeodesicLength=0.04553363179076267 rxn_smarts="[C:1]([c:2]1[c:3]([H:10])[n:4][c:5]([H:11])[o:6]1)([H:7])([H:8])[H:9]>>[C:1]([C:2](=[C:3]([N+:4]#[C:5][H:11])[H:10])[O-:6])([H:7])([H:8])[H:9]"
C       -1.73967891      -0.31842421      -0.08625991
C       -0.23747908      -0.26019861      -0.12430854
C        0.44000146       0.90405771       0.38467044
N        1.74157729       0.72940086       0.34454709
C        2.49506433      -0.16618409       0.09458811
O        0.43090391      -1.21003903      -0.53671473
H       -2.04641153      -1.12579984       0.58015006
H       -2.18007854       0.61691773       0.25794515
H       -2.11518089      -0.54989508      -1.08329667
H       -0.00612404       1.77079778       0.84162986
H        3.21740598      -0.39063324      -0.67295084
11
Frame=2 idx=003109 GeodesicLength=0.09104100770865256 rxn_smarts="[C:1]([c:2]1[c:3]([H:10])[n:4][c:5]([H:11])[o:6]1)([H:7])([H:8])[H:9]>>[C:1]([C:2](=[C:3]([N+:4]#[C:5][H:11])[H:10])[O-:6])([H:7])([H:8])[H:9]"
C       -1.73852003      -0.31778127      -0.09209916
C       -0.23766725      -0.24997905      -0.13001787
C        0.44128099       0.90540841       0.39118365
N        1.74465854       0.73042820       0.34970133
C        2.47924232      -0.17886898       0.08098921
O        0.44109630      -1.20098454      -0.53359568
H       -2.04270409      -1.10367517       0.60076292
H       -2.18472705       0.62597950       0.22034343
H       -2.11135968      -0.58264374      -1.08174032
H       -0.00310062       1.75766109       0.87656656
H        3.21180058      -0.38554444      -0.68209408
11
Frame=3 idx=003109 GeodesicLength=0.13654537200148842 rxn_smarts="[C:1]([c:2]1[c:3]([H:10])[n:4][c:5]([H:11])[o:6]1)([H:7])([H:8])[H:9]>>[C:1]([C:2](=[C:3]([N+:4]#[C:5][H:11])[H:10])[O-:6])([H:7])([H:8])[H:9]"
C       -1.73737651      -0.31734848      -0.09720968
C       -0.23794649      -0.23957782      -0.13629348
C        0.44245276       0.90678473       0.39717636
N        1.74760587       0.73109609       0.35511708
C        2.46343413      -0.19101790       0.06815673
O        0.45089808      -1.19081119      -0.53345426
H       -2.03854332      -1.08194159       0.62049259
H       -2.18907912       0.63336073       0.18501029
H       -2.10812355      -0.61398888      -1.07852560
H       -0.00020194       1.74489407       0.90843496
H        3.20688008      -0.38144976      -0.68890500
11
Frame=4 idx=003109 GeodesicLength=0.1819613823515125 rxn_smarts="[C:1]([c:2]1[c:3]([H:10])[n:4][c:5]([H:11])[o:6]1)([H:7])([H:8])[H:9]>>[C:1]([C:2](=[C:3]([N+:4]#[C:5][H:11])[H:10])[O-:6])([H:7])([H:8])[H:9]"
C       -1.73625572      -0.31712291      -0.10167457
C       -0.23831694      -0.22921599      -0.14259701
C        0.44359600       0.90793870       0.40308795
N        1.75050436       0.73117188       0.36120001
C        2.44776992      -0.20264690       0.05581506
O        0.46032772      -1.17982245      -0.53559474
H       -2.03423525      -1.06075044       0.63910397
H       -2.19322700       0.63918758       0.15187566
H       -2.10515655      -0.64375783      -1.07405573
H        0.00261258       1.73295324       0.93692438
H        3.20238087      -0.37793486      -0.69408498
11
Frame=5 idx=003109 GeodesicLength=0.22738454593035162 rxn_smarts="[C:1]([c:2]1[c:3]([H:10])[n:4][c:5]([H:11])[o:6]1)([H:7])([H:8])[H:9]>>[C:1]([C:2](=[C:3]([N+:4]#[C:5][H:11])[H:10])[O-:6])([H:7])([H:8])[H:9]"
C       -1.73510766      -0.31678532      -0.10617745
C       -0.23856337      -0.21976255      -0.14716994
C        0.44473741       0.90818052       0.41025415
N        1.75340277       0.73074374       0.36772218
C        2.43264046      -0.21299909       0.04248715
O        0.46960274      -1.16987384      -0.53603278
H       -2.03156072      -1.03891491       0.65628664
H       -2.19685921       0.64448630       0.11853414
H       -2.10098436      -0.67242181      -1.06942450
H        0.00536484       1.72097987       0.96409928
H        3.19732710      -0.37363292      -0.70057887
11
Frame=6 idx=003109 GeodesicLength=0.27275137164734853 rxn_smarts="[C:1]([c:2]1[c:3]([H:10])[n:4][c:5]([H:11])[o:6]1)([H:7])([H:8])[H:9]>>[C:1]([C:2](=[C:3]([N+:4]#[C:5][H:11])[H:10])[O-:6])([H:7])([H:8])[H:9]"
C       -1.73401868      -0.31687076      -0.10962255
C       -0.23908949      -0.20966787      -0.15299433
C        0.44575145       0.90896184       0.41597869
N        1.75613896       0.73025380       0.37387948
C        2.41729169      -0.22335454       0.03074002
O        0.47845397      -1.15784136      -0.54136105
H       -2.02743397      -1.01881866       0.67268860
H       -2.20072824       0.64778538       0.08914638
H       -2.09801451      -0.69924647      -1.06320273
H        0.00797243       1.71031578       0.98776346
H        3.19367639      -0.37151716      -0.70301598
11
Frame=7 idx=003109 GeodesicLength=0.3180930258794523 rxn_smarts="[C:1]([c:2]1[c:3]([H:10])[n:4][c:5]([H:11])[o:6]1)([H:7])([H:8])[H:9]>>[C:1]([C:2](=[C:3]([N+:4]#[C:5][H:11])[H:10])[O-:6])([H:7])([H:8])[H:9]"
C       -1.73297275      -0.31710172      -0.11267568
C       -0.23968957      -0.19977233      -0.15840054
C        0.44674656       0.90956439       0.42168768
N        1.75885644       0.72955531       0.38007731
C        2.40215758      -0.23307234       0.01914254
O        0.48706112      -1.14547756      -0.54773412
H       -2.02358857      -0.99924611       0.68806756
H       -2.20455477       0.65003634       0.06129642
H       -2.09491720      -0.72477910      -1.05641784
H        0.01053515       1.70030889       1.00950303
H        3.19036602      -0.37001576      -0.70454635
11
Frame=8 idx=003109 GeodesicLength=0.36327171778473555 rxn_smarts="[C:1]([c:2]1[c:3]([H:10])[n:4][c:5]([H:11])[o:6]1)([H:7])([H:8])[H:9]>>[C:1]([C:2](=[C:3]([N+:4]#[C:5][H:11])[H:10])[O-:6])([H:7])([H:8])[H:9]"
C       -1.73190645      -0.31723226      -0.11586008
C       -0.24015979      -0.19085654      -0.16199768
C        0.44785193       0.90927441       0.42858404
N        1.76162146       0.72820362       0.38691153
C        2.38761342      -0.24160684       0.00647968
O        0.49551031      -1.13453285      -0.55183800
H       -2.02151543      -0.97924666       0.70210033
H       -2.20782882       0.65202050       0.03311015
H       -2.09067341      -0.74926030      -1.04984752
H        0.01315361       1.69061729       1.03018501
H        3.18633316      -0.36738039      -0.70782746
11
Frame=9 idx=003109 GeodesicLength=0.4084397116876763 rxn_smarts="[C:1]([c:2]1[c:3]([H:10])[n:4][c:5]([H:11])[o:6]1)([H:7])([H:8])[H:9]>>[C:1]([C:2](=[C:3]([N+:4]#[C:5][H:11])[H:10])[O-:6])([H:7])([H:8])[H:9]"
C       -1.73090114      -0.31781583      -0.11801972
C       -0.24091688      -0.18138211      -0.16656531
C        0.44884777       0.90945802       0.43417987
N        1.76424532       0.72658874       0.39372268
C        2.37291982      -0.25032373      -0.00482161
O        0.50363332      -1.12140990      -0.56053681
H       -2.01793957      -0.96152323       0.71541613
H       -2.21163394       0.65229584       0.00909820
H       -2.08738016      -0.77182184      -1.04236902
H        0.01560972       1.68286884       1.04722456
H        3.18351575      -0.36693481      -0.70732898
11
Frame=10 idx=003109 GeodesicLength=0.4534512683958054 rxn_smarts="[C:1]([c:2]1[c:3]([H:10])[n:4][c:5]([H:11])[o:6]1)([H:7])([H:8])[H:9]>>[C:1]([C:2](=[C:3]([N+:4]#[C:5][H:11])[H:10])[O-:6])([H:7])([H:8])[H:9]"
C       -1.72992315      -0.31858457      -0.11982125
C       -0.24176185      -0.17197873      -0.17085493
C        0.44982744       0.90957485       0.43962451
N        1.76683902       0.72498477       0.40011894
C        2.35839260      -0.25847731      -0.01588343
O        0.51148398      -1.10779977      -0.57017071
H       -2.01448140      -0.94472355       0.72781392
H       -2.21550371       0.65165145      -0.01320204
H       -2.08402036      -0.79311413      -1.03465890
H        0.01807211       1.67590689       1.06274415
H        3.18107532      -0.36743988      -0.70571025
11
Frame=11 idx=003109 GeodesicLength=0.4984476178457079 rxn_smarts="[C:1]([c:2]1[c:3]([H:10])[n:4][c:5]([H:11])[o:6]1)([H:7])([H:8])[H:9]>>[C:1]([C:2](=[C:3]([N+:4]#[C:5][H:11])[H:10])[O-:6])([H:7])([H:8])[H:9]"
C       -1.72896504      -0.31948887      -0.12133101
C       -0.24270015      -0.16264530      -0.17487201
C        0.45078403       0.90959956       0.44498761
N        1.76939687       0.72331540       0.40627278
C        2.34405745      -0.26608025      -0.02686328
O        0.51912521      -1.09383448      -0.58061268
H       -2.01114334      -0.92858307       0.73949710
H       -2.21945656       0.65029013      -0.03420931
H       -2.08053303      -0.81343263      -1.02673533
H        0.02052996       1.66957900       1.07706363
H        3.17890459      -0.36871948      -0.70319751
11
Frame=12 idx=003109 GeodesicLength=0.5434322218858014 rxn_smarts="[C:1]([c:2]1[c:3]([H:10])[n:4][c:5]([H:11])[o:6]1)([H:7])([H:8])[H:9]>>[C:1]([C:2](=[C:3]([N+:4]#[C:5][H:11])[H:10])[O-:6])([H:7])([H:8])[H:9]"
C       -1.72800880      -0.32043460      -0.12272223
C       -0.24366425      -0.15357157      -0.17835982
C        0.45176351       0.90936703       0.45053804
N        1.77196318       0.72134844       0.41259023
C        2.33000959      -0.27302054      -0.03810060
O        0.52659266      -1.07999605      -0.59097337
H       -2.00831105      -0.91256351       0.75057877
H       -2.22332593       0.64851954      -0.05477975
H       -2.07666808      -0.83314111      -1.01871019
H        0.02300473       1.66363187       1.09064408
H        3.17664445      -0.37013950      -0.70070516
11
Frame=13 idx=003109 GeodesicLength=0.5883715848741666 rxn_smarts="[C:1]([c:2]1[c:3]([H:10])[n:4][c:5]([H:11])[o:6]1)([H:7])([H:8])[H:9]>>[C:1]([C:2](=[C:3]([N+:4]#[C:5][H:11])[H:10])[O-:6])([H:7])([H:8])[H:9]"
C       -1.72706676      -0.32145299      -0.12396210
C       -0.24469974      -0.14458677      -0.18153369
C        0.45270260       0.90904906       0.45608195
N        1.77450290       0.71964264       0.41823635
C        2.31616889      -0.27927552      -0.04937696
O        0.53386124      -1.06589251      -0.60168528
H       -2.00577168      -0.89671349       0.76113089
H       -2.22719467       0.64623508      -0.07482648
H       -2.07256322      -0.85233044      -1.01045969
H        0.02552345       1.65767467       1.10399328
H        3.17453700      -0.37234972      -0.69759826
11
Frame=14 idx=003109 GeodesicLength=0.6332923466130361 rxn_smarts="[C:1]([c:2]1[c:3]([H:10])[n:4][c:5]([H:11])[o:6]1)([H:7])([H:8])[H:9]>>[C:1]([C:2](=[C:3]([N+:4]#[C:5][H:11])[H:10])[O-:6])([H:7])([H:8])[H:9]"
C       -1.72612590      -0.32245685      -0.12518951
C       -0.24573404      -0.13590778      -0.18413492
C        0.45366849       0.90841991       0.46191936
N        1.77706976       0.71772376       0.42397590
C        2.30264388      -0.28479611      -0.06102097
O        0.54097515      -1.05206128      -0.61193310
H       -2.00390932      -0.88055814       0.77120422
H       -2.23088002       0.64368948      -0.09505406
H       -2.06802075      -0.87124491      -1.00205013
H        0.02808304       1.65171095       1.11716766
H        3.17222970      -0.37451903      -0.69488446
11
Frame=15 idx=003109 GeodesicLength=0.678205011120258 rxn_smarts="[C:1]([c:2]1[c:3]([H:10])[n:4][c:5]([H:11])[o:6]1)([H:7])([H:8])[H:9]>>[C:1]([C:2](=[C:3]([N+:4]#[C:5][H:11])[H:10])[O-:6])([H:7])([H:8])[H:9]"
C       -1.72519709      -0.32345774      -0.12638316
C       -0.24679666      -0.12740324      -0.18634088
C        0.45461899       0.90761010       0.46791377
N        1.77964488       0.71593883       0.42930511
C        2.28938030      -0.28958408      -0.07290679
O        0.54792958      -1.03824931      -0.62208015
H       -2.00259018      -0.86404422       0.78090224
H       -2.23443745       0.64082948      -0.11549342
H       -2.06313067      -0.89002812      -0.99334147
H        0.03069214       1.64543183       1.13056731
H        3.16988616      -0.37704353      -0.69214255
11
Frame=16 idx=003109 GeodesicLength=0.7231368650777071 rxn_smarts="[C:1]([c:2]1[c:3]([H:10])[n:4][c:5]([H:11])[o:6]1)([H:7])([H:8])[H:9]>>[C:1]([C:2](=[C:3]([N+:4]#[C:5][H:11])[H:10])[O-:6])([H:7])([H:8])[H:9]"
C       -1.72427690      -0.32438681      -0.12764636
C       -0.24785023      -0.11919407      -0.18799260
C        0.45556566       0.90649997       0.47423361
N        1.78224818       0.71429814       0.43424612
C        2.27642366      -0.29353367      -0.08520887
O        0.55474957      -1.02475995      -0.63157629
H       -2.00207686      -0.84673450       0.79022938
H       -2.23772339       0.63776969      -0.13671645
H       -2.05777851      -0.90887765      -0.98428290
H        0.03337123       1.63850732       1.14457847
H        3.16734759      -0.37958847      -0.68986411
