15
Frame=0 idx=008740 GeodesicLength=0.0 rxn_smarts="[N:1]([C:2](=[O:3])[N:4]([C:5]([C:6]([O:7][H:15])([H:13])[H:14])([H:11])[H:12])[H:10])([H:8])[H:9]>>[C:6](=[O:7])([H:13])[H:14].[N:1]([C:2](=[O:3])[N:4]([C:5]([H:11])([H:12])[H:15])[H:10])([H:8])[H:9]"
N        2.29147290       1.32137416      -0.55712872
C        1.13165343       0.70687584      -0.27606948
O        0.43631666       1.22390324       0.67996977
N        0.69517402      -0.34168347      -0.92265279
C       -0.61102683      -0.91463208      -0.57602439
C       -2.10665677      -0.55153917       1.34032691
O       -1.97237316       0.53085913       1.89165736
H        2.59262449       2.05841927       0.05268702
H        2.94949853       0.91825676      -1.19562631
H        1.27292204      -0.68849323      -1.67677444
H       -0.47365411      -1.98764045      -0.42162824
H       -1.28253891      -0.75841193      -1.42498181
H       -1.65865151      -1.46968870       1.75309284
H       -2.87008665      -0.71898031       0.56415679
H       -0.39467417       0.67138095       0.76899549
15
Frame=1 idx=008740 GeodesicLength=0.16218693219639024 rxn_smarts="[N:1]([C:2](=[O:3])[N:4]([C:5]([C:6]([O:7][H:15])([H:13])[H:14])([H:11])[H:12])[H:10])([H:8])[H:9]>>[C:6](=[O:7])([H:13])[H:14].[N:1]([C:2](=[O:3])[N:4]([C:5]([H:11])([H:12])[H:15])[H:10])([H:8])[H:9]"
N        2.30437829       1.31214505      -0.55034480
C        1.14621752       0.69670746      -0.25720041
O        0.43130115       1.22636866       0.67160544
N        0.70327411      -0.34805840      -0.91286923
C       -0.62090048      -0.89033779      -0.58442720
C       -2.09489026      -0.56980196       1.35182944
O       -2.00708333       0.56132922       1.81819265
H        2.61052891       2.04208493       0.06574994
H        2.96544591       0.89430801      -1.17642889
H        1.26812191      -0.68261116      -1.68125318
H       -0.50870810      -1.97243201      -0.47904664
H       -1.28573594      -0.69156540      -1.43016929
H       -1.58261823      -1.42667831       1.81764506
H       -2.87626183      -0.83379469       0.62240949
H       -0.45306966       0.68233640       0.72430762
15
Frame=2 idx=008740 GeodesicLength=0.3242377812709193 rxn_smarts="[N:1]([C:2](=[O:3])[N:4]([C:5]([C:6]([O:7][H:15])([H:13])[H:14])([H:11])[H:12])[H:10])([H:8])[H:9]>>[C:6](=[O:7])([H:13])[H:14].[N:1]([C:2](=[O:3])[N:4]([C:5]([H:11])([H:12])[H:15])[H:10])([H:8])[H:9]"
N        2.31871446       1.29846983      -0.53820408
C        1.15188414       0.69498855      -0.24733122
O        0.41990032       1.23593648       0.65564873
N        0.70624208      -0.34991782      -0.90826712
C       -0.63145556      -0.86746854      -0.59428649
C       -2.07787588      -0.58785305       1.36491650
O       -2.04157935       0.58280182       1.74460115
H        2.62985290       2.01891524       0.08670673
H        2.98389313       0.86169364      -1.14704072
H        1.25946945      -0.67216363      -1.68940669
H       -0.53941389      -1.95513660      -0.53436525
H       -1.29153242      -0.63217930      -1.43477422
H       -1.50553001      -1.37645218       1.87848179
H       -2.86869490      -0.94525812       0.68810429
H       -0.51387449       0.69362369       0.67521660
15
Frame=3 idx=008740 GeodesicLength=0.48630493727563673 rxn_smarts="[N:1]([C:2](=[O:3])[N:4]([C:5]([C:6]([O:7][H:15])([H:13])[H:14])([H:11])[H:12])[H:10])([H:8])[H:9]>>[C:6](=[O:7])([H:13])[H:14].[N:1]([C:2](=[O:3])[N:4]([C:5]([H:11])([H:12])[H:15])[H:10])([H:8])[H:9]"
N        2.33267778       1.28272848      -0.52321490
C        1.15259937       0.69727771      -0.24149319
O        0.40529308       1.24931676       0.63600614
N        0.70631584      -0.34980435      -0.90592910
C       -0.64262809      -0.84601138      -0.60538977
C       -2.05683145      -0.60477016       1.37864682
O       -2.07587581       0.59552956       1.67257619
H        2.64917033       1.99122841       0.11279484
H        3.00103667       0.82611143      -1.11404893
H        1.24974040      -0.66068340      -1.69772678
H       -0.56821811      -1.93675406      -0.58855341
H       -1.29824396      -0.57782255      -1.43988123
H       -1.43031228      -1.31980424       1.93455632
H       -2.84839061      -1.04989906       0.75783712
H       -0.57633315       0.70335685       0.62381988
15
Frame=4 idx=008740 GeodesicLength=0.6484454412790871 rxn_smarts="[N:1]([C:2](=[O:3])[N:4]([C:5]([C:6]([O:7][H:15])([H:13])[H:14])([H:11])[H:12])[H:10])([H:8])[H:9]>>[C:6](=[O:7])([H:13])[H:14].[N:1]([C:2](=[O:3])[N:4]([C:5]([H:11])([H:12])[H:15])[H:10])([H:8])[H:9]"
N        2.34608724       1.26468127      -0.50498079
C        1.14886698       0.70313226      -0.23937183
O        0.38749414       1.26686150       0.61220673
N        0.70351417      -0.34763322      -0.90596126
C       -0.65473994      -0.82563543      -0.61815152
C       -2.03106430      -0.62032658       1.39308394
O       -2.10996827       0.59996492       1.60277190
H        2.66797636       1.95830946       0.14481966
H        3.01661192       0.78716493      -1.07684928
H        1.23900257      -0.64827209      -1.70638518
H       -0.59558797      -1.91737180      -0.64211469
H       -1.30622058      -0.52793989      -1.44623226
H       -1.35551982      -1.25625162       1.98615220
H       -2.81512821      -1.14835253       0.83143514
H       -0.64132429       0.71166881       0.56957723
15
Frame=5 idx=008740 GeodesicLength=0.810779989905045 rxn_smarts="[N:1]([C:2](=[O:3])[N:4]([C:5]([C:6]([O:7][H:15])([H:13])[H:14])([H:11])[H:12])[H:10])([H:8])[H:9]>>[C:6](=[O:7])([H:13])[H:14].[N:1]([C:2](=[O:3])[N:4]([C:5]([H:11])([H:12])[H:15])[H:10])([H:8])[H:9]"
N        2.35778783       1.24611100      -0.48588345
C        1.14280884       0.71076221      -0.23904866
O        0.37021397       1.28460506       0.58893578
N        0.69944084      -0.34504667      -0.90627588
C       -0.66733680      -0.80609410      -0.63228623
C       -2.00193076      -0.63418820       1.40671167
O       -2.14208272       0.59657083       1.53658660
H        2.68362258       1.92534351       0.17719622
H        3.02977888       0.74688962      -1.03740533
H        1.22910910      -0.63741791      -1.71293427
H       -0.62276590      -1.89711115      -0.69526144
H       -1.31388138      -0.48054773      -1.45409975
H       -1.28515934      -1.18888368       2.03182269
H       -2.77272381      -1.23748692       0.90701608
H       -0.70688133       0.71649414       0.51492597
15
Frame=6 idx=008740 GeodesicLength=0.9733585810401421 rxn_smarts="[N:1]([C:2](=[O:3])[N:4]([C:5]([C:6]([O:7][H:15])([H:13])[H:14])([H:11])[H:12])[H:10])([H:8])[H:9]>>[C:6](=[O:7])([H:13])[H:14].[N:1]([C:2](=[O:3])[N:4]([C:5]([H:11])([H:12])[H:15])[H:10])([H:8])[H:9]"
N        2.36801407       1.22664922      -0.46550287
C        1.13444380       0.72043271      -0.24084449
O        0.35306061       1.30331046       0.56570368
N        0.69380944      -0.34169952      -0.90715584
C       -0.68072299      -0.78714219      -0.64794307
C       -1.96921350      -0.64638248       1.41984634
O       -2.17296486       0.58612413       1.47440357
H        2.69698966       1.89061068       0.21156276
H        3.04027975       0.70532717      -0.99617617
H        1.21989151      -0.62825929      -1.71763619
H       -0.64973764      -1.87598994      -0.74813947
H       -1.32164008      -0.43551610      -1.46376498
H       -1.21787515      -1.11707771       2.07248090
H       -2.72037148      -1.31862424       0.98343037
H       -0.77396316       0.71823710       0.45973545
15
Frame=7 idx=008740 GeodesicLength=1.1361919516653711 rxn_smarts="[N:1]([C:2](=[O:3])[N:4]([C:5]([C:6]([O:7][H:15])([H:13])[H:14])([H:11])[H:12])[H:10])([H:8])[H:9]>>[C:6](=[O:7])([H:13])[H:14].[N:1]([C:2](=[O:3])[N:4]([C:5]([H:11])([H:12])[H:15])[H:10])([H:8])[H:9]"
N        2.37659454       1.20619184      -0.44369897
C        1.12411737       0.73190914      -0.24453976
O        0.33623048       1.32294777       0.54274709
N        0.68662921      -0.33757238      -0.90837635
C       -0.69492340      -0.76859854      -0.66512014
C       -1.93271181      -0.65673504       1.43224956
O       -2.20265818       0.56919312       1.41620990
H        2.70816227       1.85310530       0.24864705
H        3.04756084       0.66302160      -0.95403195
H        1.21125400      -0.62092606      -1.72034303
H       -0.67650240      -1.85400523      -0.80071975
H       -1.32948841      -0.39254955      -1.47535567
H       -1.15329593      -1.04060019       2.10824399
H       -2.65797220      -1.39217619       1.06004727
H       -0.84299637       0.71679442       0.40404077
15
Frame=8 idx=008740 GeodesicLength=1.2993415467616989 rxn_smarts="[N:1]([C:2](=[O:3])[N:4]([C:5]([C:6]([O:7][H:15])([H:13])[H:14])([H:11])[H:12])[H:10])([H:8])[H:9]>>[C:6](=[O:7])([H:13])[H:14].[N:1]([C:2](=[O:3])[N:4]([C:5]([H:11])([H:12])[H:15])[H:10])([H:8])[H:9]"
N        2.38357460       1.18523743      -0.42145776
C        1.11262205       0.74508130      -0.24994698
O        0.32121668       1.34227802       0.52196746
N        0.67836685      -0.33279846      -0.90955978
C       -0.70956316      -0.75043277      -0.68340120
C       -1.89329784      -0.66531120       1.44339050
O       -2.23068263       0.54645809       1.36256565
H        2.71682758       1.81475832       0.28615618
H        3.05192254       0.62002416      -0.91122247
H        1.20318704      -0.61541448      -1.72111799
H       -0.70275554      -1.83135293      -0.85257895
H       -1.33701385      -0.35134283      -1.48850363
H       -1.09337242      -0.96119211       2.13929776
H       -2.58751317      -1.45746615       1.13549763
H       -0.91351872       0.71147363       0.34891358
15
Frame=9 idx=008740 GeodesicLength=1.4628550008868828 rxn_smarts="[N:1]([C:2](=[O:3])[N:4]([C:5]([C:6]([O:7][H:15])([H:13])[H:14])([H:11])[H:12])[H:10])([H:8])[H:9]>>[C:6](=[O:7])([H:13])[H:14].[N:1]([C:2](=[O:3])[N:4]([C:5]([H:11])([H:12])[H:15])[H:10])([H:8])[H:9]"
N        2.38908661       1.16360745      -0.39899950
C        1.10052842       0.75955922      -0.25651332
O        0.30844906       1.36116458       0.50387722
N        0.66902486      -0.32722734      -0.91062531
C       -0.72461271      -0.73246199      -0.70271383
C       -1.85111038      -0.67220712       1.45299460
O       -2.25685175       0.51844714       1.31368939
H        2.72290276       1.77691738       0.32263296
H        3.05363138       0.57546178      -0.86681185
H        1.19543235      -0.61143734      -1.72009454
H       -0.72842243      -1.80800132      -0.90377849
H       -1.34424588      -0.31149273      -1.50307863
H       -1.03809182      -0.87970314       2.16547678
H       -2.50985690      -1.51468735       1.20938207
H       -0.98586357       0.70206077       0.29456244
15
Frame=10 idx=008740 GeodesicLength=1.6266840379396905 rxn_smarts="[N:1]([C:2](=[O:3])[N:4]([C:5]([C:6]([O:7][H:15])([H:13])[H:14])([H:11])[H:12])[H:10])([H:8])[H:9]>>[C:6](=[O:7])([H:13])[H:14].[N:1]([C:2](=[O:3])[N:4]([C:5]([H:11])([H:12])[H:15])[H:10])([H:8])[H:9]"
N        2.39325928       1.14144805      -0.37664068
C        1.08838355       0.77490791      -0.26363541
O        0.29838300       1.37948155       0.48909188
N        0.65877178      -0.32082922      -0.91135040
C       -0.73985524      -0.71468359      -0.72269276
C       -1.80660707      -0.67722179       1.46099946
O       -2.28173961       0.48565771       1.26917839
H        2.72737070       1.73848305       0.35855690
H        3.05234912       0.53058240      -0.82293856
H        1.18779481      -0.60874915      -1.71731223
H       -0.75313100      -1.78411114      -0.95399121
H       -1.35100182      -0.27301886      -1.51879435
H       -0.98850986      -0.79591643       2.18789194
H       -2.42501886      -1.56428618       1.28036895
H       -1.06044878       0.68825568       0.24126808
15
Frame=11 idx=008740 GeodesicLength=1.7908584946228892 rxn_smarts="[N:1]([C:2](=[O:3])[N:4]([C:5]([C:6]([O:7][H:15])([H:13])[H:14])([H:11])[H:12])[H:10])([H:8])[H:9]>>[C:6](=[O:7])([H:13])[H:14].[N:1]([C:2](=[O:3])[N:4]([C:5]([H:11])([H:12])[H:15])[H:10])([H:8])[H:9]"
N        2.39632102       1.11900757      -0.35487123
C        1.07695210       0.79010876      -0.26980110
O        0.29149349       1.39707957       0.47830230
N        0.64782917      -0.31377323      -0.91126686
C       -0.75512585      -0.69709884      -0.74305763
C       -1.76038804      -0.68026095       1.46715149
O       -2.30547926       0.44858814       1.22891545
H        2.73095950       1.70004652       0.39297423
H        3.04829571       0.48610747      -0.78084816
H        1.18017452      -0.60704989      -1.71263615
H       -0.77675586      -1.75980988      -1.00310510
H       -1.35695672      -0.23569928      -1.53543790
H       -0.94535089      -0.71061109       2.20652318
H       -2.33423496      -1.60621656       1.34803817
H       -1.13773391       0.66958170       0.18911933
15
Frame=12 idx=008740 GeodesicLength=1.9553391615035949 rxn_smarts="[N:1]([C:2](=[O:3])[N:4]([C:5]([C:6]([O:7][H:15])([H:13])[H:14])([H:11])[H:12])[H:10])([H:8])[H:9]>>[C:6](=[O:7])([H:13])[H:14].[N:1]([C:2](=[O:3])[N:4]([C:5]([H:11])([H:12])[H:15])[H:10])([H:8])[H:9]"
N        2.39878147       1.09677485      -0.33474797
C        1.06691824       0.80460178      -0.27393496
O        0.28886718       1.41309552       0.47306064
N        0.63657634      -0.30614051      -0.91003365
C       -0.77003308      -0.67972969      -0.76329614
C       -1.71361060      -0.68137461       1.47125604
O       -2.32834997       0.40775362       1.19262048
H        2.73477345       1.66317896       0.42380934
H        3.04209927       0.44239282      -0.74141934
H        1.17240450      -0.60577614      -1.70629249
H       -0.79889903      -1.73519533      -1.05082386
H       -1.36168147      -0.19937974      -1.55248113
H       -0.91039624      -0.62506930       2.22212574
H       -2.23955599      -1.64039945       1.41170015
H       -1.21789407       0.64526722       0.13845715
15
Frame=13 idx=008740 GeodesicLength=2.1201388660116116 rxn_smarts="[N:1]([C:2](=[O:3])[N:4]([C:5]([C:6]([O:7][H:15])([H:13])[H:14])([H:11])[H:12])[H:10])([H:8])[H:9]>>[C:6](=[O:7])([H:13])[H:14].[N:1]([C:2](=[O:3])[N:4]([C:5]([H:11])([H:12])[H:15])[H:10])([H:8])[H:9]"
N        2.40104930       1.07458833      -0.31633071
C        1.05840054       0.81818332      -0.27553453
O        0.29051467       1.42798432       0.47330893
N        0.62492534      -0.29776436      -0.90758141
C       -0.78463707      -0.66236709      -0.78338080
C       -1.66640281      -0.68038233       1.47335549
O       -2.35068196       0.36324484       1.16014589
H        2.73963345       1.62804608       0.45074692
H        3.03417804       0.39905108      -0.70443399
H        1.16433167      -0.60466455      -1.69825093
H       -0.81957295      -1.71011337      -1.09734679
H       -1.36522923      -0.16371910      -1.56984742
H       -0.88351653      -0.53945242       2.23474810
H       -2.14106730      -1.66714068       1.47145150
H       -1.30192517       0.61450594       0.08894975
15
Frame=14 idx=008740 GeodesicLength=2.285190356404641 rxn_smarts="[N:1]([C:2](=[O:3])[N:4]([C:5]([C:6]([O:7][H:15])([H:13])[H:14])([H:11])[H:12])[H:10])([H:8])[H:9]>>[C:6](=[O:7])([H:13])[H:14].[N:1]([C:2](=[O:3])[N:4]([C:5]([H:11])([H:12])[H:15])[H:10])([H:8])[H:9]"
N        2.40366101       1.05295033      -0.30044860
C        1.05180239       0.83057527      -0.27385831
O        0.29724412       1.44117169       0.48025260
N        0.61320603      -0.28880067      -0.90334339
C       -0.79865889      -0.64492081      -0.80288593
C       -1.61984330      -0.67705981       1.47344717
O       -2.37302985       0.31536531       1.13104949
H        2.74691531       1.59495288       0.47286800
H        3.02512708       0.35714431      -0.67171890
H        1.15603761      -0.60370951      -1.68815712
H       -0.83859021      -1.68446231      -1.14256777
H       -1.36713667      -0.12832960      -1.58707180
H       -0.86609270      -0.45445693       2.24500261
H       -2.04019928      -1.68635312       1.52691554
H       -1.39044266       0.57593298       0.04051641
15
Frame=15 idx=008740 GeodesicLength=2.450534484106935 rxn_smarts="[N:1]([C:2](=[O:3])[N:4]([C:5]([C:6]([O:7][H:15])([H:13])[H:14])([H:11])[H:12])[H:10])([H:8])[H:9]>>[C:6](=[O:7])([H:13])[H:14].[N:1]([C:2](=[O:3])[N:4]([C:5]([H:11])([H:12])[H:15])[H:10])([H:8])[H:9]"
N        2.40706369       1.03187692      -0.28734420
C        1.04725481       0.84175460      -0.26858624
O        0.30941284       1.45269981       0.49418332
N        0.60144867      -0.27916084      -0.89704406
C       -0.81206899      -0.62710858      -0.82168020
C       -1.57438520      -0.67099960       1.47160316
O       -2.39580852       0.26408644       1.10503359
H        2.75753394       1.56394516       0.48978008
H        3.01548814       0.31669963      -0.64361482
H        1.14749212      -0.60290447      -1.67571324
H       -0.85600981      -1.65786074      -1.18678614
H       -1.36734014      -0.09247591      -1.60370306
H       -0.85846162      -0.37015286       2.25300006
H       -1.93716579      -1.69794838       1.57814184
H       -1.48445418       0.52754881      -0.00727010
15
Frame=16 idx=008740 GeodesicLength=2.616074523666762 rxn_smarts="[N:1]([C:2](=[O:3])[N:4]([C:5]([C:6]([O:7][H:15])([H:13])[H:14])([H:11])[H:12])[H:10])([H:8])[H:9]>>[C:6](=[O:7])([H:13])[H:14].[N:1]([C:2](=[O:3])[N:4]([C:5]([H:11])([H:12])[H:15])[H:10])([H:8])[H:9]"
N        2.41183986       1.01175141      -0.27768014
C        1.04516433       0.85162649      -0.25922444
O        0.32794590       1.46183293       0.51619847
N        0.58997617      -0.26877749      -0.88840114
C       -0.82450163      -0.60881001      -0.83932469
C       -1.53124798      -0.66172061       1.46795494
O       -2.41949284       0.20969948       1.08151101
H        2.77269785       1.53522338       0.50067721
H        3.00600815       0.27838558      -0.62135993
H        1.13867733      -0.60180755      -1.66102998
H       -0.87153041      -1.62998130      -1.23017141
H       -1.36565283      -0.05537913      -1.61866182
H       -0.86173150      -0.28688261       2.25896496
H       -1.83354999      -1.70138394       1.62542724
H       -1.58460243       0.46622338      -0.05488028
