14
Frame=0 idx=000559 GeodesicLength=0.0 rxn_smarts="[C:1]1([H:7])([H:8])[C@@:2]2([H:9])[C:3]([H:10])([H:11])[C:4]([H:12])([H:13])[O:5][C@@:6]12[H:14]>>[C:1]1([H:7])([H:8])[C@:2]2([H:9])[C@@:3]1([H:10])[C:4]([H:12])([H:13])[O:5][C:6]2([H:11])[H:14]"
C        1.56040775       0.46780103      -0.59632455
C        0.74189516       0.27836783       0.54038739
C       -0.68123533       0.80124117       0.37358369
C       -1.34144809      -0.10306043      -0.61885236
O       -0.69964764      -1.37143439      -0.37763175
C        0.13386506      -1.14307722       0.67224642
H        1.22466576       0.12735901      -1.56739902
H        2.54627901       0.91147540      -0.54235825
H        1.17368431       0.58423605       1.48995581
H       -0.96080622       1.85175809       0.41234214
H       -0.77223758      -0.29709818       1.37495111
H       -1.18729706       0.14284156      -1.67115660
H       -2.41535802      -0.20333612      -0.43929050
H        0.67723290      -2.04707381       0.94954648
14
Frame=1 idx=000559 GeodesicLength=0.08799251057347153 rxn_smarts="[C:1]1([H:7])([H:8])[C@@:2]2([H:9])[C:3]([H:10])([H:11])[C:4]([H:12])([H:13])[O:5][C@@:6]12[H:14]>>[C:1]1([H:7])([H:8])[C@:2]2([H:9])[C@@:3]1([H:10])[C:4]([H:12])([H:13])[O:5][C:6]2([H:11])[H:14]"
C        1.54159227       0.45825683      -0.58721567
C        0.74138478       0.28156982       0.56604827
C       -0.67288199       0.80597745       0.36407876
C       -1.34056869      -0.10267776      -0.62165594
O       -0.69002895      -1.36712619      -0.39055044
C        0.14591861      -1.14161846       0.66198888
H        1.21832194       0.12315387      -1.56374894
H        2.52894036       0.89970756      -0.53764428
H        1.17357299       0.58728148       1.51419097
H       -0.93919427       1.86013483       0.38364003
H       -0.78331287      -0.29803137       1.37906354
H       -1.20806642       0.14649065      -1.67592605
H       -2.41117546      -0.20987653      -0.42527204
H        0.69549769      -2.04324219       0.93300292
14
Frame=2 idx=000559 GeodesicLength=0.17598797690112963 rxn_smarts="[C:1]1([H:7])([H:8])[C@@:2]2([H:9])[C:3]([H:10])([H:11])[C:4]([H:12])([H:13])[O:5][C@@:6]12[H:14]>>[C:1]1([H:7])([H:8])[C@:2]2([H:9])[C@@:3]1([H:10])[C:4]([H:12])([H:13])[O:5][C:6]2([H:11])[H:14]"
C        1.52300166       0.44882336      -0.57806380
C        0.74045982       0.28435647       0.59092581
C       -0.66424810       0.81064518       0.35432669
C       -1.33983783      -0.10233739      -0.62440080
O       -0.68082486      -1.36284438      -0.40319302
C        0.15804033      -1.14004247       0.65163287
H        1.21259025       0.11962271      -1.56020113
H        2.51168761       0.88826981      -0.53221536
H        1.17311637       0.58995539       1.53767690
H       -0.91709739       1.86795423       0.35494391
H       -0.79445395      -0.29864525       1.38331029
H       -1.22928615       0.14962753      -1.68033306
H       -2.40682021      -0.21617531      -0.41103138
H        0.71367244      -2.03920989       0.91662209
14
Frame=3 idx=000559 GeodesicLength=0.26399193394161674 rxn_smarts="[C:1]1([H:7])([H:8])[C@@:2]2([H:9])[C:3]([H:10])([H:11])[C:4]([H:12])([H:13])[O:5][C@@:6]12[H:14]>>[C:1]1([H:7])([H:8])[C@:2]2([H:9])[C@@:3]1([H:10])[C:4]([H:12])([H:13])[O:5][C:6]2([H:11])[H:14]"
C        1.50466117       0.43952468      -0.56891501
C        0.73911059       0.28673830       0.61501198
C       -0.65536747       0.81523233       0.34436129
C       -1.33924528      -0.10203145      -0.62708450
O       -0.67202145      -1.35859121      -0.41557283
C        0.17021387      -1.13835745       0.64119114
H        1.20747085       0.11667479      -1.55672654
H        2.49455597       0.87717863      -0.52612266
H        1.17231464       0.59227201       1.56039758
H       -0.89456271       1.87521257       0.32630032
H       -0.80569860      -0.29893474       1.38772462
H       -1.25091171       0.15230018      -1.68434787
H       -2.40228479      -0.22223367      -0.39661039
H        0.73176494      -2.03498495       0.90039286
14
Frame=4 idx=000559 GeodesicLength=0.35201430509472736 rxn_smarts="[C:1]1([H:7])([H:8])[C@@:2]2([H:9])[C:3]([H:10])([H:11])[C:4]([H:12])([H:13])[O:5][C@@:6]12[H:14]>>[C:1]1([H:7])([H:8])[C@:2]2([H:9])[C@@:3]1([H:10])[C:4]([H:12])([H:13])[O:5][C:6]2([H:11])[H:14]"
C        1.48659424       0.43038050      -0.55980828
C        0.73733129       0.28872699       0.63830649
C       -0.64627307       0.81972799       0.33421265
C       -1.33877883      -0.10175246      -0.62970568
O       -0.66360148      -1.35436821      -0.42770508
C        0.18242494      -1.13657440       0.63067452
H        1.20295692       0.11422475      -1.55329547
H        2.47757376       0.86644313      -0.51941838
H        1.17117374       0.59424796       1.58234271
H       -0.87163890       1.88190676       0.29775163
H       -0.81708524      -0.29888697       1.39233816
H       -1.27290219       0.15455639      -1.68794124
H       -2.39756058      -0.22805572      -0.38205217
H        0.74978539      -2.03057670       0.88430014
14
Frame=5 idx=000559 GeodesicLength=0.44005479767822264 rxn_smarts="[C:1]1([H:7])([H:8])[C@@:2]2([H:9])[C:3]([H:10])([H:11])[C:4]([H:12])([H:13])[O:5][C@@:6]12[H:14]>>[C:1]1([H:7])([H:8])[C@:2]2([H:9])[C@@:3]1([H:10])[C:4]([H:12])([H:13])[O:5][C:6]2([H:11])[H:14]"
C        1.46881953       0.42140879      -0.55078361
C        0.73511761       0.29032955       0.66080977
C       -0.63699326       0.82412409       0.32391181
C       -1.33842515      -0.10149487      -0.63226468
O       -0.65554413      -1.35017559      -0.43960400
C        0.19465924      -1.13470027       0.62010051
H        1.19903676       0.11219467      -1.54988949
H        2.46076921       0.85607313      -0.51215618
H        1.16969795       0.59589417       1.60350511
H       -0.84837059       1.88803757       0.26934533
H       -0.82865263      -0.29849271       1.39717869
H       -1.29521317       0.15644224      -1.69109034
H       -2.39264216      -0.23364980      -0.36740026
H        0.76774079      -2.02599095       0.86833735
14
Frame=6 idx=000559 GeodesicLength=0.5281184119422733 rxn_smarts="[C:1]1([H:7])([H:8])[C@@:2]2([H:9])[C:3]([H:10])([H:11])[C:4]([H:12])([H:13])[O:5][C@@:6]12[H:14]>>[C:1]1([H:7])([H:8])[C@:2]2([H:9])[C@@:3]1([H:10])[C:4]([H:12])([H:13])[O:5][C:6]2([H:11])[H:14]"
C        1.45135308       0.41261922      -0.54187521
C        0.73247026       0.29155633       0.68252707
C       -0.62755418       0.82841345       0.31348400
C       -1.33817107      -0.10125215      -0.63476268
O       -0.64783006      -1.34601222      -0.45128301
C        0.20690516      -1.13274524       0.60947756
H        1.19569469       0.11051895      -1.54649025
H        2.44416463       0.84607138      -0.50438608
H        1.16789474       0.59722279       1.62388369
H       -0.82480358       1.89360270       0.24112656
H       -0.84043614      -0.29773606       1.40227124
H       -1.31780455       0.15799633      -1.69377451
H       -2.38752314      -0.23902321      -0.35269674
H        0.78564019      -2.02123227       0.85249837
14
Frame=7 idx=000559 GeodesicLength=0.6162030741076208 rxn_smarts="[C:1]1([H:7])([H:8])[C@@:2]2([H:9])[C:3]([H:10])([H:11])[C:4]([H:12])([H:13])[O:5][C@@:6]12[H:14]>>[C:1]1([H:7])([H:8])[C@:2]2([H:9])[C@@:3]1([H:10])[C:4]([H:12])([H:13])[O:5][C:6]2([H:11])[H:14]"
C        1.43420825       0.40402134      -0.53311321
C        0.72939046       0.29241531       0.70346775
C       -0.61797977       0.83258975       0.30295508
C       -1.33800177      -0.10101966      -0.63720261
O       -0.64043526      -1.34187747      -0.46275897
C        0.21915123      -1.13071826       0.59882000
H        1.19291064       0.10913478      -1.54308518
H        2.42777659       0.83643868      -0.49616072
H        1.16577308       0.59824431       1.64348097
H       -0.80097983       1.89860467       0.21313723
H       -0.85247188      -0.29660146       1.40763804
H       -1.34063659       0.15926014      -1.69597525
H       -2.38219764      -0.24418717      -0.33798240
H        0.80349251      -2.01630496       0.83677926
14
Frame=8 idx=000559 GeodesicLength=0.7043154192150181 rxn_smarts="[C:1]1([H:7])([H:8])[C@@:2]2([H:9])[C:3]([H:10])([H:11])[C:4]([H:12])([H:13])[O:5][C@@:6]12[H:14]>>[C:1]1([H:7])([H:8])[C@:2]2([H:9])[C@@:3]1([H:10])[C:4]([H:12])([H:13])[O:5][C:6]2([H:11])[H:14]"
C        1.41739551       0.39561631      -0.52452346
C        0.72588285       0.29291240       0.72364808
C       -0.60829149       0.83664786       0.29234600
C       -1.33790258      -0.10079367      -0.63958525
O       -0.63333405      -1.33777075      -0.47404657
C        0.23139042      -1.12862918       0.58814023
H        1.19066288       0.10798836      -1.53966278
H        2.41161821       0.82717380      -0.48753012
H        1.16334347       0.59896627       1.66230686
H       -0.77694214       1.90304804       0.18540929
H       -0.86479843      -0.29506237       1.41329879
H       -1.36367434       0.16027277      -1.69767303
H       -2.37666012      -0.24915541      -0.32329586
H        0.82130982      -2.01121444       0.82116783
14
Frame=9 idx=000559 GeodesicLength=0.7924385000360836 rxn_smarts="[C:1]1([H:7])([H:8])[C@@:2]2([H:9])[C:3]([H:10])([H:11])[C:4]([H:12])([H:13])[O:5][C@@:6]12[H:14]>>[C:1]1([H:7])([H:8])[C@:2]2([H:9])[C@@:3]1([H:10])[C:4]([H:12])([H:13])[O:5][C:6]2([H:11])[H:14]"
C        1.40091989       0.38740916      -0.51610603
C        0.72196516       0.29305448       0.74307322
C       -0.59850585       0.84057901       0.28167034
C       -1.33787210      -0.10057698      -0.64191143
O       -0.62651874      -1.33369639      -0.48515950
C        0.24361261      -1.12649620       0.57743119
H        1.18894006       0.10704731      -1.53620498
H        2.39568569       0.81826774      -0.47850722
H        1.16062197       0.59939164       1.68036772
H       -0.75273068       1.90692078       0.15794389
H       -0.87740454      -0.29306602       1.41927158
H       -1.38689541       0.16108217      -1.69886327
H       -2.37092103      -0.25395149      -0.30865867
H        0.83910297      -2.00596520       0.80565316
14
Frame=10 idx=000559 GeodesicLength=0.8805837463164983 rxn_smarts="[C:1]1([H:7])([H:8])[C@@:2]2([H:9])[C:3]([H:10])([H:11])[C:4]([H:12])([H:13])[O:5][C@@:6]12[H:14]>>[C:1]1([H:7])([H:8])[C@:2]2([H:9])[C@@:3]1([H:10])[C:4]([H:12])([H:13])[O:5][C:6]2([H:11])[H:14]"
C        1.38478796       0.37939569      -0.50790688
C        0.71762918       0.29284723       0.76177011
C       -0.58863987       0.84438520       0.27095427
C       -1.33788341      -0.10036213      -0.64418668
O       -0.61994814      -1.32964628      -0.49611455
C        0.25581461      -1.12432129       0.56671978
H        1.18770452       0.10625993      -1.53272469
H        2.38000156       0.80971736      -0.46917167
H        1.15760982       0.59953125       1.69767891
H       -0.72837883       1.91024804       0.13081114
H       -0.89036686      -0.29061824       1.42557196
H       -1.41024838       0.16170453      -1.69952803
H       -2.36496378      -0.25858181      -0.29411562
H        0.85688161      -2.00055946       0.79024197
14
Frame=11 idx=000559 GeodesicLength=0.9687452235059106 rxn_smarts="[C:1]1([H:7])([H:8])[C@@:2]2([H:9])[C:3]([H:10])([H:11])[C:4]([H:12])([H:13])[O:5][C@@:6]12[H:14]>>[C:1]1([H:7])([H:8])[C@:2]2([H:9])[C@@:3]1([H:10])[C:4]([H:12])([H:13])[O:5][C:6]2([H:11])[H:14]"
C        1.36900291       0.37157027      -0.49994298
C        0.71288114       0.29229488       0.77975734
C       -0.57870702       0.84806362       0.26021483
C       -1.33792399      -0.10014713      -0.64641304
O       -0.61359853      -1.32561840      -0.50692642
C        0.26799240      -1.12211408       0.55601442
H        1.18693317       0.10559334      -1.52922154
H        2.36457014       0.80151380      -0.45956432
H        1.15431355       0.59939185       1.71425443
H       -0.70391978       1.91304392       0.10403701
H       -0.90371403      -0.28769427       1.43221363
H       -1.43369947       0.16216669      -1.69965722
H       -2.35878758      -0.26306395      -0.27969313
H        0.87465709      -1.99500054       0.77492700
14
Frame=12 idx=000559 GeodesicLength=1.0569188703500187 rxn_smarts="[C:1]1([H:7])([H:8])[C@@:2]2([H:9])[C:3]([H:10])([H:11])[C:4]([H:12])([H:13])[O:5][C@@:6]12[H:14]>>[C:1]1([H:7])([H:8])[C@:2]2([H:9])[C@@:3]1([H:10])[C:4]([H:12])([H:13])[O:5][C:6]2([H:11])[H:14]"
C        1.35356414       0.36392941      -0.49222965
C        0.70772942       0.29140073       0.79705465
C       -0.56871817       0.85161208       0.24946609
C       -1.33798117      -0.09993200      -0.64859331
O       -0.60744593      -1.32161148      -0.51760980
C        0.28014370      -1.11988389       0.54532384
H        1.18660132       0.10501750      -1.52569756
H        2.34939362       0.79364679      -0.44972636
H        1.15074025       0.59897587       1.73011198
H       -0.67938643       1.91532003       0.07764959
H       -0.91747636      -0.28426212       1.43920792
H       -1.45721413       0.16249342      -1.69924528
H       -2.35239198      -0.26741508      -0.26541404
H        0.89244173      -1.98929126       0.75970193
14
Frame=13 idx=000559 GeodesicLength=1.1451001415852433 rxn_smarts="[C:1]1([H:7])([H:8])[C@@:2]2([H:9])[C:3]([H:10])([H:11])[C:4]([H:12])([H:13])[O:5][C@@:6]12[H:14]>>[C:1]1([H:7])([H:8])[C@:2]2([H:9])[C@@:3]1([H:10])[C:4]([H:12])([H:13])[O:5][C:6]2([H:11])[H:14]"
C        1.33846930       0.35646587      -0.48477910
C        0.70218273       0.29016463       0.81368268
C       -0.55868246       0.85502718       0.23872230
C       -1.33804434      -0.09971734      -0.65072942
O       -0.60146874      -1.31762421      -0.52817820
C        0.29226777      -1.11764028       0.53465430
H        1.18668547       0.10451197      -1.52215587
H        2.33447170       0.78610663      -0.43969351
H        1.14689673       0.59828544       1.74526831
H       -0.65480574       1.91709184       0.05166792
H       -0.93168065      -0.28029094       1.44656543
H       -1.48076141       0.16270528      -1.69828619
H       -2.34577773      -0.27165296      -0.25129918
H        0.91024737      -1.98343312       0.74456053
14
Frame=14 idx=000559 GeodesicLength=1.2332921062913287 rxn_smarts="[C:1]1([H:7])([H:8])[C@@:2]2([H:9])[C:3]([H:10])([H:11])[C:4]([H:12])([H:13])[O:5][C@@:6]12[H:14]>>[C:1]1([H:7])([H:8])[C@:2]2([H:9])[C@@:3]1([H:10])[C:4]([H:12])([H:13])[O:5][C:6]2([H:11])[H:14]"
C        1.32371601       0.34917041      -0.47760022
C        0.69624742       0.28858875       0.82966377
C       -0.54860708       0.85830728       0.22799452
C       -1.33810321      -0.09950365      -0.65282224
O       -0.59564384      -1.31365509      -0.53864648
C        0.30436731      -1.11539214       0.52400738
H        1.18716289       0.10405947      -1.51860118
H        2.31979919       0.77887958      -0.42949797
H        1.14278829       0.59731949       1.75974459
H       -0.63020231       1.91837199       0.02610480
H       -0.94635385      -0.27574504       1.45429568
H       -1.50431529       0.16282247      -1.69677327
H       -2.33894451      -0.27579622      -0.23736456
H        0.92808897      -1.97742730       0.72949519
14
Frame=15 idx=000559 GeodesicLength=1.32149046959045 rxn_smarts="[C:1]1([H:7])([H:8])[C@@:2]2([H:9])[C:3]([H:10])([H:11])[C:4]([H:12])([H:13])[O:5][C@@:6]12[H:14]>>[C:1]1([H:7])([H:8])[C@:2]2([H:9])[C@@:3]1([H:10])[C:4]([H:12])([H:13])[O:5][C:6]2([H:11])[H:14]"
C        1.30930023       0.34203427      -0.47070217
C        0.68993205       0.28667238       0.84501553
C       -0.53849676       0.86145018       0.21729308
C       -1.33814947      -0.09929395      -0.65487457
O       -0.58995266      -1.30970362      -0.54902651
C        0.31644507      -1.11314723       0.51338428
H        1.18801221       0.10364899      -1.51504082
H        2.30537286       0.77195375      -0.41916945
H        1.13841738       0.59607344       1.77355943
H       -0.60559955       1.91917124       0.00098161
H       -0.96151805      -0.27058180       1.46240528
H       -1.52784745       0.16285987      -1.69470383
H       -2.33189488      -0.27986415      -0.22362442
H        0.94597900      -1.97127335       0.71450257
14
Frame=16 idx=000559 GeodesicLength=1.4096939646096196 rxn_smarts="[C:1]1([H:7])([H:8])[C@@:2]2([H:9])[C:3]([H:10])([H:11])[C:4]([H:12])([H:13])[O:5][C@@:6]12[H:14]>>[C:1]1([H:7])([H:8])[C@:2]2([H:9])[C@@:3]1([H:10])[C:4]([H:12])([H:13])[O:5][C:6]2([H:11])[H:14]"
C        1.29521567       0.33504942      -0.46409089
C        0.68324411       0.28441275       0.85975918
C       -0.52835590       0.86445269       0.20662826
C       -1.33817507      -0.09909066      -0.65688745
O       -0.58437501      -1.30576907      -0.55933281
C        0.32850444      -1.11091336       0.50278629
H        1.18921373       0.10327091      -1.51148068
H        2.29118645       0.76531607      -0.40873484
H        1.13378808       0.59454356       1.78673247
H       -0.58101733       1.91950181      -0.02369123
H       -0.97719564      -0.26475956       1.47089980
H       -1.55133444       0.16283258      -1.69207447
H       -2.32463023      -0.28387653      -0.21008906
H        0.96393115      -1.96497060       0.69957543
