19
Frame=0 idx=009273 GeodesicLength=0.0 rxn_smarts="[C:1]([O:2][C:3]([C@@:4]([C:5]([H:14])([H:15])[H:16])([C:6]([O:7][H:19])([H:17])[H:18])[H:13])([H:11])[H:12])([H:8])([H:9])[H:10]>>[C:1]([O:2][C:3]([C:4]([C:5]([H:14])([H:15])[H:16])([H:13])[H:17])([H:11])[H:12])([H:8])([H:9])[H:10].[C:6]([O:7][H:19])[H:18]"
C        2.52738934       0.29645453      -0.65594089
O        1.15057456       0.56447851      -0.56830851
C        0.40137816      -0.56716985      -0.17850477
C       -1.07342241      -0.26524237      -0.12888585
C       -1.88339030      -1.47855496       0.28653910
C       -1.02491282       1.57843694       1.08756848
O       -0.78722743       2.49031797       0.13379693
H        2.73258925      -0.48698697      -1.39564523
H        3.02289451       1.21470131      -0.96735899
H        2.93421025      -0.02111149       0.31233931
H        0.58131573      -1.38071185      -0.90253478
H        0.75091724      -0.92885868       0.80037998
H       -1.41202169       0.16574748      -1.07318193
H       -2.95131911      -1.25738703       0.29704499
H       -1.60280045      -1.81447363       1.28794154
H       -1.72375968      -2.31563515      -0.40054010
H       -1.65556479       0.59813271       0.71217389
H       -0.10204270       1.21300761       1.55399911
H        0.11519236       2.39485485      -0.20088219
19
Frame=1 idx=009273 GeodesicLength=0.06310053602233943 rxn_smarts="[C:1]([O:2][C:3]([C@@:4]([C:5]([H:14])([H:15])[H:16])([C:6]([O:7][H:19])([H:17])[H:18])[H:13])([H:11])[H:12])([H:8])([H:9])[H:10]>>[C:1]([O:2][C:3]([C:4]([C:5]([H:14])([H:15])[H:16])([H:13])[H:17])([H:11])[H:12])([H:8])([H:9])[H:10].[C:6]([O:7][H:19])[H:18]"
C        2.52521636       0.29970719      -0.65721802
O        1.14696856       0.56302443      -0.57693855
C        0.39910850      -0.56787339      -0.18179506
C       -1.07587936      -0.26298497      -0.12610962
C       -1.88183808      -1.48087610       0.28728440
C       -1.01992284       1.58434867       1.09136387
O       -0.76617295       2.49734106       0.14235988
H        2.73585747      -0.48737028      -1.39142795
H        3.01870292       1.21799108      -0.97170471
H        2.92895576      -0.01049001       0.31469359
H        0.57849308      -1.38165194      -0.90526242
H        0.75146924      -0.92869243       0.79641100
H       -1.41307480       0.15769308      -1.07599581
H       -2.95089669      -1.26514242       0.29532907
H       -1.60188531      -1.81586116       1.28918098
H       -1.71969112      -2.31757003      -0.39946288
H       -1.67976329       0.60773290       0.70245062
H       -0.10473570       1.21474970       1.57143449
H        0.12908825       2.37592462      -0.20459291
19
Frame=2 idx=009273 GeodesicLength=0.12621450925035393 rxn_smarts="[C:1]([O:2][C:3]([C@@:4]([C:5]([H:14])([H:15])[H:16])([C:6]([O:7][H:19])([H:17])[H:18])[H:13])([H:11])[H:12])([H:8])([H:9])[H:10]>>[C:1]([O:2][C:3]([C:4]([C:5]([H:14])([H:15])[H:16])([H:13])[H:17])([H:11])[H:12])([H:8])([H:9])[H:10].[C:6]([O:7][H:19])[H:18]"
C        2.52304854       0.30298695      -0.65857805
O        1.14340117       0.56148218      -0.58565103
C        0.39690335      -0.56867286      -0.18519748
C       -1.07825978      -0.26074926      -0.12357784
C       -1.88027969      -1.48301908       0.28816908
C       -1.01494188       1.58987849       1.09525975
O       -0.74478519       2.50400572       0.15141279
H        2.73916708      -0.48765060      -1.38726655
H        3.01447512       1.22132566      -0.97610682
H        2.92366140       0.00016605       0.31690883
H        0.57576085      -1.38273847      -0.90803373
H        0.75203486      -0.92852271       0.79237555
H       -1.41396257       0.14934556      -1.07906836
H       -2.95041310      -1.27261009       0.29368022
H       -1.60102010      -1.81672249       1.29069499
H       -1.71563669      -2.31956747      -0.39794934
H       -1.70393201       0.61761111       0.69153364
H       -0.10768001       1.21634392       1.58911299
H        0.14245864       2.35710737      -0.20771866
19
Frame=3 idx=009273 GeodesicLength=0.18933378873667617 rxn_smarts="[C:1]([O:2][C:3]([C@@:4]([C:5]([H:14])([H:15])[H:16])([C:6]([O:7][H:19])([H:17])[H:18])[H:13])([H:11])[H:12])([H:8])([H:9])[H:10]>>[C:1]([O:2][C:3]([C:4]([C:5]([H:14])([H:15])[H:16])([H:13])[H:17])([H:11])[H:12])([H:8])([H:9])[H:10].[C:6]([O:7][H:19])[H:18]"
C        2.52088284       0.30629915      -0.66002149
O        1.13987086       0.55985773      -0.59444042
C        0.39476213      -0.56956503      -0.18871064
C       -1.08056596      -0.25853345      -0.12129835
C       -1.87871760      -1.48498149       0.28919684
C       -1.00997593       1.59503183       1.09925901
O       -0.72306379       2.51028665       0.16095466
H        2.74251133      -0.48781276      -1.38317164
H        3.01020881       1.22471338      -0.98055393
H        2.91832591       0.01084921       0.31897882
H        0.57312064      -1.38396916      -0.91084549
H        0.75261245      -0.92834467       0.78827617
H       -1.41469116       0.14069758      -1.08239987
H       -2.94987076      -1.27978162       0.29212184
H       -1.60019848      -1.81706345       1.29247785
H       -1.71160832      -2.32161982      -0.39600294
H       -1.72802520       0.62775361       0.67941614
H       -0.11090581       1.21778236       1.60704626
H        0.15532804       2.33839996      -0.21028284
19
Frame=4 idx=009273 GeodesicLength=0.25244686498464103 rxn_smarts="[C:1]([O:2][C:3]([C@@:4]([C:5]([H:14])([H:15])[H:16])([C:6]([O:7][H:19])([H:17])[H:18])[H:13])([H:11])[H:12])([H:8])([H:9])[H:10]>>[C:1]([O:2][C:3]([C:4]([C:5]([H:14])([H:15])[H:16])([H:13])[H:17])([H:11])[H:12])([H:8])([H:9])[H:10].[C:6]([O:7][H:19])[H:18]"
C        2.51871578       0.30965015      -0.66154749
O        1.13637527       0.55815706      -0.60330334
C        0.39268361      -0.57054673      -0.19233417
C       -1.08280062      -0.25633524      -0.11927912
C       -1.87715464      -1.48675971       0.29037059
C       -1.00502668       1.59981397       1.10336627
O       -0.70099940       2.51615226       0.17099035
H        2.74588604      -0.48784342      -1.37914968
H        3.00590034       1.22816372      -0.98503650
H        2.91294626       0.02155644       0.32090119
H        0.57057325      -1.38534143      -0.91369586
H        0.75319980      -0.92815383       0.78411428
H       -1.41526781       0.13174256      -1.08598994
H       -2.94927258      -1.28664728       0.29067655
H       -1.59941460      -1.81688764       1.29452436
H       -1.70761722      -2.32371905      -0.39362699
H       -1.75199612       0.63814649       0.66609217
H       -0.11444101       1.21905326       1.62524490
H        0.16771034       2.31979843      -0.21231756
19
Frame=5 idx=009273 GeodesicLength=0.31553565837882724 rxn_smarts="[C:1]([O:2][C:3]([C@@:4]([C:5]([H:14])([H:15])[H:16])([C:6]([O:7][H:19])([H:17])[H:18])[H:13])([H:11])[H:12])([H:8])([H:9])[H:10]>>[C:1]([O:2][C:3]([C:4]([C:5]([H:14])([H:15])[H:16])([H:13])[H:17])([H:11])[H:12])([H:8])([H:9])[H:10].[C:6]([O:7][H:19])[H:18]"
C        2.51654425       0.31304574      -0.66315609
O        1.13291269       0.55638572      -0.61223579
C        0.39066726      -0.57161500      -0.19606727
C       -1.08496593      -0.25415362      -0.11752798
C       -1.87559368      -1.48835004       0.29169222
C       -1.00009828       1.60423066       1.10758349
O       -0.67859037       2.52157241       0.18151727
H        2.74928567      -0.48773068      -1.37520960
H        3.00154616       1.23168535      -0.98954703
H        2.90752142       0.03228321       0.32267253
H        0.56812037      -1.38685320      -0.91658206
H        0.75379527      -0.92794516       0.77989196
H       -1.41569932       0.12247507      -1.08983665
H       -2.94862128      -1.29319749       0.28936701
H       -1.59866199      -1.81619827       1.29682850
H       -1.70367438      -2.32585654      -0.39082521
H       -1.77579732       0.64877420       0.65155858
H       -0.11831626       1.22014920       1.64371759
H        0.17962569       2.30129844      -0.21384147
19
Frame=6 idx=009273 GeodesicLength=0.3786092674707347 rxn_smarts="[C:1]([O:2][C:3]([C@@:4]([C:5]([H:14])([H:15])[H:16])([C:6]([O:7][H:19])([H:17])[H:18])[H:13])([H:11])[H:12])([H:8])([H:9])[H:10]>>[C:1]([O:2][C:3]([C:4]([C:5]([H:14])([H:15])[H:16])([H:13])[H:17])([H:11])[H:12])([H:8])([H:9])[H:10].[C:6]([O:7][H:19])[H:18]"
C        2.51436446       0.31649095      -0.66484779
O        1.12948041       0.55454989      -0.62123609
C        0.38871114      -0.57276487      -0.19990714
C       -1.08706532      -0.25198495      -0.11604874
C       -1.87403623      -1.48975140       0.29316220
C       -0.99518745       1.60829227       1.11191735
O       -0.65582745       2.52651322       0.19253245
H        2.75270548      -0.48746641      -1.37135466
H        2.99714225       1.23528461      -0.99408252
H        2.90204840       0.04302969       0.32429064
H        0.56576187      -1.38850109      -0.91949884
H        0.75439638      -0.92771062       0.77561331
H       -1.41599356       0.11289243      -1.09393437
H       -2.94792006      -1.29942745       0.28820855
H       -1.59793469      -1.81500425       1.29938065
H       -1.69978767      -2.32802339      -0.38760572
H       -1.79939302       0.65961993       0.63582164
H       -0.12255655       1.22106392       1.66247161
H        0.19109162       2.28289751      -0.21488252
19
Frame=7 idx=009273 GeodesicLength=0.4416676548828504 rxn_smarts="[C:1]([O:2][C:3]([C@@:4]([C:5]([H:14])([H:15])[H:16])([C:6]([O:7][H:19])([H:17])[H:18])[H:13])([H:11])[H:12])([H:8])([H:9])[H:10]>>[C:1]([O:2][C:3]([C:4]([C:5]([H:14])([H:15])[H:16])([H:13])[H:17])([H:11])[H:12])([H:8])([H:9])[H:10].[C:6]([O:7][H:19])[H:18]"
C        2.51217297       0.31999028      -0.66662383
O        1.12607648       0.55265525      -0.63030167
C        0.38681367      -0.57399162      -0.20385092
C       -1.08910167      -0.24982643      -0.11484388
C       -1.87248427      -1.49096161       0.29478072
C       -0.99029223       1.61201107       1.11637201
O       -0.63271722       2.53094103       0.20402129
H        2.75613984      -0.48704324      -1.36759221
H        2.99268487       1.23896742      -0.99864089
H        2.89652652       0.05379254       0.32575274
H        0.56349782      -1.39028146      -0.92244093
H        0.75500113      -0.92744273       0.77128209
H       -1.41615742       0.10299216      -1.09827399
H       -2.94717225      -1.30533253       0.28721554
H       -1.59722705      -1.81331357       1.30217185
H       -1.69596540      -2.33021030      -0.38397660
H       -1.82274407       0.67066377       0.61888537
H       -0.12718525       1.22179752       1.68151071
H        0.20213352       2.26459245      -0.21544740
19
Frame=8 idx=009273 GeodesicLength=0.5047168898038086 rxn_smarts="[C:1]([O:2][C:3]([C@@:4]([C:5]([H:14])([H:15])[H:16])([C:6]([O:7][H:19])([H:17])[H:18])[H:13])([H:11])[H:12])([H:8])([H:9])[H:10]>>[C:1]([O:2][C:3]([C:4]([C:5]([H:14])([H:15])[H:16])([H:13])[H:17])([H:11])[H:12])([H:8])([H:9])[H:10].[C:6]([O:7][H:19])[H:18]"
C        2.50996596       0.32354843      -0.66848436
O        1.12269786       0.55070726      -0.63943256
C        0.38497250      -0.57529032      -0.20789687
C       -1.09107884      -0.24767454      -0.11391687
C       -1.87093919      -1.49197959       0.29654670
C       -0.98540539       1.61539733       1.12095302
O       -0.60924549       2.53482056       0.21598681
H        2.75958486      -0.48645574      -1.36392145
H        2.98816933       1.24273875      -1.00322256
H        2.89095045       0.06457934       0.32705799
H        0.56132751      -1.39219100      -0.92540401
H        0.75560669      -0.92713334       0.76690148
H       -1.41619921       0.09277263      -1.10284808
H       -2.94638066      -1.31090915       0.28640165
H       -1.59653366      -1.81113209       1.30519311
H       -1.69221301      -2.33240821      -0.37994547
H       -1.84581866       0.68188892       0.60075686
H       -0.13222707       1.22234211       1.70084038
H        0.21276601       2.24637863      -0.21556575
19
Frame=9 idx=009273 GeodesicLength=0.5676677845942832 rxn_smarts="[C:1]([O:2][C:3]([C@@:4]([C:5]([H:14])([H:15])[H:16])([C:6]([O:7][H:19])([H:17])[H:18])[H:13])([H:11])[H:12])([H:8])([H:9])[H:10]>>[C:1]([O:2][C:3]([C:4]([C:5]([H:14])([H:15])[H:16])([H:13])[H:17])([H:11])[H:12])([H:8])([H:9])[H:10].[C:6]([O:7][H:19])[H:18]"
C        2.50773867       0.32717681      -0.67042761
O        1.11933950       0.54871093      -0.64863130
C        0.38318663      -0.57665953      -0.21204807
C       -1.09299954      -0.24552861      -0.11327905
C       -1.86940453      -1.49279584       0.29846472
C       -0.98053181       1.61844830       1.12566063
O       -0.58537654       2.53808860       0.22844487
H        2.76304240      -0.48569258      -1.36034290
H        2.98358523       1.24661470      -1.00782409
H        2.88531558       0.07539839       0.32821206
H        0.55925203      -1.39422854      -0.92838983
H        0.75621144      -0.92677869       0.76246955
H       -1.41612882       0.08222284      -1.10765505
H       -2.94554985      -1.31613414       0.28578951
H       -1.59584750      -1.80845060       1.30844103
H       -1.68854244      -2.33460692      -0.37550860
H       -1.86855155       0.69328926       0.58142403
H       -0.13771636       1.22267737       1.72046742
H        0.22297744       2.22824827      -0.21526733
19
Frame=10 idx=009273 GeodesicLength=0.6306456312087684 rxn_smarts="[C:1]([O:2][C:3]([C@@:4]([C:5]([H:14])([H:15])[H:16])([C:6]([O:7][H:19])([H:17])[H:18])[H:13])([H:11])[H:12])([H:8])([H:9])[H:10]>>[C:1]([O:2][C:3]([C:4]([C:5]([H:14])([H:15])[H:16])([H:13])[H:17])([H:11])[H:12])([H:8])([H:9])[H:10].[C:6]([O:7][H:19])[H:18]"
C        2.50548850       0.33087019      -0.67245986
O        1.11600185       0.54667256      -0.65789030
C        0.38145270      -0.57808946      -0.21629258
C       -1.09486803      -0.24338240      -0.11291792
C       -1.86787807      -1.49341992       0.30052545
C       -0.97565528       1.62119013       1.13050850
O       -0.56115718       2.54074726       0.24135063
H        2.76649753      -0.48475897      -1.35686725
H        2.97893464       1.25058627      -1.01245544
H        2.87962577       0.08623981       0.32920537
H        0.55726889      -1.39638636      -0.93138318
H        0.75681225      -0.92636459       0.75799909
H       -1.41594944       0.07135730      -1.11267135
H       -2.94468114      -1.32102997       0.28537013
H       -1.59516679      -1.80529642       1.31190032
H       -1.68494701      -2.33680115      -0.37069010
H       -1.89096276       0.70482870       0.56091664
H       -0.14365116       1.22283617       1.74038663
H        0.23283471       2.21020082      -0.21453479
19
Frame=11 idx=009273 GeodesicLength=0.6936273373374356 rxn_smarts="[C:1]([O:2][C:3]([C@@:4]([C:5]([H:14])([H:15])[H:16])([C:6]([O:7][H:19])([H:17])[H:18])[H:13])([H:11])[H:12])([H:8])([H:9])[H:10]>>[C:1]([O:2][C:3]([C:4]([C:5]([H:14])([H:15])[H:16])([H:13])[H:17])([H:11])[H:12])([H:8])([H:9])[H:10].[C:6]([O:7][H:19])[H:18]"
C        2.50321195       0.33463413      -0.67458338
O        1.11268164       0.54459827      -0.66720909
C        0.37976929      -0.57957528      -0.22062892
C       -1.09668751      -0.24123266      -0.11283765
C       -1.86636105      -1.49384605       0.30272972
C       -0.97077006       1.62362778       1.13550327
O       -0.53657637       2.54274473       0.25470937
H        2.76994639      -0.48364825      -1.35349602
H        2.97421157       1.25465881      -1.01712066
H        2.87387869       0.09711105       0.33003418
H        0.55537809      -1.39866085      -0.93438065
H        0.75740737      -0.92588230       0.75349307
H       -1.41566782       0.06017293      -1.11788966
H       -2.94377779      -1.32558795       0.28515187
H       -1.59448715      -1.80166462       1.31556594
H       -1.68142941      -2.33898159      -0.36548858
H       -1.91301777       0.71649399       0.53922674
H       -0.15005971       1.22280941       1.76060323
H        0.24234965       2.19222843      -0.21338277
19
Frame=12 idx=009273 GeodesicLength=0.756653270515528 rxn_smarts="[C:1]([O:2][C:3]([C@@:4]([C:5]([H:14])([H:15])[H:16])([C:6]([O:7][H:19])([H:17])[H:18])[H:13])([H:11])[H:12])([H:8])([H:9])[H:10]>>[C:1]([O:2][C:3]([C:4]([C:5]([H:14])([H:15])[H:16])([H:13])[H:17])([H:11])[H:12])([H:8])([H:9])[H:10].[C:6]([O:7][H:19])[H:18]"
C        2.50090621       0.33846711      -0.67680185
O        1.10937779       0.54249439      -0.67658085
C        0.37813365      -0.58111028      -0.22504952
C       -1.09846188      -0.23907401      -0.11303205
C       -1.86485238      -1.49407733       0.30507239
C       -0.96586839       1.62577332       1.14065596
O       -0.51166608       2.54406985       0.26849486
H        2.77337886      -0.48236249      -1.35023895
H        2.96941442       1.25883073      -1.02182603
H        2.86807784       0.10800434       0.33069569
H        0.55357738      -1.40104495      -0.93737399
H        0.75799402      -0.92532355       0.74895915
H       -1.41528794       0.04867665      -1.12329174
H       -2.94284157      -1.32981547       0.28513174
H       -1.59380737      -1.79756764       1.31942715
H       -1.67798562      -2.34114202      -0.35991810
H       -1.93471279       0.72825522       0.51636663
H       -0.15693872       1.22261927       1.78111363
H        0.25156258       2.17432688      -0.21180412
19
Frame=13 idx=009273 GeodesicLength=0.8197130805905238 rxn_smarts="[C:1]([O:2][C:3]([C@@:4]([C:5]([H:14])([H:15])[H:16])([C:6]([O:7][H:19])([H:17])[H:18])[H:13])([H:11])[H:12])([H:8])([H:9])[H:10]>>[C:1]([O:2][C:3]([C:4]([C:5]([H:14])([H:15])[H:16])([H:13])[H:17])([H:11])[H:12])([H:8])([H:9])[H:10].[C:6]([O:7][H:19])[H:18]"
C        2.49856703       0.34237606      -0.67911649
O        1.10608592       0.54036689      -0.68600611
C        0.37654371      -0.58268998      -0.22955372
C       -1.10019477      -0.23690363      -0.11350407
C       -1.86335310      -1.49411012       0.30755349
C       -0.96094070       1.62763001       1.14597464
O       -0.48640473       2.54467388       0.28271865
H        2.77679248      -0.48089765      -1.34709455
H        2.96453610       1.26310785      -1.02657741
H        2.86222027       0.11893038       0.33119016
H        0.55186607      -1.40353439      -0.94036169
H        0.75857061      -0.92468123       0.74439873
H       -1.41481710       0.03686837      -1.12886917
H       -2.94187547      -1.33370693       0.28531460
H       -1.59312462      -1.79300063       1.32348140
H       -1.67461571      -2.34327653      -0.35397726
H       -1.95602620       0.74010118       0.49232873
H       -0.16430852       1.22225981       1.80191987
H        0.26047872       2.15648665      -0.20981980
19
Frame=14 idx=009273 GeodesicLength=0.8828271547680749 rxn_smarts="[C:1]([O:2][C:3]([C@@:4]([C:5]([H:14])([H:15])[H:16])([C:6]([O:7][H:19])([H:17])[H:18])[H:13])([H:11])[H:12])([H:8])([H:9])[H:10]>>[C:1]([O:2][C:3]([C:4]([C:5]([H:14])([H:15])[H:16])([H:13])[H:17])([H:11])[H:12])([H:8])([H:9])[H:10].[C:6]([O:7][H:19])[H:18]"
C        2.49619208       0.34635961      -0.68153169
O        1.10280482       0.53822232      -0.69547769
C        0.37499733      -0.58430815      -0.23413489
C       -1.10188967      -0.23471653      -0.11424876
C       -1.86186249      -1.49394418       0.31016896
C       -0.95597928       1.62920577       1.15147131
O       -0.46082088       2.54454071       0.29736432
H        2.78017714      -0.47925463      -1.34407209
H        2.95957463       1.26748788      -1.03138259
H        2.85630937       0.12988481       0.33151157
H        0.55024230      -1.40612240      -0.94333691
H        0.75913477      -0.92394707       0.73981838
H       -1.41425804       0.02475264      -1.13460459
H       -2.94088137      -1.33726792       0.28569455
H       -1.59243875      -1.78796779       1.32772066
H       -1.67131460      -2.34537770      -0.34767324
H       -1.97695018       0.75200356       0.46711387
H       -0.17217002       1.22174881       1.82302079
H        0.26913285       2.13870029      -0.20742194
19
Frame=15 idx=009273 GeodesicLength=0.946008575076067 rxn_smarts="[C:1]([O:2][C:3]([C@@:4]([C:5]([H:14])([H:15])[H:16])([C:6]([O:7][H:19])([H:17])[H:18])[H:13])([H:11])[H:12])([H:8])([H:9])[H:10]>>[C:1]([O:2][C:3]([C:4]([C:5]([H:14])([H:15])[H:16])([H:13])[H:17])([H:11])[H:12])([H:8])([H:9])[H:10].[C:6]([O:7][H:19])[H:18]"
C        2.49377847       0.35041894      -0.68405095
O        1.09953180       0.53606760      -0.70499113
C        0.37349226      -0.58595924      -0.23878859
C       -1.10355008      -0.23250815      -0.11526335
C       -1.86038027      -1.49357811       0.31291606
C       -0.95097367       1.63050384       1.15715957
O       -0.43493101       2.54364303       0.31242468
H        2.78352585      -0.47743442      -1.34117687
H        2.95452619       1.27197091      -1.03625017
H        2.85034698       0.14086857       0.33165777
H        0.54870428      -1.40880236      -0.94629582
H        0.75968441      -0.92311436       0.73522268
H       -1.41361445       0.01233478      -1.14048385
H       -2.93986144      -1.34049994       0.28626633
H       -1.59175030      -1.78246807       1.33214105
H       -1.66807676      -2.34744042      -0.34100939
H       -1.99747889       0.76393944       0.44071632
H       -0.18052205       1.22109885       1.84441425
H        0.27754869       2.12095910      -0.20460860
19
Frame=16 idx=009273 GeodesicLength=1.0092649311199138 rxn_smarts="[C:1]([O:2][C:3]([C@@:4]([C:5]([H:14])([H:15])[H:16])([C:6]([O:7][H:19])([H:17])[H:18])[H:13])([H:11])[H:12])([H:8])([H:9])[H:10]>>[C:1]([O:2][C:3]([C:4]([C:5]([H:14])([H:15])[H:16])([H:13])[H:17])([H:11])[H:12])([H:8])([H:9])[H:10].[C:6]([O:7][H:19])[H:18]"
C        2.49132313       0.35455483      -0.68667858
O        1.09626415       0.53390992      -0.71453997
C        0.37202594      -0.58763741      -0.24350985
C       -1.10518011      -0.23027355      -0.11654493
C       -1.85890599      -1.49301013       0.31579260
C       -0.94591439       1.63152751       1.16305318
O       -0.40875022       2.54195858       0.32789724
H        2.78682951      -0.47543766      -1.33841588
H        2.94938699       1.27655594      -1.04118996
H        2.84433571       0.15188251       0.33162410
H        0.54724999      -1.41156728      -0.94923400
H        0.76021730      -0.92217602       0.73061645
H       -1.41288890      -0.00038212      -1.14649296
H       -2.93881769      -1.34340618       0.28702285
H       -1.59106078      -1.77649834       1.33673874
H       -1.66489561      -2.34945946      -0.33398670
H       -2.01760357       0.77588353       0.41312407
H       -0.18936594       1.22032220       1.86610031
H        0.28575049       2.10325312      -0.20137669
