11
Frame=0 idx=003143 GeodesicLength=0.0 rxn_smarts="[c:1]1([H:7])[c:2]([H:8])[c:3]([H:9])[n:4][c:5]([H:10])[c:6]1[H:11]>>[C:1]1([H:7])=[C-:6][C:5]([H:10])([H:11])[N:4]=[C:3]([H:9])[C+:2]1[H:8]"
C       -0.25405709       1.31193880       0.10410603
C       -1.20522301       0.35941751      -0.04158922
C       -0.84639550      -1.03361946       0.00887358
N        0.36102191      -1.45131090       0.12776480
C        1.35970291      -0.44489243       0.12874700
C        1.15152260       0.98517804       0.22097110
H       -0.54639149       2.35628474       0.16039703
H       -2.25380868       0.61620613      -0.15597054
H       -1.63538017      -1.78249295      -0.02064084
H        2.33387920      -0.83357007       0.41650863
H        1.53512930      -0.08313945      -0.94916753
11
Frame=1 idx=003143 GeodesicLength=0.06330652825633085 rxn_smarts="[c:1]1([H:7])[c:2]([H:8])[c:3]([H:9])[n:4][c:5]([H:10])[c:6]1[H:11]>>[C:1]1([H:7])=[C-:6][C:5]([H:10])([H:11])[N:4]=[C:3]([H:9])[C+:2]1[H:8]"
C       -0.25467688       1.31020165       0.10743051
C       -1.20819362       0.35751613      -0.03344018
C       -0.84906556      -1.03426896       0.00630736
N        0.35984017      -1.45426557       0.11308996
C        1.35777119      -0.45081517       0.12819447
C        1.14589217       0.97684156       0.21948813
H       -0.54149273       2.35710330       0.13697648
H       -2.25747851       0.61544333      -0.13801909
H       -1.63877366      -1.78256528      -0.01771271
H        2.32896470      -0.83793895       0.42857041
H        1.55721272      -0.05725205      -0.95088534
11
Frame=2 idx=003143 GeodesicLength=0.12654666152689026 rxn_smarts="[c:1]1([H:7])[c:2]([H:8])[c:3]([H:9])[n:4][c:5]([H:10])[c:6]1[H:11]>>[C:1]1([H:7])=[C-:6][C:5]([H:10])([H:11])[N:4]=[C:3]([H:9])[C+:2]1[H:8]"
C       -0.25521459       1.30855175       0.11071685
C       -1.21116671       0.35561936      -0.02385430
C       -0.85188259      -1.03483579       0.00591512
N        0.35852798      -1.45698710       0.09928984
C        1.35578595      -0.45673656       0.12694580
C        1.14032014       0.96850549       0.21754162
H       -0.53664183       2.35723979       0.11473570
H       -2.26061505       0.61473055      -0.12308330
H       -1.64206534      -1.78267357      -0.01534820
H        2.32392517      -0.84233698       0.43952290
H        1.57902686      -0.03107695      -0.95238204
11
Frame=3 idx=003143 GeodesicLength=0.18981503214451667 rxn_smarts="[c:1]1([H:7])[c:2]([H:8])[c:3]([H:9])[n:4][c:5]([H:10])[c:6]1[H:11]>>[C:1]1([H:7])=[C-:6][C:5]([H:10])([H:11])[N:4]=[C:3]([H:9])[C+:2]1[H:8]"
C       -0.25566556       1.30697293       0.11317531
C       -1.21410036       0.35371981      -0.01420012
C       -0.85481387      -1.03538861       0.00628161
N        0.35705590      -1.45956925       0.08561328
C        1.35376514      -0.46270034       0.12508089
C        1.13476781       0.96015143       0.21528083
H       -0.53192902       2.35681554       0.09387544
H       -2.26355505       0.61404577      -0.10953112
H       -1.64544694      -1.78278748      -0.01226450
H        2.31860324      -0.84686235       0.45006010
H        1.60131872      -0.00439744      -0.95337173
11
Frame=4 idx=003143 GeodesicLength=0.2530909952179955 rxn_smarts="[c:1]1([H:7])[c:2]([H:8])[c:3]([H:9])[n:4][c:5]([H:10])[c:6]1[H:11]>>[C:1]1([H:7])=[C-:6][C:5]([H:10])([H:11])[N:4]=[C:3]([H:9])[C+:2]1[H:8]"
C       -0.25607044       1.30540369       0.11389399
C       -1.21691573       0.35183402      -0.00656247
C       -0.85778937      -1.03591141       0.00511208
N        0.35539430      -1.46200370       0.07090623
C        1.35162820      -0.46874653       0.12293315
C        1.12906348       0.95167759       0.21322411
H       -0.52728261       2.35586552       0.07228939
H       -2.26688866       0.61329124      -0.09194929
H       -1.64893569      -1.78284786      -0.00839712
H        2.31249845      -0.85166514       0.46150238
H        1.62529807       0.02310259      -0.95295243
11
Frame=5 idx=003143 GeodesicLength=0.31636459401026357 rxn_smarts="[c:1]1([H:7])[c:2]([H:8])[c:3]([H:9])[n:4][c:5]([H:10])[c:6]1[H:11]>>[C:1]1([H:7])=[C-:6][C:5]([H:10])([H:11])[N:4]=[C:3]([H:9])[C+:2]1[H:8]"
C       -0.25639443       1.30381375       0.11521602
C       -1.21976139       0.34989606       0.00324415
C       -0.86091127      -1.03646690       0.00640463
N        0.35356960      -1.46432675       0.05680718
C        1.34949381      -0.47485585       0.11971548
C        1.12348270       0.94314323       0.21072277
H       -0.52280778       2.35445648       0.05339440
H       -2.26942635       0.61267425      -0.08111131
H       -1.65247394      -1.78296831      -0.00298566
H        2.30645059      -0.85662796       0.47107121
H        1.64877846       0.05126200      -0.95247887
11
Frame=6 idx=003143 GeodesicLength=0.3796542748944074 rxn_smarts="[c:1]1([H:7])[c:2]([H:8])[c:3]([H:9])[n:4][c:5]([H:10])[c:6]1[H:11]>>[C:1]1([H:7])=[C-:6][C:5]([H:10])([H:11])[N:4]=[C:3]([H:9])[C+:2]1[H:8]"
C       -0.25665295       1.30219037       0.11625661
C       -1.22257959       0.34793010       0.01358520
C       -0.86413267      -1.03705093       0.00866509
N        0.35153636      -1.46654616       0.04266404
C        1.34731791      -0.48105394       0.11572664
C        1.11792662       0.93451735       0.20801769
H       -0.51844845       2.35266791       0.03551210
H       -2.27170570       0.61210221      -0.07240999
H       -1.65607721      -1.78313543       0.00339651
H        2.30012857      -0.86182301       0.47987105
H        1.67268710       0.08020153      -0.95128495
11
Frame=7 idx=003143 GeodesicLength=0.4429395231631049 rxn_smarts="[c:1]1([H:7])[c:2]([H:8])[c:3]([H:9])[n:4][c:5]([H:10])[c:6]1[H:11]>>[C:1]1([H:7])=[C-:6][C:5]([H:10])([H:11])[N:4]=[C:3]([H:9])[C+:2]1[H:8]"
C       -0.25690080       1.30052791       0.11588308
C       -1.22529979       0.34597683       0.02193998
C       -0.86741679      -1.03765314       0.00924608
N        0.34928480      -1.46864784       0.02712812
C        1.34502436      -0.48737560       0.11129489
C        1.11221160       0.92572770       0.20562710
H       -0.51410574       2.35048460       0.01647680
H       -2.27438540       0.61145772      -0.05983375
H       -1.65973013      -1.78333465       0.01109141
H        2.29293496      -0.86746058       0.48936274
H        1.69838293       0.11029705      -0.94821643
11
Frame=8 idx=003143 GeodesicLength=0.5062692657836618 rxn_smarts="[c:1]1([H:7])[c:2]([H:8])[c:3]([H:9])[n:4][c:5]([H:10])[c:6]1[H:11]>>[C:1]1([H:7])=[C-:6][C:5]([H:10])([H:11])[N:4]=[C:3]([H:9])[C+:2]1[H:8]"
C       -0.25714874       1.29879830       0.11421816
C       -1.22797435       0.34398715       0.02889885
C       -0.87077282      -1.03825005       0.00828685
N        0.34679975      -1.47059447       0.01017465
C        1.34258263      -0.49382602       0.10635259
C        1.10632234       0.91676296       0.20354423
H       -0.50971251       2.34786710      -0.00412979
H       -2.27736363       0.61074494      -0.04350457
H       -1.66330185      -1.78354282       0.01982330
H        2.28478566      -0.87355661       0.49939611
H        1.72578351       0.14160952      -0.94306038
11
Frame=9 idx=003143 GeodesicLength=0.5695974413333991 rxn_smarts="[c:1]1([H:7])[c:2]([H:8])[c:3]([H:9])[n:4][c:5]([H:10])[c:6]1[H:11]>>[C:1]1([H:7])=[C-:6][C:5]([H:10])([H:11])[N:4]=[C:3]([H:9])[C+:2]1[H:8]"
C       -0.25739117       1.29702813       0.11193503
C       -1.23065830       0.34199310       0.03546557
C       -0.87426059      -1.03888933       0.00683331
N        0.34405831      -1.47240338      -0.00778039
C        1.34004915      -0.50040297       0.10059782
C        1.10036963       0.90765142       0.20149957
H       -0.50533588       2.34487957      -0.02503902
H       -2.28031166       0.61004149      -0.02677405
H       -1.66679003      -1.78387542       0.03022555
H        2.27595266      -0.88013785       0.50910441
H        1.75431786       0.17411525      -0.93606780
11
Frame=10 idx=003143 GeodesicLength=0.6329811446433661 rxn_smarts="[c:1]1([H:7])[c:2]([H:8])[c:3]([H:9])[n:4][c:5]([H:10])[c:6]1[H:11]>>[C:1]1([H:7])=[C-:6][C:5]([H:10])([H:11])[N:4]=[C:3]([H:9])[C+:2]1[H:8]"
C       -0.25758933       1.29516330       0.10919937
C       -1.23330739       0.33994697       0.04226258
C       -0.87785346      -1.03954132       0.00568642
N        0.34102885      -1.47405160      -0.02596046
C        1.33741915      -0.50707207       0.09396834
C        1.09438752       0.89840694       0.19910056
H       -0.50100553       2.34150565      -0.04582352
H       -2.28305161       0.60935622      -0.01061496
H       -1.67012123      -1.78423016       0.04148744
H        2.26654326      -0.88702932       0.51811286
H        1.78354975       0.20754538      -0.92741865
11
Frame=11 idx=003143 GeodesicLength=0.6963888814418093 rxn_smarts="[c:1]1([H:7])[c:2]([H:8])[c:3]([H:9])[n:4][c:5]([H:10])[c:6]1[H:11]>>[C:1]1([H:7])=[C-:6][C:5]([H:10])([H:11])[N:4]=[C:3]([H:9])[C+:2]1[H:8]"
C       -0.25771066       1.29324987       0.10629900
C       -1.23592267       0.33788666       0.04985928
C       -0.88156015      -1.04026005       0.00587169
N        0.33769452      -1.47563160      -0.04355910
C        1.33478075      -0.51383436       0.08638668
C        1.08850565       0.88910377       0.19595002
H       -0.49681109       2.33786969      -0.06578387
H       -2.28553666       0.60876877       0.00350444
H       -1.67340988      -1.78469123       0.05294089
H        2.25691433      -0.89409793       0.52596397
H        1.81305587       0.24163641      -0.91743300
11
Frame=12 idx=003143 GeodesicLength=0.7597559972344498 rxn_smarts="[c:1]1([H:7])[c:2]([H:8])[c:3]([H:9])[n:4][c:5]([H:10])[c:6]1[H:11]>>[C:1]1([H:7])=[C-:6][C:5]([H:10])([H:11])[N:4]=[C:3]([H:9])[C+:2]1[H:8]"
C       -0.25775198       1.29124645       0.10324301
C       -1.23844305       0.33584609       0.05843596
C       -0.88529600      -1.04097895       0.00786839
N        0.33406867      -1.47714968      -0.06003400
C        1.33214191      -0.52068743       0.07787519
C        1.08273664       0.87973092       0.19176342
H       -0.49282572       2.33394898      -0.08484825
H       -2.28775040       0.60826442       0.01557195
H       -1.67672685      -1.78517607       0.06376658
H        2.24720307      -0.90119415       0.53251549
H        1.84264372       0.27614942      -0.90615775
11
Frame=13 idx=003143 GeodesicLength=0.8229493545213984 rxn_smarts="[c:1]1([H:7])[c:2]([H:8])[c:3]([H:9])[n:4][c:5]([H:10])[c:6]1[H:11]>>[C:1]1([H:7])=[C-:6][C:5]([H:10])([H:11])[N:4]=[C:3]([H:9])[C+:2]1[H:8]"
C       -0.25764766       1.28918287       0.10021465
C       -1.24081487       0.33379126       0.06824583
C       -0.88901325      -1.04180005       0.01254744
N        0.33012447      -1.47877340      -0.07452923
C        1.32956599      -0.52759823       0.06843398
C        1.07718427       0.87038166       0.18627558
H       -0.48904583       2.32986416      -0.10271230
H       -2.28962129       0.60783958       0.02503674
H       -1.68032280      -1.78566540       0.07291230
H        2.23771283      -0.90807726       0.53751198
H        1.87187813       0.31085482      -0.89393697
11
Frame=14 idx=003143 GeodesicLength=0.8862025976621895 rxn_smarts="[c:1]1([H:7])[c:2]([H:8])[c:3]([H:9])[n:4][c:5]([H:10])[c:6]1[H:11]>>[C:1]1([H:7])=[C-:6][C:5]([H:10])([H:11])[N:4]=[C:3]([H:9])[C+:2]1[H:8]"
C       -0.25747865       1.28701095       0.09684602
C       -1.24307901       0.33174427       0.07841178
C       -0.89273429      -1.04266578       0.01836473
N        0.32585418      -1.48043258      -0.08839816
C        1.32696102      -0.53463368       0.05802027
C        1.07170296       0.86093062       0.17986504
H       -0.48544915       2.32553128      -0.12022215
H       -2.29134412       0.60744409       0.03361731
H       -1.68407186      -1.78614509       0.08196526
H        2.22804160      -0.91503593       0.54138339
H        1.90159733       0.34625184      -0.87985350
11
Frame=15 idx=003143 GeodesicLength=0.9494161794602322 rxn_smarts="[c:1]1([H:7])[c:2]([H:8])[c:3]([H:9])[n:4][c:5]([H:10])[c:6]1[H:11]>>[C:1]1([H:7])=[C-:6][C:5]([H:10])([H:11])[N:4]=[C:3]([H:9])[C+:2]1[H:8]"
C       -0.25721347       1.28473157       0.09312520
C       -1.24519366       0.32969842       0.08885990
C       -0.89641531      -1.04362015       0.02586115
N        0.32124856      -1.48224772      -0.10091131
C        1.32435259      -0.54177452       0.04665899
C        1.06634068       0.85143087       0.17220541
H       -0.48205464       2.32104602      -0.13700858
H       -2.29284241       0.60706388       0.04119005
H       -1.68809175      -1.78655452       0.09011591
H        2.21839262      -0.92185114       0.54400853
H        1.93147679       0.38207730      -0.86410525
11
Frame=16 idx=003143 GeodesicLength=1.0126245595516334 rxn_smarts="[c:1]1([H:7])[c:2]([H:8])[c:3]([H:9])[n:4][c:5]([H:10])[c:6]1[H:11]>>[C:1]1([H:7])=[C-:6][C:5]([H:10])([H:11])[N:4]=[C:3]([H:9])[C+:2]1[H:8]"
C       -0.25687921       1.28234846       0.08884609
C       -1.24716075       0.32766394       0.09944905
C       -0.90004473      -1.04464193       0.03440047
N        0.31631768      -1.48417737      -0.11277613
C        1.32170268      -0.54904553       0.03431563
C        1.06104199       0.84184746       0.16344285
H       -0.47884600       2.31629733      -0.15405697
H       -2.29421361       0.60666598       0.04908562
H       -1.69236167      -1.78687508       0.09765471
H        2.20855870      -0.92866257       0.54558517
H        1.96188491       0.41857931      -0.84594649
