12
Frame=0 idx=003854 GeodesicLength=0.0 rxn_smarts="[O:1]([C@@:2]1([H:8])[C:3]([H:9])([H:10])[C:4]([H:11])([H:12])[C:5]1=[O:6])[H:7]>>[C:2]1([H:8])=[C:3]([H:9])[C:4]([H:11])([H:12])[C:5]1=[O:6].[O:1]([H:7])[H:10]"
O        1.70234949      -0.17584685       0.94794070
C        0.57276362      -0.67101848      -0.31093991
C       -0.59612343      -0.68746569       0.52289739
C       -1.26493655       0.50619660      -0.17804325
C        0.02805901       0.58221237      -0.99521470
O        0.44058268       1.27709902      -1.87058739
H        2.08382111       0.70306550       0.81399220
H        1.17002487      -1.45209425      -0.76763156
H       -1.08797205      -1.56513476       0.91951075
H        0.57466244      -0.19060583       1.32583047
H       -1.50490646       1.38860155       0.41909519
H       -2.11832477       0.28499086      -0.82684990
12
Frame=1 idx=003854 GeodesicLength=0.09067889715029319 rxn_smarts="[O:1]([C@@:2]1([H:8])[C:3]([H:9])([H:10])[C:4]([H:11])([H:12])[C:5]1=[O:6])[H:7]>>[C:2]1([H:8])=[C:3]([H:9])[C:4]([H:11])([H:12])[C:5]1=[O:6].[O:1]([H:7])[H:10]"
O        1.72289761      -0.17351020       0.93744291
C        0.56497308      -0.67368345      -0.30951038
C       -0.60056588      -0.68224823       0.53106720
C       -1.27469266       0.49895304      -0.18615617
C        0.02569257       0.58092148      -0.99062303
O        0.47096414       1.31053843      -1.82085491
H        2.09732563       0.70235046       0.76807323
H        1.14882106      -1.46812764      -0.75966349
H       -1.09853912      -1.56109540       0.91879994
H        0.59236470      -0.18157776       1.35058511
H       -1.53113234       1.38075255       0.40466723
H       -2.11810879       0.26672673      -0.84382764
12
Frame=2 idx=003854 GeodesicLength=0.181353714620354 rxn_smarts="[O:1]([C@@:2]1([H:8])[C:3]([H:9])([H:10])[C:4]([H:11])([H:12])[C:5]1=[O:6])[H:7]>>[C:2]1([H:8])=[C:3]([H:9])[C:4]([H:11])([H:12])[C:5]1=[O:6].[O:1]([H:7])[H:10]"
O        1.74362276      -0.17164801       0.92680677
C        0.55740346      -0.67572483      -0.30826555
C       -0.60496452      -0.67669439       0.53874873
C       -1.28413031       0.49200963      -0.19455509
C        0.02384146       0.58069710      -0.98582431
O        0.49845839       1.34147935      -1.77112378
H        2.11023466       0.70034916       0.72366471
H        1.12794614      -1.48311206      -0.75163134
H       -1.10893216      -1.55668847       0.91757635
H        0.61099837      -0.17226382       1.37564875
H       -1.55715140       1.37285802       0.38990273
H       -2.11732685       0.24873831      -0.86094798
12
Frame=3 idx=003854 GeodesicLength=0.2720101913521301 rxn_smarts="[O:1]([C@@:2]1([H:8])[C:3]([H:9])([H:10])[C:4]([H:11])([H:12])[C:5]1=[O:6])[H:7]>>[C:2]1([H:8])=[C:3]([H:9])[C:4]([H:11])([H:12])[C:5]1=[O:6].[O:1]([H:7])[H:10]"
O        1.76451462      -0.17027684       0.91601806
C        0.55000679      -0.67720931      -0.30718246
C       -0.60935588      -0.67083031       0.54599234
C       -1.29329676       0.48531829      -0.20321294
C        0.02243993       0.58145950      -0.98072757
O        0.52331002       1.37025055      -1.72158542
H        2.12260322       0.69717042       0.68065417
H        1.10734604      -1.49711477      -0.74354625
H       -1.11916277      -1.55191558       0.91595466
H        0.63058199      -0.16272394       1.40107590
H       -1.58301566       1.36487013       0.37479583
H       -2.11597156       0.23100186      -0.87823633
12
Frame=4 idx=003854 GeodesicLength=0.36264200509111927 rxn_smarts="[O:1]([C@@:2]1([H:8])[C:3]([H:9])([H:10])[C:4]([H:11])([H:12])[C:5]1=[O:6])[H:7]>>[C:2]1([H:8])=[C:3]([H:9])[C:4]([H:11])([H:12])[C:5]1=[O:6].[O:1]([H:7])[H:10]"
O        1.78556075      -0.16938987       0.90504936
C        0.54274390      -0.67819755      -0.30625249
C       -0.61377766      -0.66469851       0.55282242
C       -1.30221272       0.47885382      -0.21210222
C        0.02143309       0.58313603      -0.97528646
O        0.54570754       1.39705599      -1.67238603
H        2.13440245       0.69296907       0.63898341
H        1.08698940      -1.51020222      -0.73541395
H       -1.12926110      -1.54681386       0.91399694
H        0.65116740      -0.15302196       1.42692154
H       -1.60870476       1.35677550       0.35936331
H       -2.11404829       0.21353359      -0.89569584
12
Frame=5 idx=003854 GeodesicLength=0.45327922980890867 rxn_smarts="[O:1]([C@@:2]1([H:8])[C:3]([H:9])([H:10])[C:4]([H:11])([H:12])[C:5]1=[O:6])[H:7]>>[C:2]1([H:8])=[C:3]([H:9])[C:4]([H:11])([H:12])[C:5]1=[O:6].[O:1]([H:7])[H:10]"
O        1.80674246      -0.16897175       0.89386570
C        0.53556937      -0.67876137      -0.30545622
C       -0.61827504      -0.65834392       0.55927356
C       -1.31091774       0.47257382      -0.22121774
C        0.02073158       0.58559445      -0.96949933
O        0.56592300       1.42220721      -1.62351221
H        2.14564219       0.68785514       0.59850175
H        1.06683686      -1.52245109      -0.72722610
H       -1.13925848      -1.54141856       0.91179179
H        0.67280555      -0.14315815       1.45323000
H       -1.63422382       1.34855322       0.34358186
H       -2.11157592       0.19632100      -0.91333306
12
Frame=6 idx=003854 GeodesicLength=0.543923068215073 rxn_smarts="[O:1]([C@@:2]1([H:8])[C:3]([H:9])([H:10])[C:4]([H:11])([H:12])[C:5]1=[O:6])[H:7]>>[C:2]1([H:8])=[C:3]([H:9])[C:4]([H:11])([H:12])[C:5]1=[O:6].[O:1]([H:7])[H:10]"
O        1.82804191      -0.16899553       0.88243093
C        0.52845548      -0.67895241      -0.30479484
C       -0.62288523      -0.65181144       0.56534604
C       -1.31941178       0.46646712      -0.23054278
C        0.02029453       0.58876216      -0.96337377
O        0.58407981       1.44580903      -1.57498835
H        2.15626306       0.68196339       0.55916242
H        1.04688452      -1.53392766      -0.71896666
H       -1.14920003      -1.53577778       0.90934191
H        0.69556143      -0.13313910       1.48004350
H       -1.65951326       1.34020512       0.32747487
H       -2.10857044       0.17939710      -0.93113328
12
Frame=7 idx=003854 GeodesicLength=0.6345844737431787 rxn_smarts="[O:1]([C@@:2]1([H:8])[C:3]([H:9])([H:10])[C:4]([H:11])([H:12])[C:5]1=[O:6])[H:7]>>[C:2]1([H:8])=[C:3]([H:9])[C:4]([H:11])([H:12])[C:5]1=[O:6].[O:1]([H:7])[H:10]"
O        1.84944690      -0.16941794       0.87069742
C        0.52137297      -0.67882630      -0.30425865
C       -0.62764972      -0.64514507       0.57104245
C       -1.32770608       0.46051844      -0.24007348
C        0.02006464       0.59253345      -0.95694284
O        0.60033862       1.46800985      -1.52677155
H        2.16621083       0.67541622       0.52089286
H        1.02712405      -1.54469947      -0.71060726
H       -1.15913043      -1.52993473       0.90666813
H        0.71951262      -0.12297986       1.50739660
H       -1.68452437       1.33174000       0.31104238
H       -2.10506003       0.16278542      -0.94908605
12
Frame=8 idx=003854 GeodesicLength=0.725258668228133 rxn_smarts="[O:1]([C@@:2]1([H:8])[C:3]([H:9])([H:10])[C:4]([H:11])([H:12])[C:5]1=[O:6])[H:7]>>[C:2]1([H:8])=[C:3]([H:9])[C:4]([H:11])([H:12])[C:5]1=[O:6].[O:1]([H:7])[H:10]"
O        1.87092039      -0.17024069       0.85864636
C        0.51429250      -0.67843773      -0.30383272
C       -0.63261395      -0.63839571       0.57637497
C       -1.33582450       0.45470517      -0.24981381
C        0.01998516       0.59680865      -0.95022256
O        0.61486225       1.48899452      -1.47876401
H        2.17548661       0.66826751       0.48356732
H        1.00755411      -1.55482748      -0.70212618
H       -1.16909893      -1.52394494       0.90378420
H        0.74475675      -0.11257750       1.53531144
H       -1.70925829       1.32315818       0.29426835
H       -2.10106210       0.14649004      -0.96719336
12
Frame=9 idx=003854 GeodesicLength=0.8160494670119024 rxn_smarts="[O:1]([C@@:2]1([H:8])[C:3]([H:9])([H:10])[C:4]([H:11])([H:12])[C:5]1=[O:6])[H:7]>>[C:2]1([H:8])=[C:3]([H:9])[C:4]([H:11])([H:12])[C:5]1=[O:6].[O:1]([H:7])[H:10]"
O        1.89243147      -0.17129718       0.84627025
C        0.50717593      -0.67780575      -0.30342778
C       -0.63791044      -0.63168494       0.58126549
C       -1.34382922       0.44900264      -0.25978049
C        0.01997011       0.60148511      -0.94319322
O        0.62785984       1.50884140      -1.43080384
H        2.18414324       0.66052259       0.44700900
H        0.98815915      -1.56434666      -0.69338415
H       -1.17923107      -1.51794724       0.90055363
H        0.77160853      -0.10179077       1.56380739
H       -1.73368490       1.31444955       0.27715336
H       -2.09669263       0.13057125      -0.98546965
12
Frame=10 idx=003854 GeodesicLength=0.9068294074392307 rxn_smarts="[O:1]([C@@:2]1([H:8])[C:3]([H:9])([H:10])[C:4]([H:11])([H:12])[C:5]1=[O:6])[H:7]>>[C:2]1([H:8])=[C:3]([H:9])[C:4]([H:11])([H:12])[C:5]1=[O:6].[O:1]([H:7])[H:10]"
O        1.91395416      -0.17267215       0.83353408
C        0.50001365      -0.67700534      -0.30309845
C       -0.64350571      -0.62500024       0.58577716
C       -1.35167972       0.44341554      -0.26994551
C        0.02001003       0.60648189      -0.93592469
O        0.63939357       1.52763860      -1.38291400
H        2.19205326       0.65236634       0.41122332
H        0.96897103      -1.57333246      -0.68443950
H       -1.18952861      -1.51192569       0.89703377
H        0.79997131      -0.09065206       1.59290874
H       -1.75775542       1.30564279       0.25972323
H       -2.09189756       0.11504277      -1.00387816
12
Frame=11 idx=003854 GeodesicLength=0.9976052561903235 rxn_smarts="[O:1]([C@@:2]1([H:8])[C:3]([H:9])([H:10])[C:4]([H:11])([H:12])[C:5]1=[O:6])[H:7]>>[C:2]1([H:8])=[C:3]([H:9])[C:4]([H:11])([H:12])[C:5]1=[O:6].[O:1]([H:7])[H:10]"
O        1.93547787      -0.17431636       0.82040938
C        0.49278450      -0.67607619      -0.30283091
C       -0.64944254      -0.61839200       0.58989857
C       -1.35938157       0.43793963      -0.28030706
C        0.02007523       0.61173043      -0.92843808
O        0.64956677       1.54541320      -1.33502809
H        2.19917525       0.64388127       0.37615718
H        0.94999093      -1.58183264      -0.67525260
H       -1.20005148      -1.50593588       0.89316611
H        0.82994683      -0.07909947       1.62263957
H       -1.78142598       1.29674596       0.24199918
H       -2.08671581       0.09994207      -1.02241326
12
Frame=12 idx=003854 GeodesicLength=1.0883733649122878 rxn_smarts="[O:1]([C@@:2]1([H:8])[C:3]([H:9])([H:10])[C:4]([H:11])([H:12])[C:5]1=[O:6])[H:7]>>[C:2]1([H:8])=[C:3]([H:9])[C:4]([H:11])([H:12])[C:5]1=[O:6].[O:1]([H:7])[H:10]"
O        1.95698732      -0.17618816       0.80687177
C        0.48546388      -0.67505829      -0.30259621
C       -0.65577837      -0.61191728       0.59362046
C       -1.36695177       0.43256792      -0.29086934
C        0.02013407       0.61716242      -0.92073825
O        0.65848186       1.56221260      -1.28704880
H        2.20548528       0.63512397       0.34173588
H        0.93122172      -1.58989390      -0.66577430
H       -1.21087281      -1.50004368       0.88889180
H        0.86168976      -0.06704253       1.65301424
H       -1.80468533       1.28777278       0.22398302
H       -2.08117562       0.08530415      -1.04109028
12
Frame=13 idx=003854 GeodesicLength=1.1791144723309521 rxn_smarts="[O:1]([C@@:2]1([H:8])[C:3]([H:9])([H:10])[C:4]([H:11])([H:12])[C:5]1=[O:6])[H:7]>>[C:2]1([H:8])=[C:3]([H:9])[C:4]([H:11])([H:12])[C:5]1=[O:6].[O:1]([H:7])[H:10]"
O        1.97847104      -0.17825164       0.79289400
C        0.47803355      -0.67398208      -0.30237863
C       -0.66256112      -0.60562352       0.59693010
C       -1.37439514       0.42730409      -0.30162928
C        0.02017081       0.62273505      -0.91282647
O        0.66620460       1.57800794      -1.23893255
H        2.21093786       0.62616869       0.30793857
H        0.91267511      -1.59755314      -0.65597001
H       -1.22205875      -1.49430525       0.88413735
H        0.89533037      -0.05441044       1.68405252
H       -1.82750604       1.27874344       0.20569878
H       -2.07530227       0.07116686      -1.05991437
12
Frame=14 idx=003854 GeodesicLength=1.2698258167514003 rxn_smarts="[O:1]([C@@:2]1([H:8])[C:3]([H:9])([H:10])[C:4]([H:11])([H:12])[C:5]1=[O:6])[H:7]>>[C:2]1([H:8])=[C:3]([H:9])[C:4]([H:11])([H:12])[C:5]1=[O:6].[O:1]([H:7])[H:10]"
O        1.99991322      -0.18046764       0.77844933
C        0.47046382      -0.67288668      -0.30213852
C       -0.66986413      -0.59957173       0.59981439
C       -1.38173430       0.42214418      -0.31259862
C        0.02015859       0.62838753      -0.90469653
O        0.67283330       1.59281698      -1.19055218
H        2.21549598       0.61706555       0.27470296
H        0.89435060      -1.60485441      -0.64578528
H       -1.23369915      -1.48878920       0.87882654
H        0.93109370      -0.04108300       1.71575613
H       -1.84989520       1.26967412       0.18714125
H       -2.06911644       0.05756430      -1.07891947
12
Frame=15 idx=003854 GeodesicLength=1.360497740591561 rxn_smarts="[O:1]([C@@:2]1([H:8])[C:3]([H:9])([H:10])[C:4]([H:11])([H:12])[C:5]1=[O:6])[H:7]>>[C:2]1([H:8])=[C:3]([H:9])[C:4]([H:11])([H:12])[C:5]1=[O:6].[O:1]([H:7])[H:10]"
O        2.02130772      -0.18280194       0.76350502
C        0.46272893      -0.67180326      -0.30184074
C       -0.67775885      -0.59381845       0.60225713
C       -1.38898395       0.41709299      -0.32378471
C        0.02008161       0.63407858      -0.89633188
O        0.67843208       1.60659194      -1.14183991
H        2.21910764       0.60789356       0.24202138
H        0.87625382      -1.61183155      -0.63516902
H       -1.24588361      -1.48356041       0.87286703
H        0.96919875      -0.02697012       1.74813143
H       -1.87184561       1.26059019       0.16831627
H       -2.06263852       0.04453846      -1.09813198
12
Frame=16 idx=003854 GeodesicLength=1.4511309090259152 rxn_smarts="[O:1]([C@@:2]1([H:8])[C:3]([H:9])([H:10])[C:4]([H:11])([H:12])[C:5]1=[O:6])[H:7]>>[C:2]1([H:8])=[C:3]([H:9])[C:4]([H:11])([H:12])[C:5]1=[O:6].[O:1]([H:7])[H:10]"
O        2.04265018      -0.18523007       0.74802629
C        0.45479915      -0.67076039      -0.30143881
C       -0.68632647      -0.58841879       0.60424365
C       -1.39616603       0.41215330      -0.33520505
C        0.01992359       0.63977190      -0.88770335
O        0.68305807       1.61928976      -1.09269571
H        2.22173067       0.59871591       0.20987930
H        0.85838161      -1.61851622      -0.62406403
H       -1.25870883      -1.47868201       0.86616393
H        1.00991053      -0.01196143       1.78118131
H       -1.89337182       1.25151373       0.14921037
H       -2.05588065       0.03212431      -1.11759791
