15
Frame=0 idx=008039 GeodesicLength=0.0 rxn_smarts="[C:1]([C@@:2]1([H:11])[C:3]([H:12])([H:13])[N:4]([H:14])[C@:5]1([C:6]#[N:7])[H:15])([H:8])([H:9])[H:10]>>[C:1]([C-:2]1[C:3]([H:12])([H:13])[N+:4]([H:11])([H:14])[C@:5]1([C:6]#[N:7])[H:15])([H:8])([H:9])[H:10]"
C        1.73365218      -0.40787835      -0.70384743
C        0.70753986       0.22720536       0.18284001
C       -0.38624313       1.16990569      -0.33817172
N       -1.03032255       0.80595369       0.97417461
C       -0.45910429      -0.56874629       0.80650021
C       -1.28345288      -1.39407357      -0.09327674
N       -1.85100081      -2.09400262      -0.80588644
H        1.30390932      -0.95797495      -1.55355179
H        2.40233070       0.35410478      -1.11005864
H        2.35523629      -1.10517975      -0.13813249
H        0.01874160       1.05525329       1.43768511
H       -1.01438637       0.80345074      -1.16147657
H       -0.18321408       2.23446283      -0.44622689
H       -2.00603162       0.98276748       1.20641864
H       -0.30765418      -1.10524829       1.74301008
15
Frame=1 idx=008039 GeodesicLength=0.05570607225375869 rxn_smarts="[C:1]([C@@:2]1([H:11])[C:3]([H:12])([H:13])[N:4]([H:14])[C@:5]1([C:6]#[N:7])[H:15])([H:8])([H:9])[H:10]>>[C:1]([C-:2]1[C:3]([H:12])([H:13])[N+:4]([H:11])([H:14])[C@:5]1([C:6]#[N:7])[H:15])([H:8])([H:9])[H:10]"
C        1.72823046      -0.40801248      -0.70292694
C        0.70743193       0.23027606       0.18778527
C       -0.38639874       1.17118209      -0.33716919
N       -1.03043806       0.80706821       0.97557068
C       -0.45911525      -0.56808951       0.80888338
C       -1.27884111      -1.39897870      -0.09003700
N       -1.84436087      -2.09250071      -0.81042725
H        1.29294760      -0.95725385      -1.55031752
H        2.39728110       0.35203519      -1.11221227
H        2.35048442      -1.10682540      -0.13976097
H        0.03541069       1.05836226       1.44250246
H       -1.00956003       0.80761253      -1.16557845
H       -0.18377493       2.23604447      -0.44484199
H       -2.01139464       0.97274644       1.19230892
H       -0.30790257      -1.10366660       1.74622087
15
Frame=2 idx=008039 GeodesicLength=0.11141940477897268 rxn_smarts="[C:1]([C@@:2]1([H:11])[C:3]([H:12])([H:13])[N:4]([H:14])[C@:5]1([C:6]#[N:7])[H:15])([H:8])([H:9])[H:10]>>[C:1]([C-:2]1[C:3]([H:12])([H:13])[N+:4]([H:11])([H:14])[C@:5]1([C:6]#[N:7])[H:15])([H:8])([H:9])[H:10]"
C        1.72278230      -0.40812523      -0.70200450
C        0.70723952       0.23330115       0.19265430
C       -0.38658772       1.17248925      -0.33615455
N       -1.03077353       0.80813276       0.97686222
C       -0.45920160      -0.56742895       0.81123299
C       -1.27422183      -1.40393336      -0.08682265
N       -1.83771414      -2.09116215      -0.81474807
H        1.28204029      -0.95645579      -1.54711681
H        2.39221314       0.35000767      -1.11428153
H        2.34565607      -1.10847535      -0.14138033
H        0.05234718       1.06139698       1.44726856
H       -1.00464980       0.81191001      -1.16973618
H       -0.18432500       2.23766119      -0.44332911
H       -2.01657747       0.96271668       1.17813203
H       -0.30822740      -1.10203487       1.74942362
15
Frame=3 idx=008039 GeodesicLength=0.1671360907727053 rxn_smarts="[C:1]([C@@:2]1([H:11])[C:3]([H:12])([H:13])[N:4]([H:14])[C@:5]1([C:6]#[N:7])[H:15])([H:8])([H:9])[H:10]>>[C:1]([C-:2]1[C:3]([H:12])([H:13])[N+:4]([H:11])([H:14])[C@:5]1([C:6]#[N:7])[H:15])([H:8])([H:9])[H:10]"
C        1.71730527      -0.40821625      -0.70107942
C        0.70696134       0.23628106       0.19744853
C       -0.38680803       1.17383065      -0.33512757
N       -1.03133329       0.80914444       0.97804044
C       -0.45936320      -0.56676480       0.81354684
C       -1.26959182      -1.40893552      -0.08363485
N       -1.83105915      -2.09000064      -0.81884198
H        1.27118388      -0.95558169      -1.54394723
H        2.38712270       0.34802245      -1.11626796
H        2.34075013      -1.11012803      -0.14299009
H        0.06956452       1.06435151       1.45198024
H       -0.99964943       0.81635169      -1.17394820
H       -0.18486327       2.23931684      -0.44168262
H       -2.02158842       0.95268079       1.16388778
H       -0.30863124      -1.10035250       1.75261609
15
Frame=4 idx=008039 GeodesicLength=0.22285496590347298 rxn_smarts="[C:1]([C@@:2]1([H:11])[C:3]([H:12])([H:13])[N:4]([H:14])[C@:5]1([C:6]#[N:7])[H:15])([H:8])([H:9])[H:10]>>[C:1]([C-:2]1[C:3]([H:12])([H:13])[N+:4]([H:11])([H:14])[C@:5]1([C:6]#[N:7])[H:15])([H:8])([H:9])[H:10]"
C        1.71181029      -0.40828206      -0.70015208
C        0.70659816       0.23921545       0.20216602
C       -0.38706212       1.17520293      -0.33409129
N       -1.03212420       0.81009723       0.97910092
C       -0.45960018      -0.56609930       0.81582423
C       -1.26494980      -1.41398940      -0.08047503
N       -1.82443523      -2.08900671      -0.82270586
H        1.26039355      -0.95463476      -1.54081133
H        2.38202219       0.34608511      -1.11817090
H        2.33578126      -1.11177264      -0.14458504
H        0.08707960       1.06722228       1.45663461
H       -0.99456179       0.82093318      -1.17821525
H       -0.18539454       2.24100830      -0.43990677
H       -2.02644050       0.94264012       1.14958846
H       -0.30911668      -1.09861973       1.75579930
15
Frame=5 idx=008039 GeodesicLength=0.2785782317359349 rxn_smarts="[C:1]([C@@:2]1([H:11])[C:3]([H:12])([H:13])[N:4]([H:14])[C@:5]1([C:6]#[N:7])[H:15])([H:8])([H:9])[H:10]>>[C:1]([C-:2]1[C:3]([H:12])([H:13])[N+:4]([H:11])([H:14])[C@:5]1([C:6]#[N:7])[H:15])([H:8])([H:9])[H:10]"
C        1.70627925      -0.40832747      -0.69922473
C        0.70614717       0.24210648       0.20681318
C       -0.38734368       1.17661665      -0.33303887
N       -1.03314949       0.81099482       0.98003955
C       -0.45991550      -0.56542687       0.81806952
C       -1.26029875      -1.41908586      -0.07733390
N       -1.81777325      -2.08822022      -0.82634587
H        1.24964018      -0.95361275      -1.53770801
H        2.37689404       0.34418634      -1.11999909
H        2.33072774      -1.11342221      -0.14617545
H        0.10491069       1.07000402       1.46123137
H       -0.98937383       0.82567504      -1.18253065
H       -0.18590874       2.24274596      -0.43798445
H       -2.03114641       0.93259507       1.13520907
H       -0.30968941      -1.09682902       1.75897834
15
Frame=6 idx=008039 GeodesicLength=0.33431008018902286 rxn_smarts="[C:1]([C@@:2]1([H:11])[C:3]([H:12])([H:13])[N:4]([H:14])[C@:5]1([C:6]#[N:7])[H:15])([H:8])([H:9])[H:10]>>[C:1]([C-:2]1[C:3]([H:12])([H:13])[N+:4]([H:11])([H:14])[C@:5]1([C:6]#[N:7])[H:15])([H:8])([H:9])[H:10]"
C        1.70071671      -0.40835295      -0.69829925
C        0.70560996       0.24495551       0.21139236
C       -0.38765325       1.17807376      -0.33196970
N       -1.03441834       0.81183541       0.98085161
C       -0.46030957      -0.56474666       0.82028425
C       -1.25563753      -1.42422748      -0.07421074
N       -1.81108289      -2.08764951      -0.82976245
H        1.23892571      -0.95251805      -1.53464142
H        2.37174454       0.34232549      -1.12175544
H        2.32559684      -1.11507659      -0.14776329
H        0.12307553       1.07269505       1.46577125
H       -0.98408435       0.83058125      -1.18689447
H       -0.18640804       2.24453281      -0.43590950
H       -2.03572391       0.92254751       1.12074922
H       -0.31035142      -1.09497557       1.76215756
15
Frame=7 idx=008039 GeodesicLength=0.39004973095061524 rxn_smarts="[C:1]([C@@:2]1([H:11])[C:3]([H:12])([H:13])[N:4]([H:14])[C@:5]1([C:6]#[N:7])[H:15])([H:8])([H:9])[H:10]>>[C:1]([C-:2]1[C:3]([H:12])([H:13])[N+:4]([H:11])([H:14])[C@:5]1([C:6]#[N:7])[H:15])([H:8])([H:9])[H:10]"
C        1.69511817      -0.40835865      -0.69737639
C        0.70498498       0.24776347       0.21590572
C       -0.38798898       1.17957803      -0.33088173
N       -1.03593636       0.81261739       0.98153139
C       -0.46078365      -0.56405686       0.82247017
C       -1.25096513      -1.42941249      -0.07110087
N       -1.80435026      -2.08730870      -0.83295471
H        1.22824264      -0.95134913      -1.53161187
H        2.36657029       0.34050119      -1.12344209
H        2.32038309      -1.11673757      -0.14935124
H        0.14159487       1.07528929       1.47025084
H       -0.97868763       0.83566062      -1.19130298
H       -0.18689036       2.24637251      -0.43367466
H       -2.04018506       0.91249595       1.10619850
H       -0.31110661      -1.09305503       1.76533992
15
Frame=8 idx=008039 GeodesicLength=0.44579931885106655 rxn_smarts="[C:1]([C@@:2]1([H:11])[C:3]([H:12])([H:13])[N:4]([H:14])[C@:5]1([C:6]#[N:7])[H:15])([H:8])([H:9])[H:10]>>[C:1]([C-:2]1[C:3]([H:12])([H:13])[N+:4]([H:11])([H:14])[C@:5]1([C:6]#[N:7])[H:15])([H:8])([H:9])[H:10]"
C        1.68948139      -0.40834531      -0.69645780
C        0.70427152       0.25053165       0.22035577
C       -0.38834989       1.18113370      -0.32977240
N       -1.03771118       0.81334025       0.98207425
C       -0.46133956      -0.56335510       0.82462962
C       -1.24628183      -1.43464016      -0.06800023
N       -1.79756398      -2.08721379      -0.83592302
H        1.21758509      -0.95010595      -1.52862160
H        2.36137089       0.33871149      -1.12506210
H        2.31508431      -1.11840745      -0.15094274
H        0.16049123       1.07778169       1.47466823
H       -0.97317949       0.84092176      -1.19575298
H       -0.18735449       2.24826959      -0.43127131
H       -2.04454495       0.90243935       1.09154659
H       -0.31195905      -1.09106172       1.76852973
15
Frame=9 idx=008039 GeodesicLength=0.501555939379905 rxn_smarts="[C:1]([C@@:2]1([H:11])[C:3]([H:12])([H:13])[N:4]([H:14])[C@:5]1([C:6]#[N:7])[H:15])([H:8])([H:9])[H:10]>>[C:1]([C-:2]1[C:3]([H:12])([H:13])[N+:4]([H:11])([H:14])[C@:5]1([C:6]#[N:7])[H:15])([H:8])([H:9])[H:10]"
C        1.68380211      -0.40831160      -0.69554305
C        0.70346774       0.25326095       0.22474455
C       -0.38873380       1.18274372      -0.32864063
N       -1.03974896       0.81400005       0.98247128
C       -0.46197763      -0.56264055       0.82676347
C       -1.24158320      -1.43991043      -0.06490454
N       -1.79071904      -2.08737466      -0.83866216
H        1.20694705      -0.94878519      -1.52566951
H        2.35614233       0.33695704      -1.12661590
H        2.30969486      -1.12008628      -0.15253901
H        0.17978701       1.08016410       1.47901785
H       -0.96755323       0.84637330      -1.20024107
H       -0.18779930       2.25022680      -0.42869249
H       -2.04881362       0.89237450       1.07678197
H       -0.31291230      -1.08899175       1.77172923
15
Frame=10 idx=008039 GeodesicLength=0.5573302592506676 rxn_smarts="[C:1]([C@@:2]1([H:11])[C:3]([H:12])([H:13])[N:4]([H:14])[C@:5]1([C:6]#[N:7])[H:15])([H:8])([H:9])[H:10]>>[C:1]([C-:2]1[C:3]([H:12])([H:13])[N+:4]([H:11])([H:14])[C@:5]1([C:6]#[N:7])[H:15])([H:8])([H:9])[H:10]"
C        1.67806593      -0.40826290      -0.69463759
C        0.70257193       0.25595641       0.22907727
C       -0.38914051       1.18441784      -0.32748005
N       -1.04205900       0.81460389       0.98272155
C       -0.46270092      -0.56190340       0.82888098
C       -1.23687173      -1.44521877      -0.06179817
N       -1.78373682      -2.08783279      -0.84118448
H        1.19630034      -0.94736662      -1.52277190
H        2.35088991       0.33522327      -1.12809470
H        2.30417955      -1.12180840      -0.15415884
H        0.19951060       1.08243533       1.48329823
H       -0.96180609       0.85203074      -1.20475991
H       -0.18822296       2.25225353      -0.42592575
H       -2.05300870       0.88230019       1.06188157
H       -0.31397155      -1.08682831       1.77495179
15
Frame=11 idx=008039 GeodesicLength=0.6131170174231249 rxn_smarts="[C:1]([C@@:2]1([H:11])[C:3]([H:12])([H:13])[N:4]([H:14])[C@:5]1([C:6]#[N:7])[H:15])([H:8])([H:9])[H:10]>>[C:1]([C-:2]1[C:3]([H:12])([H:13])[N+:4]([H:11])([H:14])[C@:5]1([C:6]#[N:7])[H:15])([H:8])([H:9])[H:10]"
C        1.67228055      -0.40819485      -0.69373936
C        0.70158323       0.25861589       0.23335423
C       -0.38956837       1.18615642      -0.32629014
N       -1.04465013       0.81514396       0.98281552
C       -0.46351154      -0.56114737       0.83097862
C       -1.23214538      -1.45056860      -0.05868642
N       -1.77666667      -2.08858325      -0.84347576
H        1.18565870      -0.94586788      -1.51991744
H        2.34560619       0.33352084      -1.12951255
H        2.29856533      -1.12354540      -0.15579164
H        0.21968811       1.08458229       1.48750367
H       -0.95593136       0.85789908      -1.20930857
H       -0.18862452       2.25435072      -0.42296202
H       -2.05714232       0.87221213       1.04683760
H       -0.31514180      -1.08457398       1.77819426
15
Frame=12 idx=008039 GeodesicLength=0.6689173920482739 rxn_smarts="[C:1]([C@@:2]1([H:11])[C:3]([H:12])([H:13])[N:4]([H:14])[C@:5]1([C:6]#[N:7])[H:15])([H:8])([H:9])[H:10]>>[C:1]([C-:2]1[C:3]([H:12])([H:13])[N+:4]([H:11])([H:14])[C@:5]1([C:6]#[N:7])[H:15])([H:8])([H:9])[H:10]"
C        1.66644080      -0.40810752      -0.69284914
C        0.70049946       0.26124074       0.23757830
C       -0.39001651       1.18796440      -0.32506779
N       -1.04753170       0.81561887       0.98274583
C       -0.46441158      -0.56036938       0.83305929
C       -1.22740204      -1.45595949      -0.05556287
N       -1.76949247      -2.08964162      -0.84553383
H        1.17501351      -0.94428559      -1.51710752
H        2.34028792       0.33184796      -1.13087053
H        2.29284530      -1.12530073      -0.15744089
H        0.24034920       1.08659537       1.49162822
H       -0.94992345       0.86398951      -1.21388261
H       -0.18900334       2.25652302      -0.41979056
H       -2.06122728       0.86210560       1.03163209
H       -0.31642783      -1.08222113       1.78146200
15
Frame=13 idx=008039 GeodesicLength=0.7247332271773577 rxn_smarts="[C:1]([C@@:2]1([H:11])[C:3]([H:12])([H:13])[N:4]([H:14])[C@:5]1([C:6]#[N:7])[H:15])([H:8])([H:9])[H:10]>>[C:1]([C-:2]1[C:3]([H:12])([H:13])[N+:4]([H:11])([H:14])[C@:5]1([C:6]#[N:7])[H:15])([H:8])([H:9])[H:10]"
C        1.66054115      -0.40800079      -0.69196809
C        0.69931833       0.26383267       0.24175262
C       -0.39048378       1.18984740      -0.32380917
N       -1.05071408       0.81602745       0.98250488
C       -0.46540399      -0.55956591       0.83512611
C       -1.22264036      -1.46139124      -0.05242079
N       -1.76219559      -2.09102732      -0.84735557
H        1.16435534      -0.94261579      -1.51434419
H        2.33493229       0.33020294      -1.13216969
H        2.28701155      -1.12707841      -0.15911112
H        0.26152591       1.08846416       1.49566516
H       -0.94377626       0.87031419      -1.21847697
H       -0.18935808       2.25877577      -0.41639884
H       -2.06527667       0.85197604       1.01624495
H       -0.31783575      -1.07976116       1.78476071
15
Frame=14 idx=008039 GeodesicLength=0.780566639511369 rxn_smarts="[C:1]([C@@:2]1([H:11])[C:3]([H:12])([H:13])[N:4]([H:14])[C@:5]1([C:6]#[N:7])[H:15])([H:8])([H:9])[H:10]>>[C:1]([C-:2]1[C:3]([H:12])([H:13])[N+:4]([H:11])([H:14])[C@:5]1([C:6]#[N:7])[H:15])([H:8])([H:9])[H:10]"
C        1.65457586      -0.40787439      -0.69109725
C        0.69803732       0.26639352       0.24588054
C       -0.39096919       1.19181136      -0.32251020
N       -1.05420866       0.81636836       0.98208429
C       -0.46649202      -0.55873321       0.83718232
C       -1.21785864      -1.46686403      -0.04925303
N       -1.75475715      -2.09276000      -0.84893723
H        1.15367451      -0.94085426      -1.51162937
H        2.32953619       0.32858415      -1.13341115
H        2.28105588      -1.12888237      -0.16080682
H        0.28325256       1.09017692       1.49960669
H       -0.93748336       0.87688603      -1.22308645
H       -0.18968770       2.26111461      -0.41277334
H       -2.06930348       0.84181802       1.00065448
H       -0.31937212      -1.07718470       1.78809651
15
Frame=15 idx=008039 GeodesicLength=0.836420121497838 rxn_smarts="[C:1]([C@@:2]1([H:11])[C:3]([H:12])([H:13])[N:4]([H:14])[C@:5]1([C:6]#[N:7])[H:15])([H:8])([H:9])[H:10]>>[C:1]([C-:2]1[C:3]([H:12])([H:13])[N+:4]([H:11])([H:14])[C@:5]1([C:6]#[N:7])[H:15])([H:8])([H:9])[H:10]"
C        1.64853838      -0.40772800      -0.69023769
C        0.69665358       0.26892529       0.24996574
C       -0.39147171       1.19386279      -0.32116633
N       -1.05802782       0.81664025       0.98147493
C       -0.46767944      -0.55786711       0.83923144
C       -1.21305520      -1.47237812      -0.04605182
N       -1.74715538      -2.09486121      -0.85027443
H        1.14296035      -0.93899618      -1.50896507
H        2.32409599       0.32698983      -1.13459594
H        2.27496894      -1.13071696      -0.16253287
H        0.30556610       1.09172033       1.50344371
H       -0.93103785       0.88371917      -1.22770542
H       -0.18999110       2.26354557      -0.40889910
H       -2.07332045       0.83162573       0.98483678
H       -0.32104438      -1.07448136       1.79147607
15
Frame=16 idx=008039 GeodesicLength=0.8922965414537625 rxn_smarts="[C:1]([C@@:2]1([H:11])[C:3]([H:12])([H:13])[N:4]([H:14])[C@:5]1([C:6]#[N:7])[H:15])([H:8])([H:9])[H:10]>>[C:1]([C-:2]1[C:3]([H:12])([H:13])[N+:4]([H:11])([H:14])[C@:5]1([C:6]#[N:7])[H:15])([H:8])([H:9])[H:10]"
C        1.64242152      -0.40756109      -0.68939045
C        0.69516391       0.27143024       0.25401219
C       -0.39199040       1.19600873      -0.31977260
N       -1.06218509       0.81684171       0.98066666
C       -0.46897055      -0.55696300       0.84127716
C       -1.20822813      -1.47793396      -0.04280875
N       -1.73936617      -2.09735427      -0.85136168
H        1.13220124      -0.93703557      -1.50635362
H        2.31860792       0.32541815      -1.13572453
H        2.26873987      -1.13258731      -0.16429468
H        0.32850624       1.09307930       1.50716559
H       -0.92443228       0.89082889      -1.23232788
H       -0.19026725       2.26607513      -0.40475977
H       -2.07734005       0.82139273       0.96876581
H       -0.32286078      -1.07163967       1.79490654
