14
Frame=0 idx=005421 GeodesicLength=0.0 rxn_smarts="[C:1]([C:2]([C:3]([H:11])([H:12])[H:13])([O:4][C:5](=[O:6])[H:14])[H:10])([H:7])([H:8])[H:9]>>[C:1]([C:2](=[C:3]([H:11])[H:13])[O:4][C:5](=[O:6])[H:14])([H:7])([H:8])[H:9].[H:10][H:12]"
C       -0.19637035       1.36145946       0.04259374
C       -0.33256416      -0.13526777       0.09255987
C       -1.56165610      -0.67604893       0.55046151
O        0.78709881      -0.89040125       0.47093497
C        2.00884738      -0.71146896      -0.07648087
O        2.32039944       0.07680609      -0.91150399
H       -1.12490262       1.78741426      -0.33338074
H       -0.05327890       1.69680650       1.07207413
H        0.63608338       1.68416922      -0.57284681
H       -0.15333945      -0.39254917      -1.42897785
H       -1.61404740      -1.72193891       0.80883130
H       -1.03726066      -0.64014789      -0.88095210
H       -2.36916999      -0.00051093       0.78071790
H        2.69016066      -1.43832167       0.38596894
14
Frame=1 idx=005421 GeodesicLength=0.10044577568236408 rxn_smarts="[C:1]([C:2]([C:3]([H:11])([H:12])[H:13])([O:4][C:5](=[O:6])[H:14])[H:10])([H:7])([H:8])[H:9]>>[C:1]([C:2](=[C:3]([H:11])[H:13])[O:4][C:5](=[O:6])[H:14])([H:7])([H:8])[H:9].[H:10][H:12]"
C       -0.19445763       1.36440975       0.04822150
C       -0.33085637      -0.13294722       0.08547673
C       -1.55888679      -0.67957405       0.53941749
O        0.78920637      -0.88031077       0.48349375
C        2.00759526      -0.71474102      -0.07243248
O        2.31385403       0.05227685      -0.92940559
H       -1.12147050       1.79542872      -0.32593972
H       -0.04896509       1.69678923       1.07828371
H        0.63801572       1.68897318      -0.56689072
H       -0.16241376      -0.38933683      -1.44262766
H       -1.60438431      -1.72341609       0.80894516
H       -1.06014477      -0.64851429      -0.91161935
H       -2.36169071      -0.00670531       0.79403432
H        2.69459855      -1.42233215       0.41104286
14
Frame=2 idx=005421 GeodesicLength=0.20047545288157104 rxn_smarts="[C:1]([C:2]([C:3]([H:11])([H:12])[H:13])([O:4][C:5](=[O:6])[H:14])[H:10])([H:7])([H:8])[H:9]>>[C:1]([C:2](=[C:3]([H:11])[H:13])[O:4][C:5](=[O:6])[H:14])([H:7])([H:8])[H:9].[H:10][H:12]"
C       -0.19241746       1.36753712       0.05394199
C       -0.32867569      -0.13036433       0.07908886
C       -1.55587986      -0.68308192       0.52811029
O        0.79159681      -0.86970253       0.49675514
C        2.00629076      -0.71827992      -0.06827484
O        2.30693169       0.02688630      -0.94676111
H       -1.11787293       1.80329376      -0.31880785
H       -0.04498263       1.69738807       1.08450371
H        0.64022408       1.69376266      -0.56074860
H       -0.17220636      -0.38618225      -1.45573158
H       -1.59441244      -1.72482950       0.80843658
H       -1.08391117      -0.65693423      -0.94259740
H       -2.35380568      -0.01348675       0.80688260
H        2.69912087      -1.40600648       0.43520221
14
Frame=3 idx=005421 GeodesicLength=0.3002428596377871 rxn_smarts="[C:1]([C:2]([C:3]([H:11])([H:12])[H:13])([O:4][C:5](=[O:6])[H:14])[H:10])([H:7])([H:8])[H:9]>>[C:1]([C:2](=[C:3]([H:11])[H:13])[O:4][C:5](=[O:6])[H:14])([H:7])([H:8])[H:9].[H:10][H:12]"
C       -0.19024078       1.37088606       0.05977297
C       -0.32597454      -0.12748379       0.07347690
C       -1.55260054      -0.68657913       0.51650220
O        0.79431821      -0.85854716       0.51074557
C        2.00495686      -0.72206182      -0.06395575
O        2.29958274       0.00060078      -0.96358953
H       -1.11410900       1.81102718      -0.31199348
H       -0.04134033       1.69866925       1.09075179
H        0.64271529       1.69856569      -0.55441354
H       -0.18280091      -0.38311477      -1.46820860
H       -1.58409722      -1.72619738       0.80725245
H       -1.10864436      -0.66544851      -0.97393219
H       -2.34553172      -0.02088735       0.81917360
H        2.70376631      -1.38942906       0.45841763
14
Frame=4 idx=005421 GeodesicLength=0.39996190375686325 rxn_smarts="[C:1]([C:2]([C:3]([H:11])([H:12])[H:13])([O:4][C:5](=[O:6])[H:14])[H:10])([H:7])([H:8])[H:9]>>[C:1]([C:2](=[C:3]([H:11])[H:13])[O:4][C:5](=[O:6])[H:14])([H:7])([H:8])[H:9].[H:10][H:12]"
C       -0.18787840       1.37447927       0.06574886
C       -0.32271246      -0.12428723       0.06871720
C       -1.54901385      -0.69006700       0.50453552
O        0.79740496      -0.84687925       0.52543489
C        2.00357509      -0.72615784      -0.05948879
O        2.29168701      -0.02671968      -0.97993570
H       -1.11013436       1.81865948      -0.30545979
H       -0.03797316       1.70065072       1.09706568
H        0.64553683       1.70337001      -0.54787122
H       -0.19434824      -0.38015329      -1.47998138
H       -1.57343575      -1.72754013       0.80527832
H       -1.13451668      -0.67406948      -1.00571279
H       -2.33687727      -0.02893811       0.83083203
H        2.70868627      -1.37234746       0.48083717
14
Frame=5 idx=005421 GeodesicLength=0.49981863340077315 rxn_smarts="[C:1]([C:2]([C:3]([H:11])([H:12])[H:13])([O:4][C:5](=[O:6])[H:14])[H:10])([H:7])([H:8])[H:9]>>[C:1]([C:2](=[C:3]([H:11])[H:13])[O:4][C:5](=[O:6])[H:14])([H:7])([H:8])[H:9].[H:10][H:12]"
C       -0.18532912       1.37838199       0.07188235
C       -0.31883489      -0.12071408       0.06492573
C       -1.54505655      -0.69354796       0.49214243
O        0.80092543      -0.83463243       0.54089251
C        2.00217546      -0.73050003      -0.05475526
O        2.28316341      -0.05512253      -0.99573678
H       -1.10595456       1.82620807      -0.29924120
H       -0.03491645       1.70343733       1.10345037
H        0.64869447       1.70822255      -0.54111177
H       -0.20693490      -0.37734072      -1.49091144
H       -1.56233211      -1.72887149       0.80247326
H       -1.16162699      -0.68286633      -1.03801308
H       -2.32786640      -0.03769190       0.84172509
H        2.71389320      -1.35496248       0.50227780
14
Frame=6 idx=005421 GeodesicLength=0.5998915481709836 rxn_smarts="[C:1]([C:2]([C:3]([H:11])([H:12])[H:13])([O:4][C:5](=[O:6])[H:14])[H:10])([H:7])([H:8])[H:9]>>[C:1]([C:2](=[C:3]([H:11])[H:13])[O:4][C:5](=[O:6])[H:14])([H:7])([H:8])[H:9].[H:10][H:12]"
C       -0.18252356       1.38260234       0.07822183
C       -0.31431631      -0.11675744       0.06215741
C       -1.54070093      -0.69702093       0.47924371
O        0.80489773      -0.82188601       0.55705228
C        2.00072472      -0.73518639      -0.04980057
O        2.27387083      -0.08479571      -1.01104973
H       -1.10149917       1.83371350      -0.29326645
H       -0.03206434       1.70700316       1.10996106
H        0.65225260       1.71309848      -0.53410979
H       -0.22075505      -0.37467883      -1.50093478
H       -1.55080787      -1.73020309       0.79872071
H       -1.19015072      -0.69188243      -1.07092861
H       -2.31850858      -0.04715901       0.85176393
H        2.71958065      -1.33684763       0.52296901
14
Frame=7 idx=005421 GeodesicLength=0.7002276754622283 rxn_smarts="[C:1]([C:2]([C:3]([H:11])([H:12])[H:13])([O:4][C:5](=[O:6])[H:14])[H:10])([H:7])([H:8])[H:9]>>[C:1]([C:2](=[C:3]([H:11])[H:13])[O:4][C:5](=[O:6])[H:14])([H:7])([H:8])[H:9].[H:10][H:12]"
C       -0.17951316       1.38724913       0.08475957
C       -0.30909700      -0.11231986       0.06053574
C       -1.53584194      -0.70048356       0.46579229
O        0.80942158      -0.80847290       0.57404726
C        1.99930341      -0.73998264      -0.04441542
O        2.26378537      -0.11564563      -1.02570830
H       -1.09683629       1.84118788      -0.28762082
H       -0.02953599       1.71152509       1.11657663
H        0.65615953       1.71811466      -0.52687004
H       -0.23584137      -0.37220933      -1.50988032
H       -1.53869592      -1.73151983       0.79406567
H       -1.22007181      -0.70130997      -1.10449700
H       -2.30884586      -0.05740558       0.86075251
H        2.72560945      -1.31872745       0.54246222
14
Frame=8 idx=005421 GeodesicLength=0.8008255143195051 rxn_smarts="[C:1]([C:2]([C:3]([H:11])([H:12])[H:13])([O:4][C:5](=[O:6])[H:14])[H:10])([H:7])([H:8])[H:9]>>[C:1]([C:2](=[C:3]([H:11])[H:13])[O:4][C:5](=[O:6])[H:14])([H:7])([H:8])[H:9].[H:10][H:12]"
C       -0.17619107       1.39230328       0.09156223
C       -0.30317840      -0.10741469       0.06008239
C       -1.53046520      -0.70392919       0.45168411
O        0.81448299      -0.79454656       0.59174712
C        1.99784587      -0.74505454      -0.03870809
O        2.25270622      -0.14794402      -1.03979326
H       -1.09184882       1.84868829      -0.28217927
H       -0.02715044       1.71690905       1.12337280
H        0.66051398       1.72321244      -0.51935081
H       -0.25245561      -0.36988345      -1.51772208
H       -1.52602959      -1.73283322       0.78838268
H       -1.25158155      -0.71121575      -1.13883093
H       -2.29889221      -0.06841938       0.86859740
H        2.73224384      -1.29987228       0.56115573
14
Frame=9 idx=005421 GeodesicLength=0.9017154878724483 rxn_smarts="[C:1]([C:2]([C:3]([H:11])([H:12])[H:13])([O:4][C:5](=[O:6])[H:14])[H:10])([H:7])([H:8])[H:9]>>[C:1]([C:2](=[C:3]([H:11])[H:13])[O:4][C:5](=[O:6])[H:14])([H:7])([H:8])[H:9].[H:10][H:12]"
C       -0.17279692       1.39800629       0.09857284
C       -0.29648322      -0.10181596       0.06102994
C       -1.52435856      -0.70731971       0.43683691
O        0.82026988      -0.77960569       0.61049932
C        1.99659551      -0.74966824      -0.03224289
O        2.24088364      -0.18105914      -1.05289753
H       -1.08680029       1.85619559      -0.27720929
H       -0.02536729       1.72358154       1.13025882
H        0.66507791       1.72872716      -0.51158010
H       -0.27044774      -0.36774218      -1.52405254
H       -1.51237398      -1.73398991       0.78199602
H       -1.28432444      -0.72229907      -1.17388871
H       -2.28861555      -0.08025586       0.87493129
H        2.73874105      -1.28275480       0.57774592
14
Frame=10 idx=005421 GeodesicLength=1.002644957026686 rxn_smarts="[C:1]([C:2]([C:3]([H:11])([H:12])[H:13])([O:4][C:5](=[O:6])[H:14])[H:10])([H:7])([H:8])[H:9]>>[C:1]([C:2](=[C:3]([H:11])[H:13])[O:4][C:5](=[O:6])[H:14])([H:7])([H:8])[H:9].[H:10][H:12]"
C       -0.16906766       1.40422115       0.10592110
C       -0.28906607      -0.09565162       0.06324897
C       -1.51758318      -0.71064939       0.42121884
O        0.82667217      -0.76410159       0.62991418
C        1.99533598      -0.75438447      -0.02538709
O        2.22783148      -0.21572729      -1.06530230
H       -1.08141027       1.86381945      -0.27237026
H       -0.02368300       1.73118480       1.13740195
H        0.67009355       1.73442827      -0.50348343
H       -0.29026175      -0.36566028      -1.52911103
H       -1.49802315      -1.73506955       0.77457595
H       -1.31856812      -0.73438682      -1.20978129
H       -2.27813291      -0.09285969       0.87974301
H        2.74586293      -1.26516297       0.59341141
14
Frame=11 idx=005421 GeodesicLength=1.1035068797998444 rxn_smarts="[C:1]([C:2]([C:3]([H:11])([H:12])[H:13])([O:4][C:5](=[O:6])[H:14])[H:10])([H:7])([H:8])[H:9]>>[C:1]([C:2](=[C:3]([H:11])[H:13])[O:4][C:5](=[O:6])[H:14])([H:7])([H:8])[H:9].[H:10][H:12]"
C       -0.16501077       1.41099660       0.11364152
C       -0.28093184      -0.08887735       0.06676377
C       -1.51006718      -0.71388258       0.40480887
O        0.83372067      -0.74799957       0.64997278
C        1.99409177      -0.75908627      -0.01808887
O        2.21346668      -0.25193704      -1.07692426
H       -1.07568888       1.87160335      -0.26762570
H       -0.02209644       1.73974098       1.14484455
H        0.67554327       1.74038246      -0.49503443
H       -0.31199854      -0.36358030      -1.53283708
H       -1.48291062      -1.73601270       0.76617415
H       -1.35415693      -0.74781472      -1.24653162
H       -2.26750585      -0.10619035       0.88284294
H        2.75354467      -1.24734250       0.60799340
14
Frame=12 idx=005421 GeodesicLength=1.2041891910889753 rxn_smarts="[C:1]([C:2]([C:3]([H:11])([H:12])[H:13])([O:4][C:5](=[O:6])[H:14])[H:10])([H:7])([H:8])[H:9]>>[C:1]([C:2](=[C:3]([H:11])[H:13])[O:4][C:5](=[O:6])[H:14])([H:7])([H:8])[H:9].[H:10][H:12]"
C       -0.16058476       1.41833192       0.12179031
C       -0.27212292      -0.08149186       0.07153694
C       -1.50179021      -0.71697467       0.38756815
O        0.84138636      -0.73138196       0.67057074
C        1.99283960      -0.76377170      -0.01038347
O        2.19764252      -0.28980126      -1.08769339
H       -1.06958250       1.87960723      -0.26287344
H       -0.02051340       1.74916687       1.15265725
H        0.68146155       1.74659606      -0.48618281
H       -0.33579374      -0.36136810      -1.53524576
H       -1.46706218      -1.73675663       0.75681805
H       -1.39093272      -0.76294298      -1.28414890
H       -2.25679602      -0.12015686       0.88408294
H        2.76184843      -1.22905604       0.62150337
14
Frame=13 idx=005421 GeodesicLength=1.3046343723713107 rxn_smarts="[C:1]([C:2]([C:3]([H:11])([H:12])[H:13])([O:4][C:5](=[O:6])[H:14])[H:10])([H:7])([H:8])[H:9]>>[C:1]([C:2](=[C:3]([H:11])[H:13])[O:4][C:5](=[O:6])[H:14])([H:7])([H:8])[H:9].[H:10][H:12]"
C       -0.15582502       1.42627347       0.13038798
C       -0.26267888      -0.07345304       0.07753055
C       -1.49269164      -0.71988346       0.36951151
O        0.84967457      -0.71420085       0.69165516
C        1.99159698      -0.76827616      -0.00224366
O        2.18029280      -0.32924550      -1.09747903
H       -1.06312991       1.88787957      -0.25806949
H       -0.01894752       1.75946752       1.16086745
H        0.68779529       1.75315735      -0.47690849
H       -0.36168875      -0.35888792      -1.53635900
H       -1.45040992      -1.73723168       0.74661303
H       -1.42858505      -0.78019526      -1.32261439
H       -2.24603855      -0.13467887       0.88334805
H        2.77063560      -1.21072517       0.63376034
14
Frame=14 idx=005421 GeodesicLength=1.4048370066804219 rxn_smarts="[C:1]([C:2]([C:3]([H:11])([H:12])[H:13])([O:4][C:5](=[O:6])[H:14])[H:10])([H:7])([H:8])[H:9]>>[C:1]([C:2](=[C:3]([H:11])[H:13])[O:4][C:5](=[O:6])[H:14])([H:7])([H:8])[H:9].[H:10][H:12]"
C       -0.15065767       1.43475734       0.13949961
C       -0.25268834      -0.06481847       0.08462794
C       -1.48282909      -0.72254645       0.35064744
O        0.85848981      -0.69665282       0.71304602
C        1.99028910      -0.77272460       0.00621365
O        2.16127564      -0.37043672      -1.10623137
H       -1.05623176       1.89648414      -0.25305545
H       -0.01722696       1.77045097       1.16956602
H        0.69461317       1.76000520      -0.46715188
H       -0.38979086      -0.35594673      -1.53628716
H       -1.43309384      -1.73737941       0.73557619
H       -1.46687235      -0.79991553      -1.36193064
H       -2.23531422      -0.14959300       0.88059003
H        2.78003736      -1.19168391       0.64488960
14
Frame=15 idx=005421 GeodesicLength=1.504868607577613 rxn_smarts="[C:1]([C:2]([C:3]([H:11])([H:12])[H:13])([O:4][C:5](=[O:6])[H:14])[H:10])([H:7])([H:8])[H:9]>>[C:1]([C:2](=[C:3]([H:11])[H:13])[O:4][C:5](=[O:6])[H:14])([H:7])([H:8])[H:9].[H:10][H:12]"
C       -0.14508176       1.44375904       0.14915812
C       -0.24224269      -0.05561350       0.09271712
C       -1.47221823      -0.72490218       0.33103308
O        0.86776424      -0.67881581       0.73461761
C        1.98887611      -0.77709435       0.01493069
O        2.14052256      -0.41336323      -1.11384489
H       -1.04887523       1.90547057      -0.24772808
H       -0.01528231       1.78200668       1.17880298
H        0.70190187       1.76714779      -0.45688026
H       -0.42010630      -0.35234875      -1.53514621
H       -1.41518831      -1.73712850       0.72380111
H       -1.50539727      -0.82250403      -1.40207069
H       -2.22467275      -0.16474131       0.87579652
H        2.79000005      -1.17187241       0.65481292
14
Frame=16 idx=005421 GeodesicLength=1.6048795946949217 rxn_smarts="[C:1]([C:2]([C:3]([H:11])([H:12])[H:13])([O:4][C:5](=[O:6])[H:14])[H:10])([H:7])([H:8])[H:9]>>[C:1]([C:2](=[C:3]([H:11])[H:13])[O:4][C:5](=[O:6])[H:14])([H:7])([H:8])[H:9].[H:10][H:12]"
C       -0.13903447       1.45318953       0.15941304
C       -0.23146022      -0.04591749       0.10163954
C       -1.46095776      -0.72688234       0.31071995
O        0.87736738      -0.66090693       0.75618788
C        1.98726414      -0.78153290       0.02379251
O        2.11791983      -0.45818884      -1.12023050
H       -1.04096560       1.91489461      -0.24193248
H       -0.01294766       1.79391581       1.18865493
H        0.70972333       1.77450388      -0.44604106
H       -0.45264695      -0.34787277      -1.53311185
H       -1.39688903      -1.73643149       0.71130818
H       -1.54381548      -0.84826152      -1.44300483
H       -2.21417387      -0.17993840       0.86902778
H        2.80061637      -1.15057116       0.66357690
