20
Frame=0 idx=009135 GeodesicLength=0.0 rxn_smarts="[C:1]([C@@:2]1([H:11])[N:3]([C:4]([H:12])([H:13])[H:14])[C:5]1([C:6]([H:15])([H:16])[H:17])[C:7]([H:18])([H:19])[H:20])([H:8])([H:9])[H:10]>>[C:1]([C-:2]([N+:3]([C:4]([H:12])([H:13])[H:14])=[C:5]([C:6]([H:15])([H:16])[H:17])[C:7]([H:18])([H:19])[H:20])[H:11])([H:8])([H:9])[H:10]"
C       -1.86369082       1.67068926       0.37222716
C       -0.74868022       0.76816312       0.78904394
N       -0.43149363      -0.35575480       0.07872436
C       -1.19647947      -1.57880283      -0.03578283
C        0.88945806      -0.17521928      -0.12352503
C        1.86331537      -1.23570997       0.30266378
C        1.39995485       0.90088488      -1.03610097
H       -2.65303483       1.10562658      -0.13484035
H       -2.30713890       2.17766264       1.23175028
H       -1.54166961       2.45055691      -0.33083993
H       -0.18986730       0.96368833       1.69395366
H       -1.06205230      -2.03152873      -1.02040963
H       -0.90959150      -2.30531714       0.73187195
H       -2.25044086      -1.33809306       0.10633813
H        2.84549352      -0.80381613       0.50518114
H        1.52840925      -1.75302685       1.20449503
H        2.00677064      -1.99242020      -0.47998656
H        0.58427536       1.52690094      -1.39484703
H        1.90091558       0.45557139      -1.90845024
H        2.13554681       1.54994495      -0.55146686
20
Frame=1 idx=009135 GeodesicLength=0.048995208762131336 rxn_smarts="[C:1]([C@@:2]1([H:11])[N:3]([C:4]([H:12])([H:13])[H:14])[C:5]1([C:6]([H:15])([H:16])[H:17])[C:7]([H:18])([H:19])[H:20])([H:8])([H:9])[H:10]>>[C:1]([C-:2]([N+:3]([C:4]([H:12])([H:13])[H:14])=[C:5]([C:6]([H:15])([H:16])[H:17])[C:7]([H:18])([H:19])[H:20])[H:11])([H:8])([H:9])[H:10]"
C       -1.86776791       1.66711190       0.37522922
C       -0.74363888       0.76560895       0.77020801
N       -0.43971248      -0.35066809       0.04080097
C       -1.19388680      -1.58247363      -0.03797931
C        0.88684100      -0.16955506      -0.13117624
C        1.85052921      -1.23854815       0.29741589
C        1.41269235       0.91162112      -1.02786042
H       -2.69124202       1.09826782      -0.06938243
H       -2.26188359       2.21107538       1.23616604
H       -1.57148194       2.41741119      -0.36959927
H       -0.18985513       0.95439985       1.67950525
H       -1.05626263      -2.05512903      -1.01267028
H       -0.89686841      -2.29001527       0.74317698
H       -2.24904027      -1.34742924       0.10312598
H        2.83813005      -0.81704916       0.49499926
H        1.51679503      -1.74665598       1.20505065
H        1.98339764      -2.00072601      -0.48145939
H        0.60428983       1.53579647      -1.40663603
H        1.93844698       0.47319134      -1.88829594
H        2.13051797       1.56376563      -0.52061895
20
Frame=2 idx=009135 GeodesicLength=0.09709236961915138 rxn_smarts="[C:1]([C@@:2]1([H:11])[N:3]([C:4]([H:12])([H:13])[H:14])[C:5]1([C:6]([H:15])([H:16])[H:17])[C:7]([H:18])([H:19])[H:20])([H:8])([H:9])[H:10]>>[C:1]([C-:2]([N+:3]([C:4]([H:12])([H:13])[H:14])=[C:5]([C:6]([H:15])([H:16])[H:17])[C:7]([H:18])([H:19])[H:20])[H:11])([H:8])([H:9])[H:10]"
C       -1.87117856       1.66304627       0.37774256
C       -0.73868120       0.76277853       0.75234290
N       -0.44742345      -0.34597966       0.00479246
C       -1.19118122      -1.58527672      -0.04035712
C        0.88402202      -0.16405999      -0.13802939
C        1.83801123      -1.24129920       0.29216718
C        1.42428944       0.92194668      -1.01912653
H       -2.72457094       1.09162091      -0.00233006
H       -2.21619846       2.24430471       1.23536178
H       -1.60296661       2.38175839      -0.40731736
H       -0.19000044       0.94573726       1.66579438
H       -1.05040740      -2.07634840      -1.00536625
H       -0.88467822      -2.27475471       0.75293885
H       -2.24745426      -1.35572250       0.09974869
H        2.83076163      -0.82990661       0.48471258
H        1.50590278      -1.74096784       1.20522096
H        1.96035702      -2.00837368      -0.48328530
H        0.62341587       1.54425687      -1.41730751
H        1.97383064       0.49020405      -1.86725585
H        2.12415011       1.57703563      -0.49044696
20
Frame=3 idx=009135 GeodesicLength=0.1443838064754895 rxn_smarts="[C:1]([C@@:2]1([H:11])[N:3]([C:4]([H:12])([H:13])[H:14])[C:5]1([C:6]([H:15])([H:16])[H:17])[C:7]([H:18])([H:19])[H:20])([H:8])([H:9])[H:10]>>[C:1]([C-:2]([N+:3]([C:4]([H:12])([H:13])[H:14])=[C:5]([C:6]([H:15])([H:16])[H:17])[C:7]([H:18])([H:19])[H:20])[H:11])([H:8])([H:9])[H:10]"
C       -1.87384371       1.65863155       0.37976045
C       -0.73378018       0.75967478       0.73549601
N       -0.45464928      -0.34170684      -0.02926921
C       -1.18840733      -1.58736438      -0.04272055
C        0.88100616      -0.15874707      -0.14412858
C        1.82579234      -1.24394381       0.28692856
C        1.43466408       0.93182145      -1.01008303
H       -2.75261217       1.08637893       0.06444081
H       -2.17128050       2.27616288       1.22978498
H       -1.63523287       2.34456046      -0.44283071
H       -0.19018563       0.93775285       1.65283155
H       -1.04461620      -2.09545002      -0.99834479
H       -0.87292725      -2.25965162       0.76148200
H       -2.24569776      -1.36304909       0.09643799
H        2.82339067      -0.84228880       0.47433926
H        1.49577952      -1.73593173       1.20505094
H        1.93770000      -2.01537249      -0.48542864
H        0.64150307       1.55227164      -1.42694258
H        2.00689284       0.50654190      -1.84561836
H        2.11650419       1.58970940      -0.46118610
20
Frame=4 idx=009135 GeodesicLength=0.19114532772472267 rxn_smarts="[C:1]([C@@:2]1([H:11])[N:3]([C:4]([H:12])([H:13])[H:14])[C:5]1([C:6]([H:15])([H:16])[H:17])[C:7]([H:18])([H:19])[H:20])([H:8])([H:9])[H:10]>>[C:1]([C-:2]([N+:3]([C:4]([H:12])([H:13])[H:14])=[C:5]([C:6]([H:15])([H:16])[H:17])[C:7]([H:18])([H:19])[H:20])[H:11])([H:8])([H:9])[H:10]"
C       -1.87604515       1.65391281       0.38134506
C       -0.72894707       0.75643682       0.71956121
N       -0.46140430      -0.33777892      -0.06151597
C       -1.18561964      -1.58883594      -0.04515380
C        0.87790177      -0.15358596      -0.14949406
C        1.81391825      -1.24658367       0.28167348
C        1.44409409       0.94134351      -1.00066645
H       -2.77608075       1.08238989       0.13162000
H       -2.12691675       2.30729475       1.21948443
H       -1.66877389       2.30547709      -0.47649857
H       -0.19041771       0.93059009       1.64053067
H       -1.03893167      -2.11262376      -0.99173812
H       -0.86162425      -2.24483915       0.76881017
H       -2.24386468      -1.36949884       0.09313113
H        2.81614822      -0.85438123       0.46384447
H        1.48639268      -1.73163763       1.20452107
H        1.91543428      -2.02187694      -0.48791865
H        0.65880310       1.55996263      -1.43554996
H        2.03805310       0.52233026      -1.82334365
H        2.10788037       1.60190419      -0.43264246
20
Frame=5 idx=009135 GeodesicLength=0.23775016847657107 rxn_smarts="[C:1]([C@@:2]1([H:11])[N:3]([C:4]([H:12])([H:13])[H:14])[C:5]1([C:6]([H:15])([H:16])[H:17])[C:7]([H:18])([H:19])[H:20])([H:8])([H:9])[H:10]>>[C:1]([C-:2]([N+:3]([C:4]([H:12])([H:13])[H:14])=[C:5]([C:6]([H:15])([H:16])[H:17])[C:7]([H:18])([H:19])[H:20])[H:11])([H:8])([H:9])[H:10]"
C       -1.87786328       1.64884975       0.38252254
C       -0.72414413       0.75310555       0.70442125
N       -0.46769430      -0.33412164      -0.09212530
C       -1.18280881      -1.58970554      -0.04765522
C        0.87472869      -0.14855260      -0.15419041
C        1.80230481      -1.24923772       0.27635543
C        1.45271903       0.95057180      -0.99083682
H       -2.79520165       1.07969018       0.19941189
H       -2.08304872       2.33773884       1.20446068
H       -1.70378449       2.26426055      -0.50835618
H       -0.19068538       0.92423795       1.62880457
H       -1.03332278      -2.12803205      -0.98551934
H       -0.85074449      -2.23023067       0.77509706
H       -2.24191855      -1.37507161       0.08978778
H        2.80895880      -0.86628962       0.45318435
H        1.47762698      -1.72806541       1.20360915
H        1.89343424      -2.02789636      -0.49080015
H        0.67549472       1.56742023      -1.44312658
H        2.06754203       0.53771000      -1.80041196
H        2.09840728       1.61361839      -0.40463274
20
Frame=6 idx=009135 GeodesicLength=0.2841528087335888 rxn_smarts="[C:1]([C@@:2]1([H:11])[N:3]([C:4]([H:12])([H:13])[H:14])[C:5]1([C:6]([H:15])([H:16])[H:17])[C:7]([H:18])([H:19])[H:20])([H:8])([H:9])[H:10]>>[C:1]([C-:2]([N+:3]([C:4]([H:12])([H:13])[H:14])=[C:5]([C:6]([H:15])([H:16])[H:17])[C:7]([H:18])([H:19])[H:20])[H:11])([H:8])([H:9])[H:10]"
C       -1.87931640       1.64356645       0.38334544
C       -0.71938153       0.74969466       0.69005741
N       -0.47356973      -0.33073789      -0.12119198
C       -1.18001493      -1.59010736      -0.05012690
C        0.87150523      -0.14365721      -0.15828921
C        1.79099451      -1.25188735       0.27100253
C        1.46056251       0.95947680      -0.98075377
H       -2.80999106       1.07865446       0.26657559
H       -2.04048540       2.36679024       1.18531940
H       -1.73959487       2.22172308      -0.53763789
H       -0.19093989       0.91870148       1.61762025
H       -1.02789016      -2.14193012      -0.97960415
H       -0.84021739      -2.21591862       0.78051838
H       -2.23991025      -1.37988430       0.08657516
H        2.80186853      -0.87793323       0.44238460
H        1.46949421      -1.72513704       1.20238014
H        1.87178187      -2.03349279      -0.49398880
H        0.69154036       1.57459971      -1.44983791
H        2.09539655       0.55259916      -1.77701899
H        2.08816784       1.62487989      -0.37732928
20
Frame=7 idx=009135 GeodesicLength=0.3303929339434713 rxn_smarts="[C:1]([C@@:2]1([H:11])[N:3]([C:4]([H:12])([H:13])[H:14])[C:5]1([C:6]([H:15])([H:16])[H:17])[C:7]([H:18])([H:19])[H:20])([H:8])([H:9])[H:10]>>[C:1]([C-:2]([N+:3]([C:4]([H:12])([H:13])[H:14])=[C:5]([C:6]([H:15])([H:16])[H:17])[C:7]([H:18])([H:19])[H:20])[H:11])([H:8])([H:9])[H:10]"
C       -1.88043381       1.63810205       0.38386107
C       -0.71464840       0.74621522       0.67642421
N       -0.47905691      -0.32759802      -0.14881685
C       -1.17723184      -1.59009642      -0.05253130
C        0.86824138      -0.13889172      -0.16182963
C        1.77997951      -1.25450729       0.26565825
C        1.46765853       0.96802963      -0.97052067
H       -2.82064846       1.07934533       0.33234407
H       -1.99965606       2.39404191       1.16262950
H       -1.77572666       2.17844386      -0.56396897
H       -0.19114790       0.91395175       1.60693132
H       -1.02268756      -2.15442957      -0.97397739
H       -0.82995674      -2.20194191       0.78516677
H       -2.23782348      -1.38400652       0.08359585
H        2.79486503      -0.88927947       0.43148941
H        1.46195906      -1.72277585       1.20090231
H        1.85048525      -2.03868198      -0.49739086
H        0.70694772       1.58145038      -1.45582562
H        2.12164883       0.56693678      -1.75329899
H        2.07723252       1.63569186      -0.35084248
20
Frame=8 idx=009135 GeodesicLength=0.3766381451721035 rxn_smarts="[C:1]([C@@:2]1([H:11])[N:3]([C:4]([H:12])([H:13])[H:14])[C:5]1([C:6]([H:15])([H:16])[H:17])[C:7]([H:18])([H:19])[H:20])([H:8])([H:9])[H:10]>>[C:1]([C-:2]([N+:3]([C:4]([H:12])([H:13])[H:14])=[C:5]([C:6]([H:15])([H:16])[H:17])[C:7]([H:18])([H:19])[H:20])[H:11])([H:8])([H:9])[H:10]"
C       -1.88132998       1.63246852       0.38414608
C       -0.70993867       0.74271302       0.66339742
N       -0.48418744      -0.32465678      -0.17520293
C       -1.17448298      -1.58971983      -0.05491577
C        0.86496759      -0.13425251      -0.16491087
C        1.76923638      -1.25712293       0.26030006
C        1.47417648       0.97628826      -0.96012520
H       -2.82759177       1.08176202       0.39710945
H       -1.96039915       2.41971500       1.13654477
H       -1.81243734       2.13421720      -0.58751655
H       -0.19130533       0.90996517       1.59663899
H       -1.01768998      -2.16574123      -0.96863555
H       -0.81998898      -2.18825266       0.78912620
H       -2.23570220      -1.38749021       0.08075269
H        2.78795245      -0.90038772       0.42050329
H        1.45493604      -1.72094716       1.19917458
H        1.82952505      -2.04353642      -0.50100462
H        0.72190925       1.58803872      -1.46115677
H        2.14662053       0.58082505      -1.72920212
H        2.06573006       1.64611448      -0.32502315
20
Frame=9 idx=009135 GeodesicLength=0.42307807741939835 rxn_smarts="[C:1]([C@@:2]1([H:11])[N:3]([C:4]([H:12])([H:13])[H:14])[C:5]1([C:6]([H:15])([H:16])[H:17])[C:7]([H:18])([H:19])[H:20])([H:8])([H:9])[H:10]>>[C:1]([C-:2]([N+:3]([C:4]([H:12])([H:13])[H:14])=[C:5]([C:6]([H:15])([H:16])[H:17])[C:7]([H:18])([H:19])[H:20])[H:11])([H:8])([H:9])[H:10]"
C       -1.88208242       1.62661550       0.38422620
C       -0.70522685       0.73922583       0.65089796
N       -0.48895816      -0.32185023      -0.20046854
C       -1.17175407      -1.58895975      -0.05730573
C        0.86170370      -0.12971087      -0.16754710
C        1.75870920      -1.25975736       0.25490406
C        1.48022905       0.98429796      -0.94951369
H       -2.83100054       1.08580989       0.46119920
H       -1.92262242       2.44393799       1.10698638
H       -1.84994911       2.08882688      -0.60840627
H       -0.19140483       0.90674274       1.58668417
H       -1.01287507      -2.17591223      -0.96358890
H       -0.81030199      -2.17479341       0.79246315
H       -2.23351988      -1.39032101       0.07799031
H        2.78109230      -0.91136123       0.40939013
H        1.44835324      -1.71966638       1.19718390
H        1.80880156      -2.04806120      -0.50485876
H        0.73657196       1.59443604      -1.46582387
H        2.17046737       0.59434584      -1.70467860
H        2.05376695       1.65615499      -0.29973399
20
Frame=10 idx=009135 GeodesicLength=0.4695408898322768 rxn_smarts="[C:1]([C@@:2]1([H:11])[N:3]([C:4]([H:12])([H:13])[H:14])[C:5]1([C:6]([H:15])([H:16])[H:17])[C:7]([H:18])([H:19])[H:20])([H:8])([H:9])[H:10]>>[C:1]([C-:2]([N+:3]([C:4]([H:12])([H:13])[H:14])=[C:5]([C:6]([H:15])([H:16])[H:17])[C:7]([H:18])([H:19])[H:20])[H:11])([H:8])([H:9])[H:10]"
C       -1.88264763       1.62067161       0.38416980
C       -0.70053952       0.73573795       0.63894000
N       -0.49342746      -0.31921400      -0.22471568
C       -1.16906244      -1.58797432      -0.05966437
C        0.85843414      -0.12528310      -0.16982660
C        1.74841058      -1.26238235       0.24951704
C        1.48581119       0.99206124      -0.93884470
H       -2.83111910       1.09166717       0.52370808
H       -1.88676596       2.46637634       1.07476493
H       -1.88754701       2.04295077      -0.62633623
H       -0.19143170       0.90423798       1.57709774
H       -1.00828508      -2.18520388      -0.95882755
H       -0.80084779      -2.16168577       0.79527491
H       -2.23130751      -1.39269299       0.07541107
H        2.77428446      -0.92207503       0.39822809
H        1.44218387      -1.71883522       1.19503377
H        1.78839083      -2.05233402      -0.50886858
H        0.75090145       1.60060855      -1.47003568
H        2.19322233       0.60745807      -1.67990933
H        2.04134236       1.66591099      -0.27511673
20
Frame=11 idx=009135 GeodesicLength=0.5163337669240576 rxn_smarts="[C:1]([C@@:2]1([H:11])[N:3]([C:4]([H:12])([H:13])[H:14])[C:5]1([C:6]([H:15])([H:16])[H:17])[C:7]([H:18])([H:19])[H:20])([H:8])([H:9])[H:10]>>[C:1]([C-:2]([N+:3]([C:4]([H:12])([H:13])[H:14])=[C:5]([C:6]([H:15])([H:16])[H:17])[C:7]([H:18])([H:19])[H:20])[H:11])([H:8])([H:9])[H:10]"
C       -1.88313203       1.61453138       0.38402056
C       -0.69587555       0.73222528       0.62735650
N       -0.49760601      -0.31665475      -0.24806074
C       -1.16636174      -1.58656305      -0.06199183
C        0.85516744      -0.12098259      -0.17181502
C        1.73833198      -1.26495633       0.24407548
C        1.49098403       0.99946150      -0.92803060
H       -2.82814920       1.09937449       0.58471790
H       -1.85281859       2.48679332       1.03986044
H       -1.92544607       1.99642922      -0.64111826
H       -0.19138567       0.90231950       1.56761313
H       -1.00381451      -2.19348021      -0.95418475
H       -0.79157610      -2.14860188       0.79756812
H       -2.22902791      -1.39439883       0.07294489
H        2.76752633      -0.93260602       0.38692585
H        1.43641135      -1.71830475       1.19258607
H        1.76828397      -2.05626266      -0.51298612
H        0.76497844       1.60640866      -1.47371591
H        2.21504895       0.62009631      -1.65468567
H        2.02846089       1.67517143      -0.25108002
20
Frame=12 idx=009135 GeodesicLength=0.5632200190375803 rxn_smarts="[C:1]([C@@:2]1([H:11])[N:3]([C:4]([H:12])([H:13])[H:14])[C:5]1([C:6]([H:15])([H:16])[H:17])[C:7]([H:18])([H:19])[H:20])([H:8])([H:9])[H:10]>>[C:1]([C-:2]([N+:3]([C:4]([H:12])([H:13])[H:14])=[C:5]([C:6]([H:15])([H:16])[H:17])[C:7]([H:18])([H:19])[H:20])[H:11])([H:8])([H:9])[H:10]"
C       -1.88353727       1.60830059       0.38382023
C       -0.69120487       0.72877685       0.61621371
N       -0.50151525      -0.31420717      -0.27060232
C       -1.16373884      -1.58500981      -0.06436128
C        0.85193374      -0.11675954      -0.17351103
C        1.72843798      -1.26755932       0.23865975
C        1.49588103       1.00673071      -0.91716086
H       -2.82230960       1.10879062       0.64456011
H       -1.82060940       2.50568031       1.00244071
H       -1.96369367       1.94924323      -0.65315188
H       -0.19122448       0.90110704       1.55845847
H       -0.99959198      -2.20109175      -0.94989847
H       -0.78257981      -2.13590448       0.79942453
H       -2.22677562      -1.39575748       0.07053706
H        2.76081993      -0.94295288       0.37562898
H        1.43094367      -1.71824795       1.19004302
H        1.74841747      -2.06001951      -0.51725412
H        0.77895618       1.61212369      -1.47706286
H        2.23608016       0.63247257      -1.62920387
H        2.01531063       1.68428426      -0.22757991
20
Frame=13 idx=009135 GeodesicLength=0.6105160968689606 rxn_smarts="[C:1]([C@@:2]1([H:11])[N:3]([C:4]([H:12])([H:13])[H:14])[C:5]1([C:6]([H:15])([H:16])[H:17])[C:7]([H:18])([H:19])[H:20])([H:8])([H:9])[H:10]>>[C:1]([C-:2]([N+:3]([C:4]([H:12])([H:13])[H:14])=[C:5]([C:6]([H:15])([H:16])[H:17])[C:7]([H:18])([H:19])[H:20])[H:11])([H:8])([H:9])[H:10]"
C       -1.88394211       1.60189000       0.38359027
C       -0.68654642       0.72536606       0.60541609
N       -0.50513042      -0.31177718      -0.29236558
C       -1.16110072      -1.58308233      -0.06680699
C        0.84874088      -0.11262917      -0.17490559
C        1.71874135      -1.27015132       0.23320663
C        1.50049350       1.01370187      -0.90609974
H       -2.81363259       1.12014757       0.70343035
H       -1.79021583       2.52288217       0.96220887
H       -2.00249841       1.90097744      -0.66220420
H       -0.19099203       0.90051238       1.54941022
H       -0.99550762      -2.20776154      -0.94591110
H       -0.77374357      -2.12332904       0.80070917
H       -2.22444598      -1.39649414       0.06815162
H        2.75414885      -0.95317940       0.36427205
H        1.42578358      -1.71856947       1.18720828
H        1.72884860      -2.06347701      -0.52165564
H        0.79282258       1.61756495      -1.47987365
H        2.25633840       0.64442239      -1.60323996
H        2.00183798       1.69298579      -0.20454109
20
Frame=14 idx=009135 GeodesicLength=0.6581615907525563 rxn_smarts="[C:1]([C@@:2]1([H:11])[N:3]([C:4]([H:12])([H:13])[H:14])[C:5]1([C:6]([H:15])([H:16])[H:17])[C:7]([H:18])([H:19])[H:20])([H:8])([H:9])[H:10]>>[C:1]([C-:2]([N+:3]([C:4]([H:12])([H:13])[H:14])=[C:5]([C:6]([H:15])([H:16])[H:17])[C:7]([H:18])([H:19])[H:20])[H:11])([H:8])([H:9])[H:10]"
C       -1.88435083       1.59530414       0.38336768
C       -0.68188546       0.72202542       0.59496111
N       -0.50847462      -0.30937143      -0.31345017
C       -1.15851588      -1.58090168      -0.06931942
C        0.84560299      -0.10856057      -0.17604016
C        1.70919214      -1.27275334       0.22770062
C        1.50495017       1.02050991      -0.89487722
H       -2.80222269       1.13342417       0.76133756
H       -1.76166233       2.53844484       0.91923944
H       -2.04182136       1.85158641      -0.66829417
H       -0.19068011       0.90057021       1.54053965
H       -0.99161438      -2.21371889      -0.94222995
H       -0.76516559      -2.11094541       0.80156519
H       -2.22212125      -1.39676430       0.06577367
H        2.74750301      -0.96329922       0.35282664
H        1.42085029      -1.71929675       1.18415009
H        1.70947794      -2.06670200      -0.52625289
H        0.80675747       1.62288590      -1.48225788
H        2.27600498       0.65611892      -1.57685641
H        1.98817551       1.70144367      -0.18188338
20
Frame=15 idx=009135 GeodesicLength=0.7060866908879478 rxn_smarts="[C:1]([C@@:2]1([H:11])[N:3]([C:4]([H:12])([H:13])[H:14])[C:5]1([C:6]([H:15])([H:16])[H:17])[C:7]([H:18])([H:19])[H:20])([H:8])([H:9])[H:10]>>[C:1]([C-:2]([N+:3]([C:4]([H:12])([H:13])[H:14])=[C:5]([C:6]([H:15])([H:16])[H:17])[C:7]([H:18])([H:19])[H:20])[H:11])([H:8])([H:9])[H:10]"
C       -1.88471967       1.58862267       0.38317281
C       -0.67723195       0.71871758       0.58485760
N       -0.51158999      -0.30699470      -0.33390210
C       -1.15596110      -1.57851864      -0.07190223
C        0.84249277      -0.10456986      -0.17695091
C        1.69980524      -1.27534635       0.22219112
C        1.50917971       1.02712720      -0.88356345
H       -2.78823776       1.14872928       0.81771242
H       -1.73508216       2.55213616       0.87401130
H       -2.08127480       1.80151677      -0.67125592
H       -0.19025493       0.90118538       1.53184414
H       -0.98790381      -2.21903113      -0.93886118
H       -0.75676424      -2.09880909       0.80199540
H       -2.21977934      -1.39664612       0.06341960
H        2.74087847      -0.97324749       0.34137478
H        1.41616113      -1.72037419       1.18092436
H        1.69036508      -2.06971309      -0.53095612
H        0.82065406       1.62804208      -1.48429889
H        2.29499944       0.66750774      -1.55011555
H        1.97426383       1.70966582      -0.15969716
20
Frame=16 idx=009135 GeodesicLength=0.7541880001571889 rxn_smarts="[C:1]([C@@:2]1([H:11])[N:3]([C:4]([H:12])([H:13])[H:14])[C:5]1([C:6]([H:15])([H:16])[H:17])[C:7]([H:18])([H:19])[H:20])([H:8])([H:9])[H:10]>>[C:1]([C-:2]([N+:3]([C:4]([H:12])([H:13])[H:14])=[C:5]([C:6]([H:15])([H:16])[H:17])[C:7]([H:18])([H:19])[H:20])[H:11])([H:8])([H:9])[H:10]"
C       -1.88504135       1.58186010       0.38303876
C       -0.67258955       0.71544065       0.57512565
N       -0.51449430      -0.30462777      -0.35372620
C       -1.15342953      -1.57593576      -0.07453418
C        0.83940900      -0.10064902      -0.17763571
C        1.69057999      -1.27790180       0.21669538
C        1.51318489       1.03351916      -0.87221362
H       -2.77190516       1.16595784       0.87209490
H       -1.71070926       2.56376707       0.82698824
H       -2.12042671       1.75111765      -0.67101476
H       -0.18971299       0.90233872       1.52332285
H       -0.98436217      -2.22370613      -0.93578738
H       -0.74852305      -2.08691264       0.80202515
H       -2.21742187      -1.39617347       0.06111344
H        2.73427552      -0.98298685       0.32992954
H        1.41169860      -1.72174727       1.17754684
H        1.67152727      -2.07249545      -0.53572564
H        0.83450539       1.63297997      -1.48604686
H        2.31328580       0.67851602      -1.52311740
H        1.96014948       1.71763896      -0.13807900
