13
Frame=0 idx=000076 GeodesicLength=0.0 rxn_smarts="[C:1]([C:2]([C:3]([C:4](=[O:5])[H:13])([H:11])[H:12])([H:9])[H:10])([H:6])([H:7])[H:8]>>[C:1]([C:2]([O:5][C:4](=[C:3]([H:11])[H:12])[H:13])([H:9])[H:10])([H:6])([H:7])[H:8]"
C       -1.70661820      -0.49980874       0.00077738
C       -0.64843784       0.20777102      -0.75459801
C        1.36935640       0.88958246       0.54028776
C        1.72739832      -0.39575509       0.18810320
O        0.90578563      -1.24873874      -0.22694262
H       -1.66772835      -0.26106070       1.06493328
H       -1.65130388      -1.57739444      -0.12156679
H       -2.67606853      -0.13281157      -0.36352572
H       -0.30722142      -0.19979985      -1.69299060
H       -0.68405527       1.28629350      -0.72249567
H        2.11220511       1.66240197       0.69973575
H        0.45089262       0.98726020       1.10727394
H        2.77579542      -0.71793999       0.28100811
13
Frame=1 idx=000076 GeodesicLength=0.06914070964829246 rxn_smarts="[C:1]([C:2]([C:3]([C:4](=[O:5])[H:13])([H:11])[H:12])([H:9])[H:10])([H:6])([H:7])[H:8]>>[C:1]([C:2]([O:5][C:4](=[C:3]([H:11])[H:12])[H:13])([H:9])[H:10])([H:6])([H:7])[H:8]"
C       -1.70523360      -0.48554938       0.00739407
C       -0.62576200       0.19356628      -0.74818636
C        1.34508190       0.87741996       0.55186651
C        1.73497726      -0.39564344       0.18396464
O        0.93120776      -1.24828979      -0.26766299
H       -1.68084964      -0.22543229       1.06684155
H       -1.66113591      -1.56653264      -0.09021376
H       -2.66682741      -0.11941893      -0.37684913
H       -0.32780198      -0.22463940      -1.69777813
H       -0.65690657       1.27326522      -0.75027305
H        2.07552734       1.66263182       0.70973517
H        0.44598057       0.95104858       1.15212485
H        2.79174228      -0.69242599       0.25903663
13
Frame=2 idx=000076 GeodesicLength=0.13795293709685186 rxn_smarts="[C:1]([C:2]([C:3]([C:4](=[O:5])[H:13])([H:11])[H:12])([H:9])[H:10])([H:6])([H:7])[H:8]>>[C:1]([C:2]([O:5][C:4](=[C:3]([H:11])[H:12])[H:13])([H:9])[H:10])([H:6])([H:7])[H:8]"
C       -1.70391501      -0.47099890       0.01393853
C       -0.60398600       0.17920040      -0.74219207
C        1.32098517       0.86413527       0.56346879
C        1.74283530      -0.39530481       0.17892724
O        0.95714465      -1.24595231      -0.30946735
H       -1.69372612      -0.18816697       1.06769326
H       -1.67033256      -1.55480723      -0.05759899
H       -2.65785505      -0.10741517      -0.39033481
H       -0.34905516      -0.24865202      -1.70126187
H       -0.62980211       1.25910009      -0.77774236
H        2.03846695       1.66181156       0.72041455
H        0.44222539       0.91328132       1.19527433
H        2.80701455      -0.66623121       0.23888075
13
Frame=3 idx=000076 GeodesicLength=0.20686375398710916 rxn_smarts="[C:1]([C:2]([C:3]([C:4](=[O:5])[H:13])([H:11])[H:12])([H:9])[H:10])([H:6])([H:7])[H:8]>>[C:1]([C:2]([O:5][C:4](=[C:3]([H:11])[H:12])[H:13])([H:9])[H:10])([H:6])([H:7])[H:8]"
C       -1.70234713      -0.45594330       0.02040182
C       -0.58290361       0.16450019      -0.73650180
C        1.29665832       0.84956571       0.57516097
C        1.75052694      -0.39477297       0.17304996
O        0.98348056      -1.24164149      -0.35231414
H       -1.70613544      -0.14886984       1.06722915
H       -1.67847694      -1.54178616      -0.02363476
H       -2.64865094      -0.09671465      -0.40388026
H       -0.37053278      -0.27229694      -1.70318530
H       -0.60258331       1.24357172      -0.80471713
H        2.00039022       1.65967901       0.73193985
H        0.43933903       0.87392420       1.23677177
H        2.82123506      -0.63921549       0.21967988
13
Frame=4 idx=000076 GeodesicLength=0.27547127189781234 rxn_smarts="[C:1]([C:2]([C:3]([C:4](=[O:5])[H:13])([H:11])[H:12])([H:9])[H:10])([H:6])([H:7])[H:8]>>[C:1]([C:2]([O:5][C:4](=[C:3]([H:11])[H:12])[H:13])([H:9])[H:10])([H:6])([H:7])[H:8]"
C       -1.70092315      -0.44052702       0.02676190
C       -0.56267894       0.14949056      -0.73125857
C        1.27243338       0.83382327       0.58687398
C        1.75844962      -0.39390719       0.16638529
O        1.01033256      -1.23528273      -0.39606185
H       -1.71807330      -0.10799605       1.06551797
H       -1.68629145      -1.52769565       0.01155173
H       -2.63983392      -0.08716727      -0.41735739
H       -0.39225617      -0.29559558      -1.70381764
H       -0.57535062       1.22688154      -0.83143635
H        1.96176746       1.65645669       0.74426025
H        0.43747273       0.83292302       1.27668373
H        2.83495181      -0.61140360       0.20189693
13
Frame=5 idx=000076 GeodesicLength=0.3439553210364656 rxn_smarts="[C:1]([C:2]([C:3]([C:4](=[O:5])[H:13])([H:11])[H:12])([H:9])[H:10])([H:6])([H:7])[H:8]>>[C:1]([C:2]([O:5][C:4](=[C:3]([H:11])[H:12])[H:13])([H:9])[H:10])([H:6])([H:7])[H:8]"
C       -1.69951982      -0.42468434       0.03299672
C       -0.54321579       0.13403854      -0.72639150
C        1.24815181       0.81684895       0.59858555
C        1.76641643      -0.39271593       0.15913921
O        1.03762450      -1.22675178      -0.44057828
H       -1.72916820      -0.06574680       1.06251786
H       -1.69390241      -1.51231729       0.04765256
H       -2.63120362      -0.07843561      -0.43049702
H       -0.41391859      -0.31888403      -1.70307392
H       -0.54803375       1.20886733      -0.85783493
H        1.92233283       1.65203162       0.75730593
H        0.43645744       0.79038740       1.31496589
H        2.84797917      -0.58263806       0.18521194
13
Frame=6 idx=000076 GeodesicLength=0.41232770612966224 rxn_smarts="[C:1]([C:2]([C:3]([C:4](=[O:5])[H:13])([H:11])[H:12])([H:9])[H:10])([H:6])([H:7])[H:8]>>[C:1]([C:2]([O:5][C:4](=[C:3]([H:11])[H:12])[H:13])([H:9])[H:10])([H:6])([H:7])[H:8]"
C       -1.69820702      -0.40842522       0.03908479
C       -0.52448363       0.11804523      -0.72182815
C        1.22384634       0.79864850       0.61024735
C        1.77449843      -0.39119563       0.15145876
O        1.06533806      -1.21596054      -0.48567336
H       -1.73921193      -0.02250842       1.05828325
H       -1.70172124      -1.49562771       0.08431110
H       -2.62283234      -0.07013762      -0.44309270
H       -0.43528250      -0.34238430      -1.70093436
H       -0.52062611       1.18947045      -0.88390715
H        1.88207164       1.64644541       0.77091388
H        0.43622296       0.74642503       1.35158301
H        2.86038736      -0.55279515       0.16955358
13
Frame=7 idx=000076 GeodesicLength=0.48064453240836963 rxn_smarts="[C:1]([C:2]([C:3]([C:4](=[O:5])[H:13])([H:11])[H:12])([H:9])[H:10])([H:6])([H:7])[H:8]>>[C:1]([C:2]([O:5][C:4](=[C:3]([H:11])[H:12])[H:13])([H:9])[H:10])([H:6])([H:7])[H:8]"
C       -1.69676152      -0.39185956       0.04506938
C       -0.50655669       0.10156655      -0.71758971
C        1.19949783       0.77941450       0.62147011
C        1.78237152      -0.38909808       0.14304582
O        1.09351296      -1.20245605      -0.53192993
H       -1.74763863       0.02121554       1.05299329
H       -1.70946926      -1.47761972       0.12115706
H       -2.61459947      -0.06221470      -0.45464672
H       -0.45643462      -0.36605143      -1.69753739
H       -0.49350370       1.16876683      -0.90948723
H        1.84104148       1.63972163       0.78471090
H        0.43686750       0.70144181       1.38617274
H        2.87167262      -0.52282732       0.15657169
13
Frame=8 idx=000076 GeodesicLength=0.5488480197592851 rxn_smarts="[C:1]([C:2]([C:3]([C:4](=[O:5])[H:13])([H:11])[H:12])([H:9])[H:10])([H:6])([H:7])[H:8]>>[C:1]([C:2]([O:5][C:4](=[C:3]([H:11])[H:12])[H:13])([H:9])[H:10])([H:6])([H:7])[H:8]"
C       -1.69543036      -0.37494078       0.05090159
C       -0.48935479       0.08443123      -0.71355303
C        1.17520573       0.75902849       0.63246398
C        1.79030341      -0.38656367       0.13428960
O        1.12219000      -1.18630283      -0.57879844
H       -1.75465414       0.06536685       1.04666045
H       -1.71780331      -1.45830826       0.15809964
H       -2.60671880      -0.05422764      -0.46536262
H       -0.47704120      -0.39029882      -1.69278739
H       -0.46651636       1.14665199      -0.93470010
H        1.79925742       1.63184941       0.79885930
H        0.43822125       0.65538247       1.41893062
H        2.88234115      -0.49206845       0.14499638
13
Frame=9 idx=000076 GeodesicLength=0.6170204550002641 rxn_smarts="[C:1]([C:2]([C:3]([C:4](=[O:5])[H:13])([H:11])[H:12])([H:9])[H:10])([H:6])([H:7])[H:8]>>[C:1]([C:2]([O:5][C:4](=[C:3]([H:11])[H:12])[H:13])([H:9])[H:10])([H:6])([H:7])[H:8]"
C       -1.69413475      -0.35775544       0.05659360
C       -0.47286658       0.06661010      -0.70962634
C        1.15100853       0.73761665       0.64300056
C        1.79815898      -0.38357427       0.12523651
O        1.15138167      -1.16711668      -0.62642403
H       -1.75992356       0.10935513       1.03953259
H       -1.72686626      -1.43776168       0.19463737
H       -2.59912899      -0.04583499      -0.47494649
H       -0.49697740      -0.41523116      -1.68666777
H       -0.43987942       1.12309425      -0.95942248
H        1.75680455       1.62286861       0.81295667
H        0.44022724       0.60870115       1.44965260
H        2.89219599      -0.46097166       0.13547721
13
Frame=10 idx=000076 GeodesicLength=0.6851007430069146 rxn_smarts="[C:1]([C:2]([C:3]([C:4](=[O:5])[H:13])([H:11])[H:12])([H:9])[H:10])([H:6])([H:7])[H:8]>>[C:1]([C:2]([O:5][C:4](=[C:3]([H:11])[H:12])[H:13])([H:9])[H:10])([H:6])([H:7])[H:8]"
C       -1.69290608      -0.34040811       0.06214086
C       -0.45708991       0.04808043      -0.70570934
C        1.12704406       0.71530839       0.65297172
C        1.80593258      -0.38016257       0.11597566
O        1.18107370      -1.14462470      -0.67482178
H       -1.76337516       0.15279960       1.03182277
H       -1.73688205      -1.41617896       0.23044642
H       -2.59189253      -0.03680113      -0.48336301
H       -0.51612908      -0.44098200      -1.67917909
H       -0.41379647       1.09815237      -0.98356438
H        1.71390971       1.61288086       0.82677240
H        0.44284745       0.56180994       1.47826563
H        2.90126378      -0.42987411       0.12824214
13
Frame=11 idx=000076 GeodesicLength=0.7532103423524849 rxn_smarts="[C:1]([C:2]([C:3]([C:4](=[O:5])[H:13])([H:11])[H:12])([H:9])[H:10])([H:6])([H:7])[H:8]>>[C:1]([C:2]([O:5][C:4](=[C:3]([H:11])[H:12])[H:13])([H:9])[H:10])([H:6])([H:7])[H:8]"
C       -1.69147410      -0.32298196       0.06749366
C       -0.44201873       0.02876118      -0.70166417
C        1.10338832       0.69213325       0.66225866
C        1.81334175      -0.37628710       0.10663338
O        1.21078753      -1.11822452      -0.72376312
H       -1.76456326       0.19512346       1.02377377
H       -1.74786826      -1.39350667       0.26496681
H       -2.58456402      -0.02680266      -0.49062890
H       -0.53444508      -0.46774771      -1.67022263
H       -0.38854824       1.07159644      -1.00701464
H        1.67064700       1.60172329       0.83995417
H        0.44623911       0.51517810       1.50466904
H        2.90907799      -0.39896510       0.12354396
13
Frame=12 idx=000076 GeodesicLength=0.8212323481869938 rxn_smarts="[C:1]([C:2]([C:3]([C:4](=[O:5])[H:13])([H:11])[H:12])([H:9])[H:10])([H:6])([H:7])[H:8]>>[C:1]([C:2]([O:5][C:4](=[C:3]([H:11])[H:12])[H:13])([H:9])[H:10])([H:6])([H:7])[H:8]"
C       -1.69008088      -0.30554680       0.07267574
C       -0.42757113       0.00876044      -0.69742807
C        1.08018825       0.66825486       0.67090717
C        1.82053310      -0.37213278       0.09716984
O        1.24074711      -1.08798404      -0.77329396
H       -1.76408627       0.23658541       1.01537742
H       -1.75986579      -1.37005749       0.29854789
H       -2.57749666      -0.01609298      -0.49701079
H       -0.55161159      -0.49557931      -1.65987734
H       -0.36427299       1.04383629      -1.02967124
H        1.62736878       1.58962545       0.85263012
H        0.45011090       0.46901408       1.52905708
H        2.91603718      -0.36868314       0.12091614
13
Frame=13 idx=000076 GeodesicLength=0.8891847509664249 rxn_smarts="[C:1]([C:2]([C:3]([C:4](=[O:5])[H:13])([H:11])[H:12])([H:9])[H:10])([H:6])([H:7])[H:8]>>[C:1]([C:2]([O:5][C:4](=[C:3]([H:11])[H:12])[H:13])([H:9])[H:10])([H:6])([H:7])[H:8]"
C       -1.68853160      -0.28832110       0.07765931
C       -0.41374514      -0.01179840      -0.69290599
C        1.05757449       0.64393293       0.67866598
C        1.82724237      -0.36777050       0.08764015
O        1.27054796      -1.05333834      -0.82315680
H       -1.76166973       0.27639139       1.00699030
H       -1.77278410      -1.34609746       0.33053793
H       -2.57046040      -0.00450949      -0.50242505
H       -0.56750351      -0.52440237      -1.64811671
H       -0.34143167       1.01500222      -1.05132669
H        1.58442915       1.57664859       0.86416292
H        0.45450300       0.42414626       1.55127710
H        2.92182919      -0.33988373       0.12099753
13
Frame=14 idx=000076 GeodesicLength=0.9571877038916928 rxn_smarts="[C:1]([C:2]([C:3]([C:4](=[O:5])[H:13])([H:11])[H:12])([H:9])[H:10])([H:6])([H:7])[H:8]>>[C:1]([C:2]([O:5][C:4](=[C:3]([H:11])[H:12])[H:13])([H:9])[H:10])([H:6])([H:7])[H:8]"
C       -1.68677702      -0.27136795       0.08241319
C       -0.40047673      -0.03277178      -0.68808151
C        1.03562467       0.61925832       0.68556469
C        1.83335299      -0.36328165       0.07798945
O        1.29986940      -1.01389813      -0.87312351
H       -1.75757315       0.31468568       0.99851566
H       -1.78635376      -1.32167354       0.36118573
H       -2.56335800       0.00754721      -0.50716995
H       -0.58197138      -0.55429836      -1.63498563
H       -0.32022745       0.98533717      -1.07192005
H        1.54207997       1.56281203       0.87459228
H        0.45936867       0.38073122       1.57151361
H        2.92644179      -0.31308020       0.12350605
13
Frame=15 idx=000076 GeodesicLength=1.0252414652539115 rxn_smarts="[C:1]([C:2]([C:3]([C:4](=[O:5])[H:13])([H:11])[H:12])([H:9])[H:10])([H:6])([H:7])[H:8]>>[C:1]([C:2]([O:5][C:4](=[C:3]([H:11])[H:12])[H:13])([H:9])[H:10])([H:6])([H:7])[H:8]"
C       -1.68491160      -0.25445654       0.08670590
C       -0.38751356      -0.05435107      -0.68269360
C        1.01444605       0.59387520       0.69216948
C        1.83914390      -0.35859362       0.06816646
O        1.32791276      -0.97117545      -0.92152334
H       -1.75211137       0.35196337       0.98962665
H       -1.80109113      -1.29648433       0.39045939
H       -2.55595793       0.02046589      -0.51201743
H       -0.59454650      -0.58566254      -1.62018006
H       -0.30027346       0.95466859      -1.09135805
H        1.50015144       1.54785655       0.88478807
H        0.46466889       0.33799772       1.59025860
H        2.93008251      -0.28610378       0.12559793
13
Frame=16 idx=000076 GeodesicLength=1.093239565655264 rxn_smarts="[C:1]([C:2]([C:3]([C:4](=[O:5])[H:13])([H:11])[H:12])([H:9])[H:10])([H:6])([H:7])[H:8]>>[C:1]([C:2]([O:5][C:4](=[C:3]([H:11])[H:12])[H:13])([H:9])[H:10])([H:6])([H:7])[H:8]"
C       -1.68273993      -0.23796607       0.09056723
C       -0.37491655      -0.07603904      -0.67690881
C        0.99415222       0.56834148       0.69813448
C        1.84428618      -0.35385858       0.05819729
O        1.35424885      -0.92497048      -0.96821387
H       -1.74518741       0.38742016       0.98071243
H       -1.81640026      -1.27110645       0.41792526
H       -2.54823158       0.03380160      -0.51673717
H       -0.60529192      -0.61793306      -1.60411578
H       -0.28214070       0.92372609      -1.10951259
H        1.45924104       1.53219799       0.89400524
H        0.47037725       0.29710836       1.60746250
H        2.93260281      -0.26072199       0.12848379
