10
Frame=0 idx=005484 GeodesicLength=0.0 rxn_smarts="[O:1]=[C:2]([C@@:3]1([H:7])[C:4]([H:8])([H:9])[N:5]1[H:10])[H:6]>>[C:3](\[C:4]([H:6])([H:8])[H:9])(=[N:5]\[H:10])[H:7].[O+:1]#[C-:2]"
O        1.73096287      -0.36486758       1.56232899
C        1.27804465      -0.34853138       0.49425887
C        0.22501093       0.57161891      -0.38070838
C       -0.70767724      -0.59630643      -0.40214593
N       -0.51469756       1.60306873       0.02970820
H        0.69587950      -1.34021708      -0.17731649
H        0.72826341       0.71171004      -1.34221101
H       -1.34989032      -0.74052086      -1.26710484
H       -1.15889849      -0.87273922       0.54819457
H       -0.92699776       1.37678486       0.93499602
10
Frame=1 idx=005484 GeodesicLength=0.08899692726708719 rxn_smarts="[O:1]=[C:2]([C@@:3]1([H:7])[C:4]([H:8])([H:9])[N:5]1[H:10])[H:6]>>[C:3](\[C:4]([H:6])([H:8])[H:9])(=[N:5]\[H:10])[H:7].[O+:1]#[C-:2]"
O        1.73471061      -0.35323109       1.57807629
C        1.29955829      -0.35149551       0.50234022
C        0.22938940       0.57103434      -0.38979151
C       -0.71417592      -0.58724000      -0.40451372
N       -0.53070943       1.58589695       0.02554444
H        0.68980165      -1.34543851      -0.17586380
H        0.72658734       0.71488996      -1.35328753
H       -1.35403844      -0.73338348      -1.27102224
H       -1.16908050      -0.86818827       0.54263837
H       -0.91204300       1.36715560       0.94587947
10
Frame=2 idx=005484 GeodesicLength=0.1780073550281561 rxn_smarts="[O:1]=[C:2]([C@@:3]1([H:7])[C:4]([H:8])([H:9])[N:5]1[H:10])[H:6]>>[C:3](\[C:4]([H:6])([H:8])[H:9])(=[N:5]\[H:10])[H:7].[O+:1]#[C-:2]"
O        1.73927408      -0.34111084       1.59349328
C        1.32127665      -0.35467555       0.51087879
C        0.23343232       0.57026502      -0.39871686
C       -0.72081038      -0.57836776      -0.40699061
N       -0.54559737       1.56871346       0.02231795
H        0.68364593      -1.35063335      -0.17427612
H        0.72457493       0.71814490      -1.36413323
H       -1.35833761      -0.72611981      -1.27508479
H       -1.17968672      -0.86387263       0.53678213
H       -0.89777183       1.35765655       0.95572946
10
Frame=3 idx=005484 GeodesicLength=0.2670294537449506 rxn_smarts="[O:1]=[C:2]([C@@:3]1([H:7])[C:4]([H:8])([H:9])[N:5]1[H:10])[H:6]>>[C:3](\[C:4]([H:6])([H:8])[H:9])(=[N:5]\[H:10])[H:7].[O+:1]#[C-:2]"
O        1.74460822      -0.32846751       1.60862068
C        1.34322025      -0.35805740       0.51987624
C        0.23715280       0.56930370      -0.40752409
C       -0.72758637      -0.56968563      -0.40959626
N       -0.55941299       1.55155305       0.01992749
H        0.67740131      -1.35581343      -0.17253096
H        0.72224795       0.72145902      -1.37477898
H       -1.36280134      -0.71871101      -1.27930844
H       -1.19072434      -0.85977402       0.53060454
H       -0.88410548       1.34819322       0.96470978
10
Frame=4 idx=005484 GeodesicLength=0.35605253480064264 rxn_smarts="[O:1]=[C:2]([C@@:3]1([H:7])[C:4]([H:8])([H:9])[N:5]1[H:10])[H:6]>>[C:3](\[C:4]([H:6])([H:8])[H:9])(=[N:5]\[H:10])[H:7].[O+:1]#[C-:2]"
O        1.75068731      -0.31524688       1.62348440
C        1.36541179      -0.36163968       0.52933566
C        0.24056548       0.56813987      -0.41624493
C       -0.73451233      -0.56118897      -0.41235169
N       -0.57220702       1.53443794       0.01829215
H        0.67104980      -1.36098825      -0.17059288
H        0.71962844       0.72481941      -1.38524877
H       -1.36744319      -0.71113219      -1.28371531
H       -1.20220958      -0.85587412       0.52407947
H       -0.87097071       1.33867285       0.97296189
10
Frame=5 idx=005484 GeodesicLength=0.44509963611458003 rxn_smarts="[O:1]=[C:2]([C@@:3]1([H:7])[C:4]([H:8])([H:9])[N:5]1[H:10])[H:6]>>[C:3](\[C:4]([H:6])([H:8])[H:9])(=[N:5]\[H:10])[H:7].[O+:1]#[C-:2]"
O        1.75748065      -0.30142584       1.63811722
C        1.38787583      -0.36541034       0.53927601
C        0.24368152       0.56676921      -0.42491068
C       -0.74159310      -0.55287172      -0.41527022
N       -0.58401883       1.51739202       0.01733281
H        0.66458160      -1.36616903      -0.16845353
H        0.71673022       0.72821656      -1.39557248
H       -1.37228225      -0.70336070      -1.28831055
H       -1.21413758      -0.85215443       0.51719294
H       -0.85831808       1.32901427       0.98059847
10
Frame=6 idx=005484 GeodesicLength=0.5341510703888641 rxn_smarts="[O:1]=[C:2]([C@@:3]1([H:7])[C:4]([H:8])([H:9])[N:5]1[H:10])[H:6]>>[C:3](\[C:4]([H:6])([H:8])[H:9])(=[N:5]\[H:10])[H:7].[O+:1]#[C-:2]"
O        1.76497839      -0.28694707       1.65252466
C        1.41063513      -0.36937592       0.54970565
C        0.24651475       0.56517902      -0.43354281
C       -0.74883787      -0.54472913      -0.41837043
N       -0.59490348       1.50041798       0.01699626
H        0.65797390      -1.37136197      -0.16607260
H        0.71357169       0.73164382      -1.40576193
H       -1.37732544      -0.69537216      -1.29311959
H       -1.22653220      -0.84859703       0.50991581
H       -0.84607486       1.31914247       0.98772497
10
Frame=7 idx=005484 GeodesicLength=0.6232135220649981 rxn_smarts="[O:1]=[C:2]([C@@:3]1([H:7])[C:4]([H:8])([H:9])[N:5]1[H:10])[H:6]>>[C:3](\[C:4]([H:6])([H:8])[H:9])(=[N:5]\[H:10])[H:7].[O+:1]#[C-:2]"
O        1.77317040      -0.27177759       1.66671934
C        1.43371486      -0.37353299       0.56064467
C        0.24907611       0.56336051      -0.44216267
C       -0.75625293      -0.53675554      -0.42166638
N       -0.60490255       1.48351678       0.01723175
H        0.65120981      -1.37657435      -0.16342727
H        0.71016345       0.73509770      -1.41583498
H       -1.38258590      -0.68714169      -1.29815432
H       -1.23940192      -0.84518231       0.50222637
H       -0.83419133       1.30898948       0.99442349
10
Frame=8 idx=005484 GeodesicLength=0.712280151745469 rxn_smarts="[O:1]=[C:2]([C@@:3]1([H:7])[C:4]([H:8])([H:9])[N:5]1[H:10])[H:6]>>[C:3](\[C:4]([H:6])([H:8])[H:9])(=[N:5]\[H:10])[H:7].[O+:1]#[C-:2]"
O        1.78205658      -0.25587019       1.68069677
C        1.45713779      -0.37788885       0.57211464
C        0.25137621       0.56130330      -0.45078565
C       -0.76384646      -0.52894549      -0.42517383
N       -0.61405897       1.46668307       0.01799794
H        0.64426686      -1.38181198      -0.16048771
H        0.70652094       0.73857627      -1.42579819
H       -1.38807326      -0.67864213      -1.30343207
H       -1.25276219      -0.84189229       0.49410159
H       -0.82261750       1.29848828       1.00076649
10
Frame=9 idx=005484 GeodesicLength=0.8013375931153273 rxn_smarts="[O:1]=[C:2]([C@@:3]1([H:7])[C:4]([H:8])([H:9])[N:5]1[H:10])[H:6]>>[C:3](\[C:4]([H:6])([H:8])[H:9])(=[N:5]\[H:10])[H:7].[O+:1]#[C-:2]"
O        1.79162654      -0.23919895       1.69446068
C        1.48092467      -0.38244850       0.58413782
C        0.25342367       0.55900093      -0.45942924
C       -0.77162203      -0.52129334      -0.42890355
N       -0.62241491       1.44990627       0.01926019
H        0.63713189      -1.38707520      -0.15723211
H        0.70264884       0.74208131      -1.43566584
H       -1.39379651      -0.66985391      -1.30896562
H       -1.26661795      -0.83871112       0.48552231
H       -0.81130422       1.28759251       1.00681536
10
Frame=10 idx=005484 GeodesicLength=0.8903979996527895 rxn_smarts="[O:1]=[C:2]([C@@:3]1([H:7])[C:4]([H:8])([H:9])[N:5]1[H:10])[H:6]>>[C:3](\[C:4]([H:6])([H:8])[H:9])(=[N:5]\[H:10])[H:7].[O+:1]#[C-:2]"
O        1.80189078      -0.22171353       1.70799454
C        1.50510026      -0.38721438       0.59675018
C        0.25522726       0.55644283      -0.46810526
C       -0.77959115      -0.51379149      -0.43287222
N       -0.63000697       1.43317564       0.02097898
H        0.62977759      -1.39237095      -0.15363390
H        0.69856481       0.74561045      -1.44543853
H       -1.39976773      -0.66074343      -1.31476979
H       -1.28098610      -0.83562012       0.47646656
H       -0.80020875       1.27622498       1.01262945
10
Frame=11 idx=005484 GeodesicLength=0.9794713096149177 rxn_smarts="[O:1]=[C:2]([C@@:3]1([H:7])[C:4]([H:8])([H:9])[N:5]1[H:10])[H:6]>>[C:3](\[C:4]([H:6])([H:8])[H:9])(=[N:5]\[H:10])[H:7].[O+:1]#[C-:2]"
O        1.81284263      -0.20338971       1.72129429
C        1.52968875      -0.39218511       0.60998945
C        0.25679302       0.55362200      -0.47682914
C       -0.78775863      -0.50643385      -0.43709078
N       -0.63686822       1.41647592       0.02312423
H        0.62218809      -1.39770431      -0.14968430
H        0.69427343       0.74916603      -1.45512639
H       -1.40599885      -0.65128613      -1.32084962
H       -1.29586599      -0.83259914       0.46692000
H       -0.78929423       1.26433430       1.01825226
10
Frame=12 idx=005484 GeodesicLength=1.068543283561849 rxn_smarts="[O:1]=[C:2]([C@@:3]1([H:7])[C:4]([H:8])([H:9])[N:5]1[H:10])[H:6]>>[C:3](\[C:4]([H:6])([H:8])[H:9])(=[N:5]\[H:10])[H:7].[O+:1]#[C-:2]"
O        1.82449720      -0.18417640       1.73433498
C        1.55471038      -0.39737292       0.62389323
C        0.25812893       0.55052750      -0.48560950
C       -0.79613428      -0.49921474      -0.44157343
N       -0.64303123       1.39978832       0.02567109
H        0.61433804      -1.40307679      -0.14535358
H        0.68978736       0.75275200      -1.46472674
H       -1.41249942      -0.64144986      -1.32722212
H       -1.31127597      -0.82963397       0.45685926
H       -0.77852101       1.25185687       1.02372679
10
Frame=13 idx=005484 GeodesicLength=1.1576317122494373 rxn_smarts="[O:1]=[C:2]([C@@:3]1([H:7])[C:4]([H:8])([H:9])[N:5]1[H:10])[H:6]>>[C:3](\[C:4]([H:6])([H:8])[H:9])(=[N:5]\[H:10])[H:7].[O+:1]#[C-:2]"
O        1.83684373      -0.16406749       1.74710640
C        1.58019194      -0.40276582       0.63851153
C        0.25923827       0.54715392      -0.49446276
C       -0.80472083      -0.49212634      -0.44632826
N       -0.64852619       1.38309104       0.02859411
H        0.60621452      -1.40849159      -0.14063982
H        0.68510611       0.75637068      -1.47425149
H       -1.41928154      -0.63121033      -1.33388455
H       -1.32720649      -0.82670067       0.44627342
H       -0.76785951       1.23874659       1.02908141
10
Frame=14 idx=005484 GeodesicLength=1.2467311588478756 rxn_smarts="[O:1]=[C:2]([C@@:3]1([H:7])[C:4]([H:8])([H:9])[N:5]1[H:10])[H:6]>>[C:3](\[C:4]([H:6])([H:8])[H:9])(=[N:5]\[H:10])[H:7].[O+:1]#[C-:2]"
O        1.84990769      -0.14300282       1.75956929
C        1.60615329      -0.40838016       0.65389775
C        0.26012753       0.54348989      -0.50339564
C       -0.81352960      -0.48516208      -0.45137129
N       -0.65338032       1.36635751       0.03187543
H        0.59778692      -1.41395087      -0.13551611
H        0.68024420       0.76002785      -1.48369281
H       -1.42635573      -0.62053048      -1.34085429
H       -1.34367679      -0.82378356       0.43513939
H       -0.75727718       1.22493471       1.03434828
10
Frame=15 idx=005484 GeodesicLength=1.33584770964877 rxn_smarts="[O:1]=[C:2]([C@@:3]1([H:7])[C:4]([H:8])([H:9])[N:5]1[H:10])[H:6]>>[C:3](\[C:4]([H:6])([H:8])[H:9])(=[N:5]\[H:10])[H:7].[O+:1]#[C-:2]"
O        1.86369366      -0.12095980       1.77169280
C        1.63261618      -0.41421380       0.67011672
C        0.26080013       0.53952819      -0.51242031
C       -0.82256662      -0.47831429      -0.45671216
N       -0.65762150       1.34956424       0.03549274
H        0.58903805      -1.41945760      -0.12997783
H        0.67520713       0.76372905      -1.49305196
H       -1.43373617      -0.60937983      -1.34813448
H       -1.36068436      -0.82086479       0.42344656
H       -0.74674650       1.21036862       1.03954792
10
Frame=16 idx=005484 GeodesicLength=1.4249804544002602 rxn_smarts="[O:1]=[C:2]([C@@:3]1([H:7])[C:4]([H:8])([H:9])[N:5]1[H:10])[H:6]>>[C:3](\[C:4]([H:6])([H:8])[H:9])(=[N:5]\[H:10])[H:7].[O+:1]#[C-:2]"
O        1.87822263      -0.09789694       1.78343100
C        1.65960060      -0.42027142       0.68723914
C        0.26125947       0.53525841      -0.52154502
C       -0.83183982      -0.47157646      -0.46236372
N       -0.66127107       1.33267955       0.03943144
H        0.57994096      -1.42501379      -0.12401110
H        0.67000278       0.76748002      -1.50232414
H       -1.44143368      -0.59772161      -1.35573470
H       -1.37823655      -0.81792388       0.41117694
H       -0.73624532       1.19498611       1.04470017
