11
Frame=0 idx=002712 GeodesicLength=0.0 rxn_smarts="[C@:1]12([H:7])[C@:2]3([H:8])[C@@:3]1([H:9])[N:4]1[C@@:5]2([H:10])[C@:6]31[H:11]>>[C@:1]12([H:7])[C@:2]3([H:8])[C@@:3]1([H:9])[N:4]([H:11])[C@@:5]2([H:10])[C:6]3"
C       -0.12339585       1.00537581       0.28576460
C        1.03171352       0.03837542       0.39236129
C        0.37029912       0.26897297      -0.92133832
N       -0.68655666      -0.79484260      -0.79873373
C       -1.06648314      -0.19948071       0.50182987
C        0.07892550      -1.13382550       0.77218983
H       -0.20044491       2.06423073       0.46477267
H        2.06327226       0.20352294       0.66125836
H        0.75735800       0.61683915      -1.86741692
H       -2.08937168      -0.26858845       0.85235506
H       -0.13531615      -1.80057981      -0.34304270
11
Frame=1 idx=002712 GeodesicLength=0.055320151812804176 rxn_smarts="[C@:1]12([H:7])[C@:2]3([H:8])[C@@:3]1([H:9])[N:4]1[C@@:5]2([H:10])[C@:6]31[H:11]>>[C@:1]12([H:7])[C@:2]3([H:8])[C@@:3]1([H:9])[N:4]([H:11])[C@@:5]2([H:10])[C:6]3"
C       -0.12325785       1.00220797       0.28757605
C        1.03650766       0.03718758       0.38715524
C        0.36851892       0.26936182      -0.92347596
N       -0.68339341      -0.79753632      -0.80161912
C       -1.07138747      -0.19828136       0.49500889
C        0.07866214      -1.11889683       0.77970400
H       -0.19589531       2.05946317       0.47770136
H        2.06719158       0.20678606       0.65627363
H        0.75504534       0.62126629      -1.86830859
H       -2.09408783      -0.26834243       0.84496395
H       -0.13790378      -1.81321593      -0.33497944
11
Frame=2 idx=002712 GeodesicLength=0.11063511275181848 rxn_smarts="[C@:1]12([H:7])[C@:2]3([H:8])[C@@:3]1([H:9])[N:4]1[C@@:5]2([H:10])[C@:6]31[H:11]>>[C@:1]12([H:7])[C@:2]3([H:8])[C@@:3]1([H:9])[N:4]([H:11])[C@@:5]2([H:10])[C:6]3"
C       -0.12313211       0.99908314       0.28933726
C        1.04124390       0.03598651       0.38196861
C        0.36677954       0.26978488      -0.92561081
N       -0.68021463      -0.80016657      -0.80449617
C       -1.07616398      -0.19711740       0.48821455
C        0.07839597      -1.10388700       0.78701492
H       -0.19141302       2.05460330       0.49054658
H        2.07101628       0.21004642       0.65137799
H        0.75279671       0.62570030      -1.86917784
H       -2.09864856      -0.26813930       0.83768142
H       -0.14066012      -1.82589429      -0.32685650
11
Frame=3 idx=002712 GeodesicLength=0.16594738448136265 rxn_smarts="[C@:1]12([H:7])[C@:2]3([H:8])[C@@:3]1([H:9])[N:4]1[C@@:5]2([H:10])[C@:6]31[H:11]>>[C@:1]12([H:7])[C@:2]3([H:8])[C@@:3]1([H:9])[N:4]([H:11])[C@@:5]2([H:10])[C:6]3"
C       -0.12302155       0.99600777       0.29104376
C        1.04591771       0.03477440       0.37680937
C        0.36508372       0.27024064      -0.92774235
N       -0.67702605      -0.80272864      -0.80736587
C       -1.08080810      -0.19599099       0.48145692
C        0.07813241      -1.08880720       0.79411975
H       -0.18699974       2.04966091       0.50329793
H        2.07474232       0.21330877       0.64657748
H        0.75062065       0.63013663      -1.87002445
H       -2.10304929      -0.26798186       0.83052001
H       -0.14359208      -1.83862043      -0.31869256
11
Frame=4 idx=002712 GeodesicLength=0.2212564398881726 rxn_smarts="[C@:1]12([H:7])[C@:2]3([H:8])[C@@:3]1([H:9])[N:4]1[C@@:5]2([H:10])[C@:6]31[H:11]>>[C@:1]12([H:7])[C@:2]3([H:8])[C@@:3]1([H:9])[N:4]([H:11])[C@@:5]2([H:10])[C:6]3"
C       -0.12292944       0.99298666       0.29269082
C        1.05052431       0.03355311       0.37168493
C        0.36343375       0.27072748      -0.92986887
N       -0.67383290      -0.80521609      -0.81022826
C       -1.08531483      -0.19490349       0.47474547
C        0.07787693      -1.07366734       0.80101523
H       -0.18265837       2.04464271       0.51594387
H        2.07836464       0.21657674       0.64187702
H        0.74852510       0.63457008      -1.87084592
H       -2.10728400      -0.26787182       0.82349161
H       -0.14670518      -1.85139804      -0.31050589
11
Frame=5 idx=002712 GeodesicLength=0.2765583996773145 rxn_smarts="[C@:1]12([H:7])[C@:2]3([H:8])[C@@:3]1([H:9])[N:4]1[C@@:5]2([H:10])[C@:6]31[H:11]>>[C@:1]12([H:7])[C@:2]3([H:8])[C@@:3]1([H:9])[N:4]([H:11])[C@@:5]2([H:10])[C:6]3"
C       -0.12285741       0.99002503       0.29427584
C        1.05506041       0.03232375       0.36660318
C        0.36183236       0.27124462      -0.93198844
N       -0.67064472      -0.80761858      -0.81308615
C       -1.08967869      -0.19385727       0.46809160
C        0.07763673      -1.05848286       0.80769332
H       -0.17840091       2.03955945       0.52846219
H        2.08187762       0.21985565       0.63729126
H        0.74652441       0.63898935      -1.87163974
H       -2.11134247      -0.26780932       0.81662276
H       -0.15000734      -1.86422982      -0.30232583
11
Frame=6 idx=002712 GeodesicLength=0.3318579576439147 rxn_smarts="[C@:1]12([H:7])[C@:2]3([H:8])[C@@:3]1([H:9])[N:4]1[C@@:5]2([H:10])[C@:6]31[H:11]>>[C@:1]12([H:7])[C@:2]3([H:8])[C@@:3]1([H:9])[N:4]([H:11])[C@@:5]2([H:10])[C:6]3"
C       -0.12280950       0.98712843       0.29579380
C        1.05952288       0.03109023       0.36157105
C        0.36028109       0.27178957      -0.93409998
N       -0.66746222      -0.80993615      -0.81593795
C       -1.09389773      -0.19285282       0.46150191
C        0.07741608      -1.04325838       0.81415942
H       -0.17422164       2.03441770       0.54085479
H        2.08528171       0.22314775       0.63281382
H        0.74461862       0.64339564      -1.87240482
H       -2.11522695      -0.26779710       0.80990788
H       -0.15350232      -1.87712487      -0.29415991
11
Frame=7 idx=002712 GeodesicLength=0.3871577995606799 rxn_smarts="[C@:1]12([H:7])[C@:2]3([H:8])[C@@:3]1([H:9])[N:4]1[C@@:5]2([H:10])[C@:6]31[H:11]>>[C@:1]12([H:7])[C@:2]3([H:8])[C@@:3]1([H:9])[N:4]([H:11])[C@@:5]2([H:10])[C:6]3"
C       -0.12278884       0.98430217       0.29723954
C        1.06390997       0.02985708       0.35659318
C        0.35878074       0.27236012      -0.93620326
N       -0.66428570      -0.81216958      -0.81878238
C       -1.09796976      -0.19189128       0.45498270
C        0.07722053      -1.02799795       0.82041812
H       -0.17011777       2.02922110       0.55312922
H        2.08857763       0.22645748       0.62843957
H        0.74280775       0.64778651      -1.87314174
H       -2.11894017      -0.26783314       0.80334014
H       -0.15719440      -1.89009252      -0.28601509
11
Frame=8 idx=002712 GeodesicLength=0.4424631270250964 rxn_smarts="[C@:1]12([H:7])[C@:2]3([H:8])[C@@:3]1([H:9])[N:4]1[C@@:5]2([H:10])[C@:6]31[H:11]>>[C@:1]12([H:7])[C@:2]3([H:8])[C@@:3]1([H:9])[N:4]([H:11])[C@@:5]2([H:10])[C:6]3"
C       -0.12279739       0.98155196       0.29860794
C        1.06822043       0.02862702       0.35167523
C        0.35733398       0.27295283      -0.93829860
N       -0.66111448      -0.81431994      -0.82161952
C       -1.10189272      -0.19097280       0.44853880
C        0.07705461      -1.01270640       0.82647544
H       -0.16608662       2.02397597       0.56528700
H        2.09176582       0.22978798       0.62416643
H        0.74108964       0.65216599      -1.87385080
H       -2.12248286      -0.26791817       0.79691643
H       -0.16109039      -1.90314444      -0.27789837
11
Frame=9 idx=002712 GeodesicLength=0.49776532361954123 rxn_smarts="[C@:1]12([H:7])[C@:2]3([H:8])[C@@:3]1([H:9])[N:4]1[C@@:5]2([H:10])[C@:6]31[H:11]>>[C@:1]12([H:7])[C@:2]3([H:8])[C@@:3]1([H:9])[N:4]([H:11])[C@@:5]2([H:10])[C:6]3"
C       -0.12283644       0.97888067       0.29989890
C        1.07245142       0.02740279       0.34682475
C        0.35594264       0.27356815      -0.94038125
N       -0.65795800      -0.81637675      -0.82445019
C       -1.10566388      -0.19009950       0.44217990
C        0.07692175      -0.99739490       0.83232630
H       -0.16213503       2.01869080       0.57730393
H        2.09484241       0.23314600       0.62000106
H        0.73947989       0.65652276      -1.87452517
H       -2.12584710      -0.26805755       0.79065958
H       -0.16519765      -1.91628248      -0.26983781
11
Frame=10 idx=002712 GeodesicLength=0.5530699089109526 rxn_smarts="[C@:1]12([H:7])[C@:2]3([H:8])[C@@:3]1([H:9])[N:4]1[C@@:5]2([H:10])[C@:6]31[H:11]>>[C@:1]12([H:7])[C@:2]3([H:8])[C@@:3]1([H:9])[N:4]([H:11])[C@@:5]2([H:10])[C:6]3"
C       -0.12290872       0.97629424       0.30111106
C        1.07660242       0.02618688       0.34204823
C        0.35460847       0.27420509      -0.94245126
N       -0.65481916      -0.81833693      -0.82727640
C       -1.10928189      -0.18927174       0.43591401
C        0.07682721      -0.98207171       0.83797457
H       -0.15826723       2.01337616       0.58917314
H        2.09780787       0.23653395       0.61594612
H        0.73798404       0.66085337      -1.87516662
H       -2.12903207      -0.26825128       0.78457770
H       -0.16952094      -1.92951803      -0.26185056
11
Frame=11 idx=002712 GeodesicLength=0.6083753032038092 rxn_smarts="[C@:1]12([H:7])[C@:2]3([H:8])[C@@:3]1([H:9])[N:4]1[C@@:5]2([H:10])[C@:6]31[H:11]>>[C@:1]12([H:7])[C@:2]3([H:8])[C@@:3]1([H:9])[N:4]([H:11])[C@@:5]2([H:10])[C:6]3"
C       -0.12301544       0.97379632       0.30224343
C        1.08067296       0.02498273       0.33735105
C        0.35333296       0.27486282      -0.94450630
N       -0.65170122      -0.82019696      -0.83009821
C       -1.11274532      -0.18849073       0.42974784
C        0.07677495      -0.96674293       0.84342302
H       -0.15448544       2.00803973       0.60088485
H        2.10066229       0.23995581       0.61200255
H        0.73660710       0.66515449      -1.87577245
H       -2.13203604      -0.26850138       0.77867740
H       -0.17406680      -1.94285989      -0.25395318
11
Frame=12 idx=002712 GeodesicLength=0.6636815770586335 rxn_smarts="[C@:1]12([H:7])[C@:2]3([H:8])[C@@:3]1([H:9])[N:4]1[C@@:5]2([H:10])[C@:6]31[H:11]>>[C@:1]12([H:7])[C@:2]3([H:8])[C@@:3]1([H:9])[N:4]([H:11])[C@@:5]2([H:10])[C:6]3"
C       -0.12315792       0.97139072       0.30329572
C        1.08466319       0.02379353       0.33273843
C        0.35211756       0.27554072      -0.94654455
N       -0.64860675      -0.82195385      -0.83291615
C       -1.11605328      -0.18775739       0.42368789
C        0.07676896      -0.95141437       0.84867569
H       -0.15079242       2.00269016       0.61242993
H        2.10340659       0.24341504       0.60817113
H        0.73535369       0.66942325      -1.87634108
H       -2.13485803      -0.26880944       0.77296499
H       -0.17884158      -1.95631837      -0.24616200
11
Frame=13 idx=002712 GeodesicLength=0.7189881497678106 rxn_smarts="[C@:1]12([H:7])[C@:2]3([H:8])[C@@:3]1([H:9])[N:4]1[C@@:5]2([H:10])[C@:6]31[H:11]>>[C@:1]12([H:7])[C@:2]3([H:8])[C@@:3]1([H:9])[N:4]([H:11])[C@@:5]2([H:10])[C:6]3"
C       -0.12333724       0.96908071       0.30426805
C        1.08857390       0.02262257       0.32821510
C        0.35096368       0.27623846      -0.94856401
N       -0.64553816      -0.82360462      -0.83573043
C       -1.11920528      -0.18707276       0.41774031
C        0.07681294      -0.93609105       0.85373695
H       -0.14719097       1.99733603       0.62379881
H        2.10604225       0.24691521       0.60445244
H        0.73422855       0.67365710      -1.87687080
H       -2.13749744      -0.26917750       0.76744672
H       -0.18385223      -1.96990415      -0.23849315
11
Frame=14 idx=002712 GeodesicLength=0.774298149960418 rxn_smarts="[C@:1]12([H:7])[C@:2]3([H:8])[C@@:3]1([H:9])[N:4]1[C@@:5]2([H:10])[C@:6]31[H:11]>>[C@:1]12([H:7])[C@:2]3([H:8])[C@@:3]1([H:9])[N:4]([H:11])[C@@:5]2([H:10])[C:6]3"
C       -0.12355465       0.96687013       0.30515852
C        1.09240623       0.02147394       0.32378513
C        0.34987284       0.27695401      -0.95056392
N       -0.64249248      -0.82515214      -0.83854070
C       -1.12220155      -0.18643717       0.41190721
C        0.07690969      -0.92077303       0.85861595
H       -0.14367849       1.99198122       0.63499884
H        2.10857261       0.25046253       0.60083876
H        0.73322930       0.67785580      -1.87736199
H       -2.13995757      -0.26960401       0.76211540
H       -0.18910591      -1.98363129      -0.23095319
11
Frame=15 idx=002712 GeodesicLength=0.8296076578135332 rxn_smarts="[C@:1]12([H:7])[C@:2]3([H:8])[C@@:3]1([H:9])[N:4]1[C@@:5]2([H:10])[C@:6]31[H:11]>>[C@:1]12([H:7])[C@:2]3([H:8])[C@@:3]1([H:9])[N:4]([H:11])[C@@:5]2([H:10])[C:6]3"
C       -0.12380982       0.96476076       0.30597116
C        1.09616123       0.02035043       0.31945325
C        0.34884565       0.27768888      -0.95254023
N       -0.63947588      -0.82658921      -0.84134764
C       -1.12504074      -0.18585232       0.40619713
C        0.07706323      -0.90546773       0.86331397
H       -0.14026207       1.98663974       0.64600324
H        2.11099750       0.25405845       0.59733812
H        0.73236504       0.68201502      -1.87780959
H       -2.14223306      -0.27009495       0.75698818
H       -0.19461107      -1.99750905      -0.22356759
11
Frame=16 idx=002712 GeodesicLength=0.8849178000677892 rxn_smarts="[C@:1]12([H:7])[C@:2]3([H:8])[C@@:3]1([H:9])[N:4]1[C@@:5]2([H:10])[C@:6]31[H:11]>>[C@:1]12([H:7])[C@:2]3([H:8])[C@@:3]1([H:9])[N:4]([H:11])[C@@:5]2([H:10])[C:6]3"
C       -0.12410390       0.96275565       0.30670731
C        1.09984137       0.01925512       0.31522328
C        0.34788359       0.27844335      -0.95449201
N       -0.63648890      -0.82791402      -0.84415193
C       -1.12772335      -0.18531899       0.40061563
C        0.07727741      -0.89017864       0.86783805
H       -0.13694581       1.98132168       0.65680419
H        2.11332023       0.25770613       0.59395068
H        0.73164025       0.68613293      -1.87821410
H       -2.14432483      -0.27065198       0.75207081
H       -0.20037604      -2.01155123      -0.21635191
