12
Frame=0 idx=001493 GeodesicLength=0.0 rxn_smarts="[O:1]=[C:2]1[C:3]([H:7])([H:8])[C:4]([H:9])=[C:5]([H:10])[C:6]1([H:11])[H:12]>>[O:1]([C+:2]1[C:3]([H:7])([H:8])[C:4]([H:9])=[C-:5][C:6]1([H:11])[H:12])[H:10]"
O       -0.84921077      -0.13604113       1.57673752
C       -0.68415760      -0.32829744       0.29436254
C        0.44947990      -1.16738935      -0.33405352
C        1.27299342       0.06987861      -0.09574467
C        0.39540841       1.09682324       0.12665628
C       -0.99885206       0.81605397      -0.53013952
H        0.24912942      -1.48993844      -1.35526246
H        0.76342971      -2.00994901       0.27778843
H        2.25872875       0.05607376       0.35640955
H       -0.12163250       0.92532886       1.45748723
H       -1.78277330       1.46568081      -0.16641586
H       -0.95254343       0.70177607      -1.60782556
12
Frame=1 idx=001493 GeodesicLength=0.08541634801561719 rxn_smarts="[O:1]=[C:2]1[C:3]([H:7])([H:8])[C:4]([H:9])=[C:5]([H:10])[C:6]1([H:11])[H:12]>>[O:1]([C+:2]1[C:3]([H:7])([H:8])[C:4]([H:9])=[C-:5][C:6]1([H:11])[H:12])[H:10]"
O       -0.86955763      -0.15645983       1.56913424
C       -0.69271689      -0.33593237       0.28839062
C        0.45069416      -1.16797141      -0.32746130
C        1.27354791       0.07200901      -0.10177988
C        0.40130613       1.10080595       0.12765698
C       -0.99210766       0.82096271      -0.52858042
H        0.25517550      -1.50121119      -1.34629415
H        0.76398985      -2.00559446       0.29183685
H        2.26831139       0.06049320       0.33004969
H       -0.12817279       0.92837080       1.46805612
H       -1.77486457       1.47241046      -0.16382286
H       -0.95560539       0.71211712      -1.60718590
12
Frame=2 idx=001493 GeodesicLength=0.17079701447151263 rxn_smarts="[O:1]=[C:2]1[C:3]([H:7])([H:8])[C:4]([H:9])=[C:5]([H:10])[C:6]1([H:11])[H:12]>>[O:1]([C+:2]1[C:3]([H:7])([H:8])[C:4]([H:9])=[C-:5][C:6]1([H:11])[H:12])[H:10]"
O       -0.89040094      -0.17715294       1.56095632
C       -0.70133828      -0.34365880       0.28211771
C        0.45195345      -1.16850585      -0.32072291
C        1.27416361       0.07407660      -0.10779238
C        0.40741821       1.10481680       0.12855973
C       -0.98528341       0.82579855      -0.52684681
H        0.26155325      -1.51261804      -1.33703671
H        0.76452810      -2.00102239       0.30616340
H        2.27769917       0.06477011       0.30312178
H       -0.13470574       0.93170833       1.47869106
H       -1.76683776       1.47902875      -0.16090485
H       -0.95874966       0.72275888      -1.60630635
12
Frame=3 idx=001493 GeodesicLength=0.25608797640405556 rxn_smarts="[O:1]=[C:2]1[C:3]([H:7])([H:8])[C:4]([H:9])=[C:5]([H:10])[C:6]1([H:11])[H:12]>>[O:1]([C+:2]1[C:3]([H:7])([H:8])[C:4]([H:9])=[C-:5][C:6]1([H:11])[H:12])[H:10]"
O       -0.91172685      -0.19812319       1.55217591
C       -0.71000719      -0.35147624       0.27553450
C        0.45325997      -1.16898409      -0.31384350
C        1.27485180       0.07608275      -0.11379235
C        0.41375484       1.10886261       0.12933579
C       -0.97838465       0.83055233      -0.52493330
H        0.26826710      -1.52415018      -1.32748453
H        0.76503878      -1.99622219       0.32076002
H        2.28684828       0.06887685       0.27568015
H       -0.14120649       0.93536838       1.48938310
H       -1.75870206       1.48551457      -0.15764329
H       -0.96199353       0.73369840      -1.60517247
12
Frame=4 idx=001493 GeodesicLength=0.34122149368848187 rxn_smarts="[O:1]=[C:2]1[C:3]([H:7])([H:8])[C:4]([H:9])=[C:5]([H:10])[C:6]1([H:11])[H:12]>>[O:1]([C+:2]1[C:3]([H:7])([H:8])[C:4]([H:9])=[C-:5][C:6]1([H:11])[H:12])[H:10]"
O       -0.93351361      -0.21936892       1.54276467
C       -0.71870590      -0.35938347       0.26863391
C        0.45461585      -1.16939802      -0.30683071
C        1.27562603       0.07803051      -0.11979439
C        0.42032940       1.11295391       0.12995313
C       -0.97141940       0.83521508      -0.52283572
H        0.27531869      -1.53579918      -1.31763416
H        0.76551426      -1.99118613       0.33561569
H        2.29571658       0.07278462       0.24779414
H       -0.14765075       0.93937402       1.50012583
H       -1.75047195       1.49184882      -0.15401963
H       -0.96535921       0.74492876      -1.60377275
12
Frame=5 idx=001493 GeodesicLength=0.4261152230062257 rxn_smarts="[O:1]=[C:2]1[C:3]([H:7])([H:8])[C:4]([H:9])=[C:5]([H:10])[C:6]1([H:11])[H:12]>>[O:1]([C+:2]1[C:3]([H:7])([H:8])[C:4]([H:9])=[C-:5][C:6]1([H:11])[H:12])[H:10]"
O       -0.95572741      -0.24088019       1.53269829
C       -0.72742028      -0.36737379       0.26140638
C        0.45602021      -1.16974181      -0.29969599
C        1.27650098       0.07992625      -0.12581349
C        0.42715181       1.11711298       0.13038393
C       -0.96439095       0.83977394      -0.52055100
H        0.28271128      -1.54755316      -1.30749514
H        0.76593607      -1.98591897       0.35071837
H        2.30427445       0.07646450       0.21953191
H       -0.15403100       0.94375484       1.51092429
H       -1.74215388       1.49800474      -0.15001909
H       -0.96887129       0.75643068      -1.60208846
12
Frame=6 idx=001493 GeodesicLength=0.511626156157017 rxn_smarts="[O:1]=[C:2]1[C:3]([H:7])([H:8])[C:4]([H:9])=[C:5]([H:10])[C:6]1([H:11])[H:12]>>[O:1]([C+:2]1[C:3]([H:7])([H:8])[C:4]([H:9])=[C-:5][C:6]1([H:11])[H:12])[H:10]"
O       -0.97844379      -0.26289956       1.52191047
C       -0.73613807      -0.37548874       0.25383504
C        0.45747320      -1.17001053      -0.29248492
C        1.27746658       0.08173808      -0.13184969
C        0.43420771       1.12129679       0.13044395
C       -0.95732977       0.84420718      -0.51804456
H        0.29044319      -1.55939330      -1.29709084
H        0.76632109      -1.98041226       0.36596759
H        2.31241634       0.07987983       0.19127039
H       -0.16005730       0.94893867       1.52162200
H       -1.73372661       1.50393521      -0.14552486
H       -0.97263255       0.76820862      -1.60005457
12
Frame=7 idx=001493 GeodesicLength=0.5964174814678654 rxn_smarts="[O:1]=[C:2]1[C:3]([H:7])([H:8])[C:4]([H:9])=[C:5]([H:10])[C:6]1([H:11])[H:12]>>[O:1]([C+:2]1[C:3]([H:7])([H:8])[C:4]([H:9])=[C-:5][C:6]1([H:11])[H:12])[H:10]"
O       -1.00159178      -0.28513172       1.51039099
C       -0.74485008      -0.38367874       0.24591022
C        0.45897975      -1.17019742      -0.28512725
C        1.27855030       0.08351201      -0.13792964
C        0.44154280       1.12557268       0.13034131
C       -0.95021281       0.84853821      -0.51535154
H        0.29852962      -1.57135955      -1.28634024
H        0.76663529      -1.97463307       0.38153321
H        2.32024299       0.08305185       0.16252325
H       -0.16606014       0.95435477       1.53243414
H       -1.72524757       1.50968453      -0.14065104
H       -0.97651838       0.78028644      -1.59773341
12
Frame=8 idx=001493 GeodesicLength=0.6818753923923014 rxn_smarts="[O:1]=[C:2]1[C:3]([H:7])([H:8])[C:4]([H:9])=[C:5]([H:10])[C:6]1([H:11])[H:12]>>[O:1]([C+:2]1[C:3]([H:7])([H:8])[C:4]([H:9])=[C-:5][C:6]1([H:11])[H:12])[H:10]"
O       -1.02527435      -0.30799452       1.49803023
C       -0.75354707      -0.39200671       0.23759465
C        0.46053082      -1.17030199      -0.27769542
C        1.27973696       0.08519860      -0.14405100
C        0.44912298       1.12989290       0.12979313
C       -0.94307313       0.85273126      -0.51241733
H        0.30698040      -1.58341154      -1.27528504
H        0.76687585      -1.96857967       0.39726041
H        2.32765160       0.08591628       0.13386433
H       -0.17163674       0.96071938       1.54312968
H       -1.71665145       1.51518114      -0.13520962
H       -0.98071588       0.79265487      -1.59501404
12
Frame=9 idx=001493 GeodesicLength=0.7671520150513359 rxn_smarts="[O:1]=[C:2]1[C:3]([H:7])([H:8])[C:4]([H:9])=[C:5]([H:10])[C:6]1([H:11])[H:12]>>[O:1]([C+:2]1[C:3]([H:7])([H:8])[C:4]([H:9])=[C-:5][C:6]1([H:11])[H:12])[H:10]"
O       -1.04950235      -0.33129671       1.48479581
C       -0.76222762      -0.40043878       0.22887515
C        0.46213259      -1.17032175      -0.27013574
C        1.28104070       0.08683209      -0.15024517
C        0.45697898       1.13430044       0.12892584
C       -0.93590152       0.85680612      -0.50926107
H        0.31580520      -1.59559905      -1.26387544
H        0.76703221      -1.96222366       0.41327970
H        2.33470134       0.08850236       0.10497416
H       -0.17694801       0.96765594       1.55384802
H       -1.70798245       1.52044218      -0.12925371
H       -0.98512908       0.80534083      -1.59192755
12
Frame=10 idx=001493 GeodesicLength=0.8520124587463221 rxn_smarts="[O:1]=[C:2]1[C:3]([H:7])([H:8])[C:4]([H:9])=[C:5]([H:10])[C:6]1([H:11])[H:12]>>[O:1]([C+:2]1[C:3]([H:7])([H:8])[C:4]([H:9])=[C-:5][C:6]1([H:11])[H:12])[H:10]"
O       -1.07429766      -0.35503130       1.47059592
C       -0.77088510      -0.40896881       0.21970678
C        0.46379290      -1.17024472      -0.26241548
C        1.28245519       0.08841693      -0.15651146
C        0.46511553       1.13880266       0.12778646
C       -0.92868618       0.86076674      -0.50588342
H        0.32503708      -1.60794372      -1.25203200
H        0.76709124      -1.95551550       0.42967440
H        2.34140220       0.09078947       0.07566341
H       -0.18204820       0.97507061       1.56465454
H       -1.69923988       1.52546519      -0.12279276
H       -0.98973713       0.81839246      -1.58844639
12
Frame=11 idx=001493 GeodesicLength=0.9371308751945812 rxn_smarts="[O:1]=[C:2]1[C:3]([H:7])([H:8])[C:4]([H:9])=[C:5]([H:10])[C:6]1([H:11])[H:12]>>[O:1]([C+:2]1[C:3]([H:7])([H:8])[C:4]([H:9])=[C-:5][C:6]1([H:11])[H:12])[H:10]"
O       -1.09975224      -0.37944541       1.45530818
C       -0.77951392      -0.41763909       0.21005941
C        0.46549731      -1.17007573      -0.25457843
C        1.28398145       0.08992719      -0.16287699
C        0.47352827       1.14338092       0.12617317
C       -0.92145861       0.86459373      -0.50224435
H        0.33467302      -1.62044661      -1.23977927
H        0.76703712      -1.94843446       0.44636911
H        2.34770052       0.09276883       0.04632460
H       -0.18664093       0.98336938       1.57541709
H       -1.69039686       1.53019834      -0.11567183
H       -0.99465515       0.83180291      -1.58450069
12
Frame=12 idx=001493 GeodesicLength=1.0221283079332462 rxn_smarts="[O:1]=[C:2]1[C:3]([H:7])([H:8])[C:4]([H:9])=[C:5]([H:10])[C:6]1([H:11])[H:12]>>[O:1]([C+:2]1[C:3]([H:7])([H:8])[C:4]([H:9])=[C-:5][C:6]1([H:11])[H:12])[H:10]"
O       -1.12589092      -0.40451017       1.43887160
C       -0.78810839      -0.42644256       0.19989671
C        0.46725429      -1.16980747      -0.24658382
C        1.28562460       0.09137739      -0.16935920
C        0.48223098       1.14805715       0.12414523
C       -0.91421078       0.86829611      -0.49834246
H        0.34474931      -1.63313207      -1.22704548
H        0.76684935      -1.94094057       0.46346343
H        2.35363050       0.09442408       0.01674217
H       -0.19081379       0.99240676       1.58619702
H       -1.68146473       1.53465278      -0.10789797
H       -0.99985043       0.84561858      -1.58008723
12
Frame=13 idx=001493 GeodesicLength=1.107026281543731 rxn_smarts="[O:1]=[C:2]1[C:3]([H:7])([H:8])[C:4]([H:9])=[C:5]([H:10])[C:6]1([H:11])[H:12]>>[O:1]([C+:2]1[C:3]([H:7])([H:8])[C:4]([H:9])=[C-:5][C:6]1([H:11])[H:12])[H:10]"
O       -1.15282964      -0.43030307       1.42110797
C       -0.79666965      -0.43538157       0.18915360
C        0.46906692      -1.16943653      -0.23839325
C        1.28737963       0.09276363      -0.17595006
C        0.49122943       1.15283448       0.12170537
C       -0.90693612       0.87187929      -0.49415840
H        0.35531107      -1.64604583      -1.21374976
H        0.76650655      -1.93297222       0.48104871
H        2.35920092       0.09575792      -0.01324028
H       -0.19451335       1.00221175       1.59703491
H       -1.67242965       1.53880069      -0.09941098
H       -1.00531613       0.85989146      -1.57514780
12
Frame=14 idx=001493 GeodesicLength=1.1918876130853813 rxn_smarts="[O:1]=[C:2]1[C:3]([H:7])([H:8])[C:4]([H:9])=[C:5]([H:10])[C:6]1([H:11])[H:12]>>[O:1]([C+:2]1[C:3]([H:7])([H:8])[C:4]([H:9])=[C-:5][C:6]1([H:11])[H:12])[H:10]"
O       -1.18067085      -0.45694744       1.40185364
C       -0.80519514      -0.44447541       0.17776778
C        0.47093529      -1.16896317      -0.22997311
C        1.28924557       0.09408158      -0.18266531
C        0.50053282       1.15771020       0.11882497
C       -0.89963390       0.87534973      -0.48966580
H        0.36640514      -1.65923298      -1.19981061
H        0.76597357      -1.92446418       0.49921377
H        2.36441517       0.09677727      -0.04371167
H       -0.19766852       1.01284882       1.60793097
H       -1.66327539       1.54262987      -0.09012754
H       -1.01106376       0.87468572      -1.56963710
12
Frame=15 idx=001493 GeodesicLength=1.2767257874527467 rxn_smarts="[O:1]=[C:2]1[C:3]([H:7])([H:8])[C:4]([H:9])=[C:5]([H:10])[C:6]1([H:11])[H:12]>>[O:1]([C+:2]1[C:3]([H:7])([H:8])[C:4]([H:9])=[C-:5][C:6]1([H:11])[H:12])[H:10]"
O       -1.20955477      -0.48455277       1.38087114
C       -0.81368142      -0.45373066       0.16565343
C        0.47286668      -1.16837969      -0.22126852
C        1.29122137       0.09532352      -0.18949867
C        0.51015029       1.16268395       0.11550703
C       -0.89229398       0.87871562      -0.48483147
H        0.37810313      -1.67274554      -1.18510679
H        0.76521005      -1.91532427       0.51808052
H        2.36926495       0.09747804      -0.07488210
H       -0.20021407       1.02435197       1.61891857
H       -1.65398391       1.54611076      -0.07996026
H       -1.01708833       0.89006906      -1.56348287
12
Frame=16 idx=001493 GeodesicLength=1.361543354387794 rxn_smarts="[O:1]=[C:2]1[C:3]([H:7])([H:8])[C:4]([H:9])=[C:5]([H:10])[C:6]1([H:11])[H:12]>>[O:1]([C+:2]1[C:3]([H:7])([H:8])[C:4]([H:9])=[C-:5][C:6]1([H:11])[H:12])[H:10]"
O       -1.23946563      -0.51320890       1.35798507
C       -0.82210041      -0.46315909       0.15275903
C        0.47485448      -1.16767352      -0.21229654
C        1.29331115       0.09649363      -0.19652998
C        0.52009316       1.16777584       0.11162430
C       -0.88494664       0.88195874      -0.47963323
H        0.39040617      -1.68659478      -1.16960181
H        0.76417689      -1.90549455       0.53765707
H        2.37370518       0.09780266      -0.10650110
H       -0.20197876       1.03686293       1.62996056
H       -1.64456663       1.54917914      -0.06880174
H       -1.02348897       0.90605788      -1.55662164
