15
Frame=0 idx=010505 GeodesicLength=0.0 rxn_smarts="[C:1]([C:2]([C:3]([C:4](=[O:5])[C:6](=[O:7])[H:15])([H:13])[H:14])([H:11])[H:12])([H:8])([H:9])[H:10]>>[C:1]([C:2]([O:5][C:4](=[C:3]([H:13])[H:14])[C:6](=[O:7])[H:15])([H:11])[H:12])([H:8])([H:9])[H:10]"
C       -2.24891630       0.12847401       0.11949647
C       -1.17663176      -0.86845806      -0.06784417
C        0.93975549       0.04186588      -1.06930759
C        1.19506377       0.23811476       0.26831670
O        0.30652539       0.24826757       1.16384741
C        2.60397875       0.48418910       0.75948788
O        3.58827308       0.02227701       0.25234817
H       -2.28985345       0.50779059       1.13571877
H       -3.19797588      -0.36554964      -0.13310775
H       -2.14823421       0.96512812      -0.57344704
H       -1.09563443      -1.31653415      -1.04708025
H       -0.89771701      -1.51194131       0.75102340
H        1.73525876      -0.17613313      -1.76951316
H        0.04114499       0.49637624      -1.46537878
H        2.64496285       1.10613307       1.67543994
15
Frame=1 idx=010505 GeodesicLength=0.08380672325337896 rxn_smarts="[C:1]([C:2]([C:3]([C:4](=[O:5])[C:6](=[O:7])[H:15])([H:13])[H:14])([H:11])[H:12])([H:8])([H:9])[H:10]>>[C:1]([C:2]([O:5][C:4](=[C:3]([H:13])[H:14])[C:6](=[O:7])[H:15])([H:11])[H:12])([H:8])([H:9])[H:10]"
C       -2.26070147       0.11592075       0.08750728
C       -1.14676379      -0.84808721      -0.03538715
C        0.91935361       0.08654005      -1.06243895
C        1.19990889       0.26311449       0.27413317
O        0.31912516       0.26236885       1.17866116
C        2.62130648       0.45014648       0.75294328
O        3.59019008       0.01340964       0.19642762
H       -2.31957559       0.55826734       1.07738404
H       -3.19155518      -0.42654035      -0.12944861
H       -2.19534064       0.90700498      -0.66093001
H       -1.05073115      -1.35301142      -0.98604326
H       -0.91682330      -1.47346308       0.81397962
H        1.70136082      -0.14104668      -1.77501248
H        0.04080954       0.58817291      -1.44590721
H        2.68943654       0.99720325       1.71413150
15
Frame=2 idx=010505 GeodesicLength=0.16640441246046894 rxn_smarts="[C:1]([C:2]([C:3]([C:4](=[O:5])[C:6](=[O:7])[H:15])([H:13])[H:14])([H:11])[H:12])([H:8])([H:9])[H:10]>>[C:1]([C:2]([O:5][C:4](=[C:3]([H:13])[H:14])[C:6](=[O:7])[H:15])([H:11])[H:12])([H:8])([H:9])[H:10]"
C       -2.27091068       0.10165340       0.05376332
C       -1.11827923      -0.82603415      -0.00190752
C        0.89729827       0.13288620      -1.05298921
C        1.20452186       0.28836305       0.28172248
O        0.33204445       0.27657041       1.19555108
C        2.63702740       0.41340360       0.74516609
O        3.58977990       0.00756070       0.13976989
H       -2.34978822       0.60761555       1.01163925
H       -3.18268698      -0.48494338      -0.12399601
H       -2.23617285       0.83926073      -0.74930602
H       -1.00379313      -1.38658828      -0.91975003
H       -0.93734911      -1.43084495       0.87559241
H        1.66459760      -0.10376749      -1.77881107
H        0.04157572       0.68275589      -1.42129934
H        2.73213500       0.88210873       1.74485467
15
Frame=3 idx=010505 GeodesicLength=0.24795096992453336 rxn_smarts="[C:1]([C:2]([C:3]([C:4](=[O:5])[C:6](=[O:7])[H:15])([H:13])[H:14])([H:11])[H:12])([H:8])([H:9])[H:10]>>[C:1]([C:2]([O:5][C:4](=[C:3]([H:13])[H:14])[C:6](=[O:7])[H:15])([H:11])[H:12])([H:8])([H:9])[H:10]"
C       -2.27910801       0.08566431       0.01830441
C       -1.09133726      -0.80243077       0.03287042
C        0.87344681       0.18075353      -1.04089691
C        1.20883697       0.31376098       0.29097399
O        0.34536858       0.29068681       1.21452063
C        2.65081467       0.37427532       0.73547828
O        3.58695554       0.00585743       0.08231938
H       -2.38043835       0.65471787       0.93832429
H       -3.17150066      -0.53984995      -0.11797659
H       -2.26872162       0.76248947      -0.83723345
H       -0.95505731      -1.41692670      -0.84780187
H       -0.95956797      -1.38407180       0.93627332
H        1.62469918      -0.06465476      -1.78081450
H        0.04336998       0.77927583      -1.39155160
H        2.77223945       0.76045242       1.76721019
15
Frame=4 idx=010505 GeodesicLength=0.3289013151117466 rxn_smarts="[C:1]([C:2]([C:3]([C:4](=[O:5])[C:6](=[O:7])[H:15])([H:13])[H:14])([H:11])[H:12])([H:8])([H:9])[H:10]>>[C:1]([C:2]([O:5][C:4](=[C:3]([H:13])[H:14])[C:6](=[O:7])[H:15])([H:11])[H:12])([H:8])([H:9])[H:10]"
C       -2.28499305       0.06723399      -0.01882091
C       -1.06553403      -0.77709136       0.06914531
C        0.84764211       0.23138516      -1.02610358
C        1.21268319       0.34080137       0.30180176
O        0.35904512       0.30577891       1.23558277
C        2.66220433       0.33159927       0.72344184
O        3.58058223       0.00272382       0.02554166
H       -2.41176552       0.69769248       0.85743940
H       -3.15789588      -0.59202896      -0.11268696
H       -2.29193399       0.67706403      -0.92338559
H       -0.90395371      -1.44330271      -0.76988864
H       -0.98288379      -1.33265390       0.99635521
H        1.58148263      -0.02206565      -1.78103564
H        0.04558262       0.87777746      -1.35670176
H        2.80973774       0.63508610       1.77931514
15
Frame=5 idx=010505 GeodesicLength=0.40903276745030326 rxn_smarts="[C:1]([C:2]([C:3]([C:4](=[O:5])[C:6](=[O:7])[H:15])([H:13])[H:14])([H:11])[H:12])([H:8])([H:9])[H:10]>>[C:1]([C:2]([O:5][C:4](=[C:3]([H:13])[H:14])[C:6](=[O:7])[H:15])([H:11])[H:12])([H:8])([H:9])[H:10]"
C       -2.28793716       0.04767614      -0.05674214
C       -1.04197158      -0.75014683       0.10750941
C        0.82035530       0.28050178      -1.00901278
C        1.21636264       0.36669475       0.31345462
O        0.37347514       0.32058455       1.25792701
C        2.67103469       0.28951902       0.70769868
O        3.57282059       0.01154265      -0.03239393
H       -2.44473166       0.73365428       0.77213521
H       -3.14213966      -0.63906723      -0.11296913
H       -2.30157027       0.58922716      -1.00364412
H       -0.85290824      -1.46570294      -0.68518897
H       -1.00907548      -1.27641661       1.05643657
H        1.53536256       0.01808840      -1.77914685
H        0.04940385       0.97370761      -1.31859782
H        2.84151928       0.50013727       1.78253423
15
Frame=6 idx=010505 GeodesicLength=0.48904578116312425 rxn_smarts="[C:1]([C:2]([C:3]([C:4](=[O:5])[C:6](=[O:7])[H:15])([H:13])[H:14])([H:11])[H:12])([H:8])([H:9])[H:10]>>[C:1]([C:2]([O:5][C:4](=[C:3]([H:13])[H:14])[C:6](=[O:7])[H:15])([H:11])[H:12])([H:8])([H:9])[H:10]"
C       -2.28791360       0.02599536      -0.09545938
C       -1.02010666      -0.72137447       0.14680700
C        0.79171361       0.33102545      -0.98914985
C        1.21980674       0.39287746       0.32656642
O        0.38877416       0.33424120       1.28231715
C        2.67714883       0.24656986       0.68879305
O        3.56177127       0.01881995      -0.08811979
H       -2.47694362       0.76350563       0.68132599
H       -3.12444491      -0.68345251      -0.11536997
H       -2.30062324       0.49665729      -1.07952319
H       -0.80160744      -1.48260155      -0.59567294
H       -1.03707399      -1.21611102       1.11468313
H        1.48660382       0.06015673      -1.77500972
H        0.05400772       1.06900003      -1.27637296
H        2.86888731       0.36469060       1.77418506
15
Frame=7 idx=010505 GeodesicLength=0.5691888366029544 rxn_smarts="[C:1]([C:2]([C:3]([C:4](=[O:5])[C:6](=[O:7])[H:15])([H:13])[H:14])([H:11])[H:12])([H:8])([H:9])[H:10]>>[C:1]([C:2]([O:5][C:4](=[C:3]([H:13])[H:14])[C:6](=[O:7])[H:15])([H:11])[H:12])([H:8])([H:9])[H:10]"
C       -2.28473385       0.00273599      -0.13457997
C       -1.00042356      -0.69067023       0.18684808
C        0.76220069       0.38159841      -0.96651796
C        1.22322823       0.41808671       0.34101693
O        0.40509613       0.34586650       1.30845585
C        2.68043516       0.20268740       0.66670872
O        3.54856616       0.02981429      -0.14219472
H       -2.50769543       0.78712090       0.58580077
H       -3.10507589      -0.72484667      -0.12012000
H       -2.28885623       0.40105394      -1.15015239
H       -0.75159480      -1.49373773      -0.50170543
H       -1.06749472      -1.15166684       1.17076520
H        1.43556930       0.10211666      -1.76835863
H        0.05987355       1.16195653      -1.23076417
H        2.89090525       0.22788415       1.75479773
15
Frame=8 idx=010505 GeodesicLength=0.6497363992595487 rxn_smarts="[C:1]([C:2]([C:3]([C:4](=[O:5])[C:6](=[O:7])[H:15])([H:13])[H:14])([H:11])[H:12])([H:8])([H:9])[H:10]>>[C:1]([C:2]([O:5][C:4](=[C:3]([H:13])[H:14])[C:6](=[O:7])[H:15])([H:11])[H:12])([H:8])([H:9])[H:10]"
C       -2.27827800      -0.02219676      -0.17381426
C       -0.98298501      -0.65816017       0.22696465
C        0.73209661       0.43245794      -0.94095500
C        1.22668322       0.44182641       0.35689096
O        0.42256616       0.35425495       1.33630658
C        2.68103444       0.15949114       0.64146146
O        3.53273067       0.04007613      -0.19407291
H       -2.53585244       0.80433967       0.48594669
H       -3.08418290      -0.76375377      -0.12678199
H       -2.26704947       0.30299903      -1.21506443
H       -0.70383046      -1.49890987      -0.40446390
H       -1.10029480      -1.08347367       1.22377881
H        1.38254132       0.14477800      -1.75909179
H        0.06695583       1.25257687      -1.18159513
H        2.90786485       0.09369410       1.72449027
15
Frame=9 idx=010505 GeodesicLength=0.7306752099721554 rxn_smarts="[C:1]([C:2]([C:3]([C:4](=[O:5])[C:6](=[O:7])[H:15])([H:13])[H:14])([H:11])[H:12])([H:8])([H:9])[H:10]>>[C:1]([C:2]([O:5][C:4](=[C:3]([H:13])[H:14])[C:6](=[O:7])[H:15])([H:11])[H:12])([H:8])([H:9])[H:10]"
C       -2.26849313      -0.04841044      -0.21252024
C       -0.96800045      -0.62372615       0.26720512
C        0.70188197       0.48214400      -0.91308643
C        1.23018449       0.46363511       0.37352677
O        0.44103231       0.35984766       1.36500582
C        2.67899039       0.11770295       0.61307500
O        3.51559380       0.05488843      -0.24352628
H       -2.56147565       0.81448158       0.38348638
H       -3.06164505      -0.80050539      -0.13604391
H       -2.23507499       0.20485636      -1.27307664
H       -0.65968383      -1.49841466      -0.30374807
H       -1.13559061      -1.01070751       1.27391039
H        1.32828392       0.18614275      -1.74730911
H        0.07583500       1.33926921      -1.13055145
H        2.91816181      -0.04120389       1.68365266
15
Frame=10 idx=010505 GeodesicLength=0.8120983661443324 rxn_smarts="[C:1]([C:2]([C:3]([C:4](=[O:5])[C:6](=[O:7])[H:15])([H:13])[H:14])([H:11])[H:12])([H:8])([H:9])[H:10]>>[C:1]([C:2]([O:5][C:4](=[C:3]([H:13])[H:14])[C:6](=[O:7])[H:15])([H:11])[H:12])([H:8])([H:9])[H:10]"
C       -2.25532780      -0.07615663      -0.25073274
C       -0.95539187      -0.58807503       0.30634497
C        0.67160976       0.53200838      -0.88225068
C        1.23358044       0.48296274       0.39150017
O        0.46037506       0.36033400       1.39487176
C        2.67490536       0.07960670       0.58251208
O        3.49557939       0.06497370      -0.29145169
H       -2.58226470       0.81863330       0.27742542
H       -3.03800673      -0.83510197      -0.14594513
H       -2.19462320       0.10512168      -1.32473560
H       -0.61993463      -1.49259374      -0.20175851
H       -1.17308221      -0.93459758       1.31959347
H        1.27271227       0.22883265      -1.73281368
H        0.08612421       1.42342144      -1.07603113
H        2.92374464      -0.16936964       1.63347129
15
Frame=11 idx=010505 GeodesicLength=0.8940988292666592 rxn_smarts="[C:1]([C:2]([C:3]([C:4](=[O:5])[C:6](=[O:7])[H:15])([H:13])[H:14])([H:11])[H:12])([H:8])([H:9])[H:10]>>[C:1]([C:2]([O:5][C:4](=[C:3]([H:13])[H:14])[C:6](=[O:7])[H:15])([H:11])[H:12])([H:8])([H:9])[H:10]"
C       -2.23855903      -0.10542961      -0.28792650
C       -0.94485595      -0.55118556       0.34449689
C        0.64157070       0.58160028      -0.84904509
C        1.23670694       0.50042955       0.41025449
O        0.48005304       0.35736991       1.42504097
C        2.66851510       0.04475209       0.55024807
O        3.47343068       0.07466151      -0.33781181
H       -2.59779604       0.81644979       0.16858260
H       -3.01293721      -0.86801053      -0.15625279
H       -2.14565546       0.00443746      -1.36928175
H       -0.58508238      -1.48196437      -0.09808413
H       -1.21221558      -0.85403192       1.36114533
H        1.21643591       0.27206050      -1.71577446
H        0.09798730       1.50439771      -1.01951727
H        2.92240198      -0.29553679       1.57392544
15
Frame=12 idx=010505 GeodesicLength=0.9767857972764911 rxn_smarts="[C:1]([C:2]([C:3]([C:4](=[O:5])[C:6](=[O:7])[H:15])([H:13])[H:14])([H:11])[H:12])([H:8])([H:9])[H:10]>>[C:1]([C:2]([O:5][C:4](=[C:3]([H:13])[H:14])[C:6](=[O:7])[H:15])([H:11])[H:12])([H:8])([H:9])[H:10]"
C       -2.21812550      -0.13606571      -0.32386730
C       -0.93627938      -0.51389031       0.38095496
C        0.61180612       0.63103447      -0.81335946
C        1.23935119       0.51526666       0.42980256
O        0.49964886       0.34985178       1.45522801
C        2.65974585       0.01219708       0.51669784
O        3.44854665       0.08181721      -0.38347707
H       -2.60651548       0.80841691       0.05721305
H       -2.98691650      -0.89871582      -0.16640315
H       -2.08899996      -0.09703774      -1.40639236
H       -0.55602364      -1.46745456       0.00591071
H       -1.25267673      -0.76955159       1.39765115
H        1.15951800       0.31658856      -1.69624221
H        0.11145859       1.58252305      -0.96040095
H        2.91546194      -0.41498000       1.50668422
15
Frame=13 idx=010505 GeodesicLength=1.0605156608747195 rxn_smarts="[C:1]([C:2]([C:3]([C:4](=[O:5])[C:6](=[O:7])[H:15])([H:13])[H:14])([H:11])[H:12])([H:8])([H:9])[H:10]>>[C:1]([C:2]([O:5][C:4](=[C:3]([H:13])[H:14])[C:6](=[O:7])[H:15])([H:11])[H:12])([H:8])([H:9])[H:10]"
C       -2.19372338      -0.16814884      -0.35794283
C       -0.92901048      -0.47654021       0.41573160
C        0.58241179       0.68028087      -0.77583232
C        1.24125533       0.52829118       0.44959611
O        0.51847415       0.33970350       1.48468510
C        2.64792303      -0.01885894       0.48201307
O        3.42112522       0.08815316      -0.42792666
H       -2.60779707       0.79408415      -0.05537686
H       -2.95945817      -0.92775288      -0.17625754
H       -2.02467695      -0.19845143      -1.43525403
H       -0.53262501      -1.44966503       0.11020017
H       -1.29350914      -0.68076346       1.42895467
H        1.10247281       0.36238224      -1.67455187
H        0.12646025       1.65765862      -0.89990019
H        2.90067760      -0.53037291       1.43186160
15
Frame=14 idx=010505 GeodesicLength=1.1456088001488236 rxn_smarts="[C:1]([C:2]([C:3]([C:4](=[O:5])[C:6](=[O:7])[H:15])([H:13])[H:14])([H:11])[H:12])([H:8])([H:9])[H:10]>>[C:1]([C:2]([O:5][C:4](=[C:3]([H:13])[H:14])[C:6](=[O:7])[H:15])([H:11])[H:12])([H:8])([H:9])[H:10]"
C       -2.16531587      -0.20147706      -0.38982037
C       -0.92266081      -0.44001579       0.44843962
C        0.55334399       0.72930867      -0.73659091
C        1.24219102       0.53932487       0.46948104
O        0.53606331       0.32695674       1.51312757
C        2.63278963      -0.04880072       0.44641303
O        3.39076218       0.09286589      -0.47154365
H       -2.60040553       0.77390114      -0.16849064
H       -2.93091229      -0.95469013      -0.18551427
H       -1.95356574      -0.29941302      -1.45553080
H       -0.51511830      -1.42955991       0.21379614
H       -1.33398443      -0.58830980       1.45427262
H        1.04540565       0.40973156      -1.65085181
H        0.14293243       1.72987437      -0.83803280
H        2.87847475      -0.63969682       1.35084524
15
Frame=15 idx=010505 GeodesicLength=1.2327941595958511 rxn_smarts="[C:1]([C:2]([C:3]([C:4](=[O:5])[C:6](=[O:7])[H:15])([H:13])[H:14])([H:11])[H:12])([H:8])([H:9])[H:10]>>[C:1]([C:2]([O:5][C:4](=[C:3]([H:13])[H:14])[C:6](=[O:7])[H:15])([H:11])[H:12])([H:8])([H:9])[H:10]"
C       -2.13259333      -0.23613356      -0.41899481
C       -0.91642827      -0.40478502       0.47927933
C        0.52454385       0.77832275      -0.69614175
C        1.24198245       0.54941893       0.48906821
O        0.55189933       0.31381638       1.54023636
C        2.61357189      -0.07816730       0.40996999
O        3.35742261       0.09623076      -0.51387362
H       -2.58380440       0.74756340      -0.28064326
H       -2.90066304      -0.98017126      -0.19430029
H       -1.87567046      -0.39893156      -1.46674521
H       -0.50266825      -1.40755453       0.31662017
H       -1.37305704      -0.49277339       1.47323497
H        0.98858030       0.45877068      -1.62546274
H        0.16062776       1.79932222      -0.77582859
H        2.84625660      -0.74492849       1.26358123
15
Frame=16 idx=010505 GeodesicLength=1.322420193187453 rxn_smarts="[C:1]([C:2]([C:3]([C:4](=[O:5])[C:6](=[O:7])[H:15])([H:13])[H:14])([H:11])[H:12])([H:8])([H:9])[H:10]>>[C:1]([C:2]([O:5][C:4](=[C:3]([H:13])[H:14])[C:6](=[O:7])[H:15])([H:11])[H:12])([H:8])([H:9])[H:10]"
C       -2.09583268      -0.27152490      -0.44529581
C       -0.91012976      -0.37161224       0.50803894
C        0.49593696       0.82690546      -0.65457260
C        1.24055608       0.55802819       0.50815044
O        0.56586392       0.29994018       1.56588426
C        2.59002813      -0.10760682       0.37248735
O        3.32062372       0.09700146      -0.55571340
H       -2.55785024       0.71571218      -0.39036727
H       -2.86897712      -1.00389666      -0.20320108
H       -1.79222123      -0.49541396      -1.46908185
H       -0.49533089      -1.38439583       0.41754676
H       -1.41006723      -0.39560352       1.48507034
H        0.93180009       0.50908531      -1.59853902
H        0.17959570       1.86571325      -0.71332190
H        2.80600454      -0.84233209       1.17291484
