15
Frame=0 idx=009892 GeodesicLength=0.0 rxn_smarts="[C:1]([C@@:2]1([H:11])[C@:3]([C:4]#[N:5])([H:12])[N:6]1[C:7]([H:13])([H:14])[H:15])([H:8])([H:9])[H:10]>>[C:1]([N+:6]1([C:7]([H:13])([H:14])[H:15])[C-:2]([H:11])[C@:3]1([C:4]#[N:5])[H:12])([H:8])([H:9])[H:10]"
C       -1.54019729      -0.01980988       0.56207897
C       -0.58805089      -0.08697926      -1.14158319
C        0.60988711       0.72182165      -0.86362792
C        0.54866376       2.17626701      -0.83044313
N        0.50019636       3.32185114      -0.81134814
N        0.20229353       0.01815135       0.32232401
C        0.99415036      -1.12550752       0.72690908
H       -1.87218335       1.01029326       0.54464410
H       -2.28936473      -0.66971027       0.11306735
H       -1.39169060      -0.35087544       1.59872413
H       -0.30572070      -1.07495481      -1.51938015
H        1.55667493       0.34869692      -1.24110451
H        1.38035101      -1.68779317      -0.13066467
H        0.36854458      -1.79214640       1.32274427
H        1.82644587      -0.78930454       1.34765980
15
Frame=1 idx=009892 GeodesicLength=0.04753701867188886 rxn_smarts="[C:1]([C@@:2]1([H:11])[C@:3]([C:4]#[N:5])([H:12])[N:6]1[C:7]([H:13])([H:14])[H:15])([H:8])([H:9])[H:10]>>[C:1]([N+:6]1([C:7]([H:13])([H:14])[H:15])[C-:2]([H:11])[C@:3]1([C:4]#[N:5])[H:12])([H:8])([H:9])[H:10]"
C       -1.54222079      -0.00899483       0.56010349
C       -0.58350237      -0.09955794      -1.13361761
C        0.61116451       0.71910758      -0.86484486
C        0.53724282       2.17213345      -0.82431087
N        0.48390244       3.31751710      -0.80332550
N        0.20411956       0.00626176       0.31661386
C        1.00080003      -1.13262263       0.72415866
H       -1.86241034       1.02484763       0.53418928
H       -2.30296912      -0.65341623       0.12225218
H       -1.40435272      -0.33176330       1.60054979
H       -0.30189993      -1.08412206      -1.51950058
H        1.56080203       0.35422068      -1.24342212
H        1.39974060      -1.68503731      -0.13382631
H        0.37597537      -1.80801832       1.31073385
H        1.82360791      -0.79055558       1.35424675
15
Frame=2 idx=009892 GeodesicLength=0.0950911050635416 rxn_smarts="[C:1]([C@@:2]1([H:11])[C@:3]([C:4]#[N:5])([H:12])[N:6]1[C:7]([H:13])([H:14])[H:15])([H:8])([H:9])[H:10]>>[C:1]([N+:6]1([C:7]([H:13])([H:14])[H:15])[C-:2]([H:11])[C@:3]1([C:4]#[N:5])[H:12])([H:8])([H:9])[H:10]"
C       -1.54418778       0.00168314       0.55802029
C       -0.57908164      -0.11206415      -1.12557234
C        0.61225004       0.71635161      -0.86588405
C        0.52604179       2.16784410      -0.81813416
N        0.46785701       3.31300376      -0.79517562
N        0.20585543      -0.00561145       0.31112026
C        1.00753863      -1.13967950       0.72138536
H       -1.85291374       1.03894577       0.52341267
H       -2.31630024      -0.63710920       0.13137858
H       -1.41705869      -0.31199018       1.60233373
H       -0.29825413      -1.09314503      -1.51958791
H        1.56459245       0.35967053      -1.24571453
H        1.41907666      -1.68198449      -0.13692949
H        0.38387811      -1.82402852       1.29859848
H        1.82070611      -0.79188637       1.36074874
15
Frame=3 idx=009892 GeodesicLength=0.14263662542804417 rxn_smarts="[C:1]([C@@:2]1([H:11])[C@:3]([C:4]#[N:5])([H:12])[N:6]1[C:7]([H:13])([H:14])[H:15])([H:8])([H:9])[H:10]>>[C:1]([N+:6]1([C:7]([H:13])([H:14])[H:15])[C-:2]([H:11])[C@:3]1([C:4]#[N:5])[H:12])([H:8])([H:9])[H:10]"
C       -1.54611586       0.01219406       0.55583584
C       -0.57479326      -0.12448119      -1.11743968
C        0.61314365       0.71356556      -0.86673216
C        0.51505339       2.16342103      -0.81188846
N        0.45215988       3.30834054      -0.78696265
N        0.20749504      -0.01745735       0.30585390
C        1.01436278      -1.14666798       0.71859010
H       -1.84373305       1.05256126       0.51232925
H       -2.32935810      -0.62083887       0.14044230
H       -1.42981365      -0.29159627       1.60405524
H       -0.29479085      -1.10200466      -1.51963666
H        1.56804309       0.36505367      -1.24797563
H        1.43831842      -1.67864040      -0.13997921
H        0.39226846      -1.84015034       1.28636379
H        1.81776007      -0.79329906       1.36714404
15
Frame=4 idx=009892 GeodesicLength=0.190147117476445 rxn_smarts="[C:1]([C@@:2]1([H:11])[C@:3]([C:4]#[N:5])([H:12])[N:6]1[C:7]([H:13])([H:14])[H:15])([H:8])([H:9])[H:10]>>[C:1]([N+:6]1([C:7]([H:13])([H:14])[H:15])[C-:2]([H:11])[C@:3]1([C:4]#[N:5])[H:12])([H:8])([H:9])[H:10]"
C       -1.54802171       0.02250989       0.55355717
C       -0.57064008      -0.13679378      -1.10921318
C        0.61384672       0.71076080      -0.86737719
C        0.50426979       2.15888558      -0.80554945
N        0.43690063       3.30355811      -0.77874911
N        0.20903390      -0.02926538       0.30082410
C        1.02126939      -1.15357899       0.71577429
H       -1.83490100       1.06567160       0.50095745
H       -2.34214617      -0.60464763       0.14943682
H       -1.44262445      -0.27062712       1.60569176
H       -0.29151656      -1.11068380      -1.51964187
H        1.57115334       0.37037672      -1.25019980
H        1.45742473      -1.67501492      -0.14298130
H        0.40115963      -1.85635492       1.27405891
H        1.81479184      -0.79479616       1.37341142
15
Frame=5 idx=009892 GeodesicLength=0.23759492390195017 rxn_smarts="[C:1]([C@@:2]1([H:11])[C@:3]([C:4]#[N:5])([H:12])[N:6]1[C:7]([H:13])([H:14])[H:15])([H:8])([H:9])[H:10]>>[C:1]([N+:6]1([C:7]([H:13])([H:14])[H:15])[C-:2]([H:11])[C@:3]1([C:4]#[N:5])[H:12])([H:8])([H:9])[H:10]"
C       -1.54992172       0.03260518       0.55119182
C       -0.56662486      -0.14898875      -1.10088930
C        0.61436139       0.70794761      -0.86780999
C        0.49368249       2.15425880      -0.79909255
N        0.42215817       3.29868843      -0.77058993
N        0.21046785      -0.04102508       0.29603856
C        1.02825672      -1.16040461       0.71294043
H       -1.82644312       1.07825776       0.48931561
H       -2.35467230      -0.58857015       0.15835422
H       -1.45550068      -0.24913098       1.60721957
H       -0.28843831      -1.11916874      -1.51960188
H        1.57392655       0.37564395      -1.25238448
H        1.47635527      -1.67112297      -0.14594356
H        0.41056498      -1.87261037       1.26171944
H        1.81182757      -0.79638009       1.37953203
15
Frame=6 idx=009892 GeodesicLength=0.2849600724689575 rxn_smarts="[C:1]([C@@:2]1([H:11])[C@:3]([C:4]#[N:5])([H:12])[N:6]1[C:7]([H:13])([H:14])[H:15])([H:8])([H:9])[H:10]>>[C:1]([N+:6]1([C:7]([H:13])([H:14])[H:15])[C-:2]([H:11])[C@:3]1([C:4]#[N:5])[H:12])([H:8])([H:9])[H:10]"
C       -1.55183255       0.04247302       0.54875369
C       -0.56274290      -0.16104908      -1.09245359
C        0.61469339       0.70513941      -0.86801440
C        0.48328424       2.14954553      -0.79252009
N        0.40801368       3.29374806      -0.76256352
N        0.21180540      -0.05272950       0.29150731
C        1.03531512      -1.16713383       0.71009091
H       -1.81836232       1.09032069       0.47747150
H       -2.36693960      -0.57264882       0.16718230
H       -1.46846733      -0.22720937       1.60858566
H       -0.28555202      -1.12743855      -1.51949462
H        1.57635132       0.38087212      -1.25450621
H        1.49507466      -1.66697811      -0.14886260
H        0.42046839      -1.88887591       1.24935331
H        1.80889052      -0.79803566       1.38547037
15
Frame=7 idx=009892 GeodesicLength=0.33225665878467014 rxn_smarts="[C:1]([C@@:2]1([H:11])[C@:3]([C:4]#[N:5])([H:12])[N:6]1[C:7]([H:13])([H:14])[H:15])([H:8])([H:9])[H:10]>>[C:1]([N+:6]1([C:7]([H:13])([H:14])[H:15])[C-:2]([H:11])[C@:3]1([C:4]#[N:5])[H:12])([H:8])([H:9])[H:10]"
C       -1.55374544       0.05210510       0.54624258
C       -0.55898906      -0.17299118      -1.08391298
C        0.61485537       0.70232439      -0.86800226
C        0.47308079       2.14476869      -0.78579906
N        0.39436292       3.28875677      -0.75463502
N        0.21304897      -0.06437967       0.28722458
C        1.04245378      -1.17378483       0.70722177
H       -1.81066669       1.10185944       0.46535938
H       -2.37896613      -0.55683671       0.17593250
H       -1.48149254      -0.20476309       1.60981452
H       -0.28286626      -1.13551536      -1.51932791
H        1.57846426       0.38603986      -1.25659042
H        1.51359751      -1.66258019      -0.15175890
H        0.43088839      -1.90518343       1.23695594
H        1.80597413      -0.79981979       1.39127529
15
Frame=8 idx=009892 GeodesicLength=0.37946023932332285 rxn_smarts="[C:1]([C@@:2]1([H:11])[C@:3]([C:4]#[N:5])([H:12])[N:6]1[C:7]([H:13])([H:14])[H:15])([H:8])([H:9])[H:10]>>[C:1]([N+:6]1([C:7]([H:13])([H:14])[H:15])[C-:2]([H:11])[C@:3]1([C:4]#[N:5])[H:12])([H:8])([H:9])[H:10]"
C       -1.55567807       0.06150779       0.54367850
C       -0.55536061      -0.18480017      -1.07525648
C        0.61485117       0.69951412      -0.86775823
C        0.46306494       2.13992224      -0.77894517
N        0.38129412       3.28372126      -0.74686866
N        0.21420792      -0.07597209       0.28319990
C        1.04966088      -1.18034468       0.70433858
H       -1.80334990       1.11289088       0.45304899
H       -2.39075707      -0.54117797       0.18459953
H       -1.49460384      -0.18192199       1.61084678
H       -0.28037465      -1.14338111      -1.51908212
H        1.58024999       0.39116698      -1.25860836
H        1.53189538      -1.65794449      -0.15462416
H        0.44179869      -1.92148545       1.22452997
H        1.80310105      -0.80169532       1.39690092
15
Frame=9 idx=009892 GeodesicLength=0.42659754845986236 rxn_smarts="[C:1]([C@@:2]1([H:11])[C@:3]([C:4]#[N:5])([H:12])[N:6]1[C:7]([H:13])([H:14])[H:15])([H:8])([H:9])[H:10]>>[C:1]([N+:6]1([C:7]([H:13])([H:14])[H:15])[C-:2]([H:11])[C@:3]1([C:4]#[N:5])[H:12])([H:8])([H:9])[H:10]"
C       -1.55762499       0.07068732       0.54105478
C       -0.55185100      -0.19649382      -1.06648558
C        0.61469376       0.69669398      -0.86730138
C        0.45324507       2.13501502      -0.77195819
N        0.36870357       3.27864403      -0.73918224
N        0.21529258      -0.08750888       0.27942557
C        1.05694470      -1.18682619       0.70143743
H       -1.79641535       1.12343089       0.44048488
H       -2.40232252      -0.52564264       0.19319477
H       -1.50777447      -0.15859046       1.61169168
H       -0.27808592      -1.15106373      -1.51874905
H        1.58173119       0.39622989      -1.26059233
H        1.54999301      -1.65306672      -0.15746668
H        0.45320695      -1.93780175       1.21205733
H        1.80026344      -0.80370692       1.40238902
15
Frame=10 idx=009892 GeodesicLength=0.4736917227400256 rxn_smarts="[C:1]([C@@:2]1([H:11])[C@:3]([C:4]#[N:5])([H:12])[N:6]1[C:7]([H:13])([H:14])[H:15])([H:8])([H:9])[H:10]>>[C:1]([N+:6]1([C:7]([H:13])([H:14])[H:15])[C-:2]([H:11])[C@:3]1([C:4]#[N:5])[H:12])([H:8])([H:9])[H:10]"
C       -1.55958169       0.07966848       0.53838186
C       -0.54845478      -0.20808808      -1.05759856
C        0.61439348       0.69385002      -0.86664353
C        0.44363177       2.13003679      -0.76486050
N        0.35651429       3.27350703      -0.73151507
N        0.21631659      -0.09899276       0.27589456
C        1.06430689      -1.19323423       0.69851692
H       -1.78984941       1.13350418       0.42765059
H       -2.41367492      -0.51019976       0.20173341
H       -1.52098841      -0.13473570       1.61232343
H       -0.27600325      -1.15858379      -1.51831004
H        1.58291387       0.40121281      -1.26255268
H        1.56792474      -1.64792790      -0.16028526
H        0.46510743      -1.95415010       1.19949346
H        1.79744341      -0.80586701       1.40777140
15
Frame=11 idx=009892 GeodesicLength=0.5207669503433153 rxn_smarts="[C:1]([C@@:2]1([H:11])[C@:3]([C:4]#[N:5])([H:12])[N:6]1[C:7]([H:13])([H:14])[H:15])([H:8])([H:9])[H:10]>>[C:1]([N+:6]1([C:7]([H:13])([H:14])[H:15])[C-:2]([H:11])[C@:3]1([C:4]#[N:5])[H:12])([H:8])([H:9])[H:10]"
C       -1.56154332       0.08846803       0.53566461
C       -0.54516713      -0.21959819      -1.04859030
C        0.61395862       0.69097100      -0.86579465
C        0.43422777       2.12498511      -0.75766463
N        0.34465615       3.26830279      -0.72380963
N        0.21729180      -0.11043103       0.27260591
C        1.07175029      -1.19957765       0.69557612
H       -1.78364309       1.14313218       0.41451666
H       -2.42482196      -0.49482674       0.21023025
H       -1.53423487      -0.11030928       1.61272610
H       -0.27412577      -1.16596380      -1.51774946
H        1.58380635       0.40610633      -1.26450181
H        1.58571591      -1.64252166      -0.16307671
H        0.47749655      -1.97054080       1.18680036
H        1.79463269      -0.80819628       1.41306718
15
Frame=12 idx=009892 GeodesicLength=0.5678494244040351 rxn_smarts="[C:1]([C@@:2]1([H:11])[C@:3]([C:4]#[N:5])([H:12])[N:6]1[C:7]([H:13])([H:14])[H:15])([H:8])([H:9])[H:10]>>[C:1]([N+:6]1([C:7]([H:13])([H:14])[H:15])[C-:2]([H:11])[C@:3]1([C:4]#[N:5])[H:12])([H:8])([H:9])[H:10]"
C       -1.56350267       0.09711008       0.53290856
C       -0.54198250      -0.23103828      -1.03945778
C        0.61340031       0.68804411      -0.86476693
C        0.42504022       2.11985374      -0.75039044
N        0.33304140       3.26301525      -0.71598399
N        0.21823093      -0.12182832       0.26955550
C        1.07927423      -1.20586726       0.69261161
H       -1.77779484       1.15233161       0.40103038
H       -2.43575859      -0.47951809       0.21871936
H       -1.54748467      -0.08523029       1.61288000
H       -0.27245554      -1.17322236      -1.51705665
H        1.58442112       0.41089757      -1.26644906
H        1.60339066      -1.63683731      -0.16584031
H        0.49036743      -1.98698745       1.17393642
H        1.79181250      -0.81072300       1.41830333
15
Frame=13 idx=009892 GeodesicLength=0.6149113490448131 rxn_smarts="[C:1]([C@@:2]1([H:11])[C@:3]([C:4]#[N:5])([H:12])[N:6]1[C:7]([H:13])([H:14])[H:15])([H:8])([H:9])[H:10]>>[C:1]([N+:6]1([C:7]([H:13])([H:14])[H:15])[C-:2]([H:11])[C@:3]1([C:4]#[N:5])[H:12])([H:8])([H:9])[H:10]"
C       -1.56546996       0.10557658       0.53012828
C       -0.53889739      -0.24238980      -1.03019036
C        0.61272217       0.68508544      -0.86354130
C        0.41605887       2.11466126      -0.74299980
N        0.32172493       3.25767234      -0.70816313
N        0.21913572      -0.13317539       0.26675254
C        1.08687491      -1.21209944       0.68962634
H       -1.77229173       1.16109188       0.38726563
H       -2.44649888      -0.46426655       0.22716275
H       -1.56076238      -0.05961930       1.61274917
H       -0.27099318      -1.18033790      -1.51622289
H        1.58475834       0.41559999      -1.26837771
H        1.62090795      -1.63089716      -0.16858016
H        0.50371613      -2.00345015       1.16093573
H        1.78901450      -0.81345180       1.42345493
15
Frame=14 idx=009892 GeodesicLength=0.66197458993437 rxn_smarts="[C:1]([C@@:2]1([H:11])[C@:3]([C:4]#[N:5])([H:12])[N:6]1[C:7]([H:13])([H:14])[H:15])([H:8])([H:9])[H:10]>>[C:1]([N+:6]1([C:7]([H:13])([H:14])[H:15])[C-:2]([H:11])[C@:3]1([C:4]#[N:5])[H:12])([H:8])([H:9])[H:10]"
C       -1.56744222       0.11388430       0.52733006
C       -0.53590831      -0.25366385      -1.02078256
C        0.61193342       0.68208751      -0.86212322
C        0.40729254       2.10940790      -0.73548933
N        0.31063727       3.25226878      -0.70030381
N        0.22001557      -0.14447945       0.26419857
C        1.09455354      -1.21828721       0.68661712
H       -1.76713902       1.16942360       0.37316996
H       -2.45704239      -0.44907094       0.23559241
H       -1.57404123      -0.03340010       1.61231839
H       -0.26974429      -1.18732735      -1.51523778
H        1.58482990       0.42020939      -1.27029426
H        1.63829201      -1.62469022      -0.17129719
H        0.51754019      -2.01994899       1.14775347
H        1.78622302      -0.81641339       1.42854814
15
Frame=15 idx=009892 GeodesicLength=0.7090656454567054 rxn_smarts="[C:1]([C@@:2]1([H:11])[C@:3]([C:4]#[N:5])([H:12])[N:6]1[C:7]([H:13])([H:14])[H:15])([H:8])([H:9])[H:10]>>[C:1]([N+:6]1([C:7]([H:13])([H:14])[H:15])[C-:2]([H:11])[C@:3]1([C:4]#[N:5])[H:12])([H:8])([H:9])[H:10]"
C       -1.56941486       0.12205313       0.52451759
C       -0.53301351      -0.26487797      -1.01123051
C        0.61103686       0.67903565      -0.86052556
C        0.39873934       2.10408316      -0.72787796
N        0.29972973       3.24678508      -0.69231408
N        0.22087902      -0.15574581       0.26188849
C        1.10231283      -1.22443316       0.68358155
H       -1.76233529       1.17733512       0.35869991
H       -2.46739018      -0.43391620       0.24402914
H       -1.58730335      -0.00651130       1.61155975
H       -0.26871473      -1.19421408      -1.51408531
H        1.58463535       0.42471138      -1.27221325
H        1.65556695      -1.61819896      -0.17398581
H        0.53184534      -2.03648555       1.13435600
H        1.78342649      -0.81962048       1.43360005
15
Frame=16 idx=009892 GeodesicLength=0.7561602605058285 rxn_smarts="[C:1]([C@@:2]1([H:11])[C@:3]([C:4]#[N:5])([H:12])[N:6]1[C:7]([H:13])([H:14])[H:15])([H:8])([H:9])[H:10]>>[C:1]([N+:6]1([C:7]([H:13])([H:14])[H:15])[C-:2]([H:11])[C@:3]1([C:4]#[N:5])[H:12])([H:8])([H:9])[H:10]"
C       -1.57139323       0.13007083       0.52170273
C       -0.53021232      -0.27602359      -1.00152585
C        0.61003345       0.67593925      -0.85874280
C        0.39038384       2.09869932      -0.72015232
N        0.28904604       3.24124048      -0.68424223
N        0.22172819      -0.16696560       0.25982727
C        1.11014850      -1.23053151       0.68052377
H       -1.75786741       1.18481546       0.34389986
H       -2.47754826      -0.41879643       0.25244219
H       -1.60055880       0.02096176       1.61043887
H       -0.26790571      -1.20099013      -1.51275640
H        1.58417209       0.42911255      -1.27413483
H        1.67269835      -1.61144412      -0.17664535
H        0.54662235      -2.05301613       1.12077593
H        1.78065292      -0.82307215       1.43858918
