14
Frame=0 idx=005157 GeodesicLength=0.0 rxn_smarts="[C:1]([C:2]([C:3](=[O:4])[C:5]([O:6][H:14])([H:12])[H:13])([H:10])[H:11])([H:7])([H:8])[H:9]>>[C:1]([O:4][C:3](=[C:2]([H:10])[H:11])[C:5]([O:6][H:14])([H:12])[H:13])([H:7])([H:8])[H:9]"
C       -1.96177458       0.85257428      -0.28066263
C       -0.65135332      -1.11623868       0.06749641
C        0.33285283      -0.14295377       0.14099646
O        0.00011270       1.06530195       0.28306067
C        1.81126115      -0.43491073       0.10616771
O        2.58452550       0.67324889      -0.26557231
H       -2.05083323       1.71620392       0.36108349
H       -2.74581824       0.12156702      -0.15501287
H       -1.67607314       1.04654412      -1.30278243
H       -0.44617825      -2.10520900      -0.32832064
H       -1.36847328      -1.08186564       0.87923799
H        2.09363452      -0.80051441       1.10387016
H        1.99500582      -1.24865078      -0.59972719
H        2.08311147       1.45490284      -0.00983482
14
Frame=1 idx=005157 GeodesicLength=0.048023809739408736 rxn_smarts="[C:1]([C:2]([C:3](=[O:4])[C:5]([O:6][H:14])([H:12])[H:13])([H:10])[H:11])([H:7])([H:8])[H:9]>>[C:1]([O:4][C:3](=[C:2]([H:10])[H:11])[C:5]([O:6][H:14])([H:12])[H:13])([H:7])([H:8])[H:9]"
C       -1.95204337       0.84050149      -0.27934468
C       -0.65752871      -1.10329338       0.07121308
C        0.33478207      -0.13603176       0.14184491
O        0.00543020       1.07655586       0.26239490
C        1.81089194      -0.43670738       0.11258705
O        2.59002062       0.66128205      -0.27643933
H       -2.06428233       1.67223390       0.40084976
H       -2.74388812       0.10997049      -0.20060375
H       -1.68352051       1.08596691      -1.29560632
H       -0.45286860      -2.08824851      -0.33491784
H       -1.36147487      -1.08253473       0.89495820
H        2.09019263      -0.78707477       1.11653646
H        1.99106000      -1.26254904      -0.58013733
H        2.09322906       1.44992887      -0.03333512
14
Frame=2 idx=005157 GeodesicLength=0.09610030496839221 rxn_smarts="[C:1]([C:2]([C:3](=[O:4])[C:5]([O:6][H:14])([H:12])[H:13])([H:10])[H:11])([H:7])([H:8])[H:9]>>[C:1]([O:4][C:3](=[C:2]([H:10])[H:11])[C:5]([O:6][H:14])([H:12])[H:13])([H:7])([H:8])[H:9]"
C       -1.94226371       0.82887740      -0.27842717
C       -0.66358582      -1.09080055       0.07464046
C        0.33649393      -0.12929007       0.14280466
O        0.01033906       1.08721558       0.24191009
C        1.81032697      -0.43825572       0.11930295
O        2.59501610       0.64932504      -0.28725227
H       -2.07595092       1.62702375       0.43826657
H       -2.74040851       0.10032011      -0.24459123
H       -1.69230760       1.12537274      -1.28641403
H       -0.45917507      -2.07155019      -0.34187490
H       -1.35492275      -1.08389528       0.90934409
H        2.08673313      -0.77288611       1.12935970
H        1.98703771      -1.27618178      -0.55979037
H        2.10266748       1.44472508      -0.05727855
14
Frame=3 idx=005157 GeodesicLength=0.14427496011948543 rxn_smarts="[C:1]([C:2]([C:3](=[O:4])[C:5]([O:6][H:14])([H:12])[H:13])([H:10])[H:11])([H:7])([H:8])[H:9]>>[C:1]([O:4][C:3](=[C:2]([H:10])[H:11])[C:5]([O:6][H:14])([H:12])[H:13])([H:7])([H:8])[H:9]"
C       -1.93246511       0.81768039      -0.27784927
C       -0.66954284      -1.07870774       0.07768372
C        0.33802595      -0.12271127       0.14378413
O        0.01491279       1.09726515       0.22153972
C        1.80962386      -0.43954708       0.12636794
O        2.59965143       0.63728032      -0.29797940
H       -2.08597050       1.58076324       0.47331720
H       -2.73565037       0.09247221      -0.28693583
H       -1.70248902       1.16466653      -1.27508376
H       -0.46514557      -2.05499967      -0.34935819
H       -1.34875805      -1.08593768       0.92241137
H        2.08324039      -0.75783752       1.14240189
H        1.98300820      -1.28955912      -0.53852314
H        2.11155885       1.43917226      -0.08177639
14
Frame=4 idx=005157 GeodesicLength=0.19249506202765146 rxn_smarts="[C:1]([C:2]([C:3](=[O:4])[C:5]([O:6][H:14])([H:12])[H:13])([H:10])[H:11])([H:7])([H:8])[H:9]>>[C:1]([O:4][C:3](=[C:2]([H:10])[H:11])[C:5]([O:6][H:14])([H:12])[H:13])([H:7])([H:8])[H:9]"
C       -1.92258626       0.80698284      -0.27756982
C       -0.67526336      -1.06695800       0.08031735
C        0.33938183      -0.11628950       0.14473962
O        0.01909315       1.10671792       0.20113120
C        1.80872253      -0.44063767       0.13376757
O        2.60375683       0.62504414      -0.30854763
H       -2.09441086       1.53376622       0.50590107
H       -2.72961321       0.08638381      -0.32760985
H       -1.71410619       1.20368485      -1.26150528
H       -0.47057314      -2.03852991      -0.35730886
H       -1.34274084      -1.08859725       0.93413507
H        2.07964595      -0.74203161       1.15555634
H        1.97895756      -1.30268352      -0.51630757
H        2.11973601       1.43314770      -0.10669922
14
Frame=5 idx=005157 GeodesicLength=0.24079609295725468 rxn_smarts="[C:1]([C:2]([C:3](=[O:4])[C:5]([O:6][H:14])([H:12])[H:13])([H:10])[H:11])([H:7])([H:8])[H:9]>>[C:1]([O:4][C:3](=[C:2]([H:10])[H:11])[C:5]([O:6][H:14])([H:12])[H:13])([H:7])([H:8])[H:9]"
C       -1.91261402       0.79672624      -0.27771125
C       -0.68093816      -1.05565851       0.08275704
C        0.34058150      -0.11001887       0.14598162
O        0.02300810       1.11566207       0.18113469
C        1.80771792      -0.44147701       0.14134366
O        2.60753961       0.61284143      -0.31908281
H       -2.10153805       1.48638794       0.53586723
H       -2.72259944       0.08175100      -0.36686364
H       -1.72667745       1.24227217      -1.24587213
H       -0.47570913      -2.02234917      -0.36550590
H       -1.33725238      -1.09193247       0.94482392
H        2.07622739      -0.72565671       1.16864040
H        1.97476968      -1.31540155      -0.49364604
H        2.12748442       1.42685344      -0.13186680
14
Frame=6 idx=005157 GeodesicLength=0.28909871063403825 rxn_smarts="[C:1]([C:2]([C:3](=[O:4])[C:5]([O:6][H:14])([H:12])[H:13])([H:10])[H:11])([H:7])([H:8])[H:9]>>[C:1]([O:4][C:3](=[C:2]([H:10])[H:11])[C:5]([O:6][H:14])([H:12])[H:13])([H:7])([H:8])[H:9]"
C       -1.90249749       0.78693888      -0.27827154
C       -0.68642556      -1.04469500       0.08505517
C        0.34163049      -0.10389805       0.14760662
O        0.02657578       1.12403599       0.16169432
C        1.80656131      -0.44211852       0.14907107
O        2.61077654       0.60052976      -0.32962061
H       -2.10759774       1.43878203       0.56308963
H       -2.71451327       0.07853866      -0.40491271
H       -1.74006291       1.28038171      -1.22798450
H       -0.48034338      -2.00628035      -0.37380882
H       -1.33210531      -1.09581510       0.95443335
H        2.07306076      -0.70881608       1.18149683
H        1.97038355      -1.32769400      -0.47051103
H        2.13455723       1.42011006      -0.15733777
14
Frame=7 idx=005157 GeodesicLength=0.33749509910961917 rxn_smarts="[C:1]([C:2]([C:3](=[O:4])[C:5]([O:6][H:14])([H:12])[H:13])([H:10])[H:11])([H:7])([H:8])[H:9]>>[C:1]([O:4][C:3](=[C:2]([H:10])[H:11])[C:5]([O:6][H:14])([H:12])[H:13])([H:7])([H:8])[H:9]"
C       -1.89228233       0.77759452      -0.27917384
C       -0.69183650      -1.03406480       0.08715951
C        0.34255144      -0.09787149       0.14944843
O        0.02994663       1.13193809       0.14245989
C        1.80530254      -0.44253279       0.15690552
O        2.61372460       0.58818758      -0.34001183
H       -2.11260011       1.39123150       0.58769204
H       -2.70562627       0.07656547      -0.44159497
H       -1.75432036       1.31759503      -1.20799164
H       -0.48465265      -1.99037675      -0.38224463
H       -1.32737031      -1.10020647       0.96307918
H        2.07002929      -0.69156667       1.19412517
H        1.96584766      -1.33948704      -0.44706418
H        2.14128638       1.41299382      -0.18278865
14
Frame=8 idx=005157 GeodesicLength=0.3858440741008704 rxn_smarts="[C:1]([C:2]([C:3](=[O:4])[C:5]([O:6][H:14])([H:12])[H:13])([H:10])[H:11])([H:7])([H:8])[H:9]>>[C:1]([O:4][C:3](=[C:2]([H:10])[H:11])[C:5]([O:6][H:14])([H:12])[H:13])([H:7])([H:8])[H:9]"
C       -1.88194883       0.76869879      -0.28049843
C       -0.69711490      -1.02372857       0.08926851
C        0.34334840      -0.09194154       0.15174655
O        0.03305316       1.13936285       0.12375298
C        1.80394823      -0.44276698       0.16470658
O        2.61624030       0.57583473      -0.35035011
H       -2.11689225       1.34403729       0.60947600
H       -2.69591309       0.07573873      -0.47716836
H       -1.76915651       1.35376334      -1.18595621
H       -0.48853695      -1.97463454      -0.39051146
H       -1.32304310      -1.10497891       0.97090623
H        2.06737269      -0.67419022       1.20626400
H        1.96107508      -1.35069965      -0.42364791
H        2.14756776       1.40550469      -0.20798836
14
Frame=9 idx=005157 GeodesicLength=0.43421242280063344 rxn_smarts="[C:1]([C:2]([C:3](=[O:4])[C:5]([O:6][H:14])([H:12])[H:13])([H:10])[H:11])([H:7])([H:8])[H:9]>>[C:1]([O:4][C:3](=[C:2]([H:10])[H:11])[C:5]([O:6][H:14])([H:12])[H:13])([H:7])([H:8])[H:9]"
C       -1.87163036       0.76031456      -0.28197148
C       -0.70226776      -1.01364724       0.09098272
C        0.34406254      -0.08603602       0.15402419
O        0.03603492       1.14641294       0.10480414
C        1.80253738      -0.44281201       0.17271584
O        2.61862133       0.56329500      -0.36039766
H       -2.12030619       1.29731013       0.62901518
H       -2.68567357       0.07600325      -0.51128115
H       -1.78503829       1.38868844      -1.16184481
H       -0.49205101      -1.95894689      -0.39921089
H       -1.31891151      -1.11023838       0.97772463
H        2.06469964      -0.65634020       1.21835831
H        1.95629760      -1.36153580      -0.39968068
H        2.15362526       1.39753220      -0.23323833
14
Frame=10 idx=005157 GeodesicLength=0.4826472008630691 rxn_smarts="[C:1]([C:2]([C:3](=[O:4])[C:5]([O:6][H:14])([H:12])[H:13])([H:10])[H:11])([H:7])([H:8])[H:9]>>[C:1]([O:4][C:3](=[C:2]([H:10])[H:11])[C:5]([O:6][H:14])([H:12])[H:13])([H:7])([H:8])[H:9]"
C       -1.86118165       0.75243323      -0.28360725
C       -0.70725262      -1.00382074       0.09240553
C        0.34466325      -0.08016919       0.15667022
O        0.03884178       1.15306911       0.08627891
C        1.80099544      -0.44264693       0.18094717
O        2.62060275       0.55049433      -0.37054716
H       -2.12319686       1.25098356       0.64629712
H       -2.67465105       0.07730175      -0.54447044
H       -1.80135782       1.42257612      -1.13539015
H       -0.49510102      -1.94323347      -0.40830705
H       -1.31508972      -1.11608165       0.98345853
H        2.06220780      -0.63783573       1.23033224
H        1.95131722      -1.37206130      -0.37497341
H        2.15920251       1.38899092      -0.25909426
14
Frame=11 idx=005157 GeodesicLength=0.5311298534642045 rxn_smarts="[C:1]([C:2]([C:3](=[O:4])[C:5]([O:6][H:14])([H:12])[H:13])([H:10])[H:11])([H:7])([H:8])[H:9]>>[C:1]([O:4][C:3](=[C:2]([H:10])[H:11])[C:5]([O:6][H:14])([H:12])[H:13])([H:7])([H:8])[H:9]"
C       -1.85075442       0.74505616      -0.28530661
C       -0.71211781      -0.99418056       0.09345094
C        0.34517663      -0.07426844       0.15927264
O        0.04157369       1.15937978       0.06731630
C        1.79936012      -0.44228242       0.18932515
O        2.62245017       0.53751304      -0.38035246
H       -2.12532727       1.20538173       0.66152218
H       -2.66324190       0.07956928      -0.57623180
H       -1.81844876       1.45479342      -1.10700199
H       -0.49779263      -1.92749905      -0.41774931
H       -1.31141224      -1.12233072       0.98822903
H        2.05965230      -0.61896549       1.24213868
H        1.94624346      -1.38212187      -0.34983741
H        2.16463866       1.37995513      -0.28477535
14
Frame=12 idx=005157 GeodesicLength=0.5796239677353421 rxn_smarts="[C:1]([C:2]([C:3](=[O:4])[C:5]([O:6][H:14])([H:12])[H:13])([H:10])[H:11])([H:7])([H:8])[H:9]>>[C:1]([O:4][C:3](=[C:2]([H:10])[H:11])[C:5]([O:6][H:14])([H:12])[H:13])([H:7])([H:8])[H:9]"
C       -1.84036456       0.73821400      -0.28698987
C       -0.71685106      -0.98472800       0.09405120
C        0.34560468      -0.06833070       0.16201977
O        0.04421987       1.16535601       0.04828149
C        1.79766443      -0.44169753       0.19796995
O        2.62413665       0.52419337      -0.39009501
H       -2.12702498       1.16043383       0.67491352
H       -2.65142629       0.08281846      -0.60692708
H       -1.83605899       1.48552087      -1.07649099
H       -0.50005406      -1.91165088      -0.42777440
H       -1.30795912      -1.12913445       0.99190724
H        2.05717747      -0.59940519       1.25392741
H        1.94108401      -1.39185569      -0.32387994
H        2.16985196       1.37026590      -0.31091329
14
Frame=13 idx=005157 GeodesicLength=0.6281287204916961 rxn_smarts="[C:1]([C:2]([C:3](=[O:4])[C:5]([O:6][H:14])([H:12])[H:13])([H:10])[H:11])([H:7])([H:8])[H:9]>>[C:1]([O:4][C:3](=[C:2]([H:10])[H:11])[C:5]([O:6][H:14])([H:12])[H:13])([H:7])([H:8])[H:9]"
C       -1.83003500       0.73190693      -0.28858555
C       -0.72145883      -0.97542048       0.09424518
C        0.34593965      -0.06231492       0.16480623
O        0.04679735       1.17100897       0.02888294
C        1.79587648      -0.44089570       0.20679391
O        2.62568712       0.51060381      -0.39957362
H       -2.12823007       1.11634324       0.68658500
H       -2.63930908       0.08700773      -0.63640027
H       -1.85410661       1.51434897      -1.04417175
H       -0.50192145      -1.89567876      -0.43826426
H       -1.30463807      -1.13637527       0.99458725
H        2.05468711      -0.57937146       1.26555795
H        1.93580113      -1.40113741      -0.29737200
H        2.17491028       1.35997434      -0.33709100
14
Frame=14 idx=005157 GeodesicLength=0.6766877952055881 rxn_smarts="[C:1]([C:2]([C:3](=[O:4])[C:5]([O:6][H:14])([H:12])[H:13])([H:10])[H:11])([H:7])([H:8])[H:9]>>[C:1]([O:4][C:3](=[C:2]([H:10])[H:11])[C:5]([O:6][H:14])([H:12])[H:13])([H:7])([H:8])[H:9]"
C       -1.81977004       0.72614574      -0.28997446
C       -0.72592457      -0.96626298       0.09386993
C        0.34617094      -0.05620763       0.16766646
O        0.04932142       1.17634493       0.00921460
C        1.79397763      -0.43983312       0.21594485
O        2.62705825       0.49658248      -0.40896644
H       -2.12904007       1.07298678       0.69680191
H       -2.62691639       0.09219137      -0.66476766
H       -1.87238872       1.54141243      -1.00986860
H       -0.50332334      -1.87948312      -0.44951878
H       -1.30145029      -1.14423632       0.99605225
H        2.05216172      -0.55846083       1.27721008
H        1.93038063      -1.41008629      -0.26981905
H        2.17974284       1.34890656      -0.36384510
14
Frame=15 idx=005157 GeodesicLength=0.72525211687517 rxn_smarts="[C:1]([C:2]([C:3](=[O:4])[C:5]([O:6][H:14])([H:12])[H:13])([H:10])[H:11])([H:7])([H:8])[H:9]>>[C:1]([O:4][C:3](=[C:2]([H:10])[H:11])[C:5]([O:6][H:14])([H:12])[H:13])([H:7])([H:8])[H:9]"
C       -1.80960133       0.72091112      -0.29113263
C       -0.73027233      -0.95721653       0.09309821
C        0.34629438      -0.04997487       0.17053532
O        0.05178518       1.18136233      -0.01089403
C        1.79195736      -0.43853041       0.22523314
O        2.62829101       0.48230095      -0.41803719
H       -2.12946162       1.03061959       0.70560071
H       -2.61435057       0.09829074      -0.69190453
H       -1.89076739       1.56626709      -0.97413095
H       -0.50433638      -1.86311074      -0.46121414
H       -1.29833528      -1.15250149       0.99655179
H        2.04958135      -0.53713108       1.28861897
H        1.92477300      -1.41849841      -0.24180506
H        2.18444262       1.33721172      -0.39051962
14
Frame=16 idx=005157 GeodesicLength=0.7738599576200337 rxn_smarts="[C:1]([C:2]([C:3](=[O:4])[C:5]([O:6][H:14])([H:12])[H:13])([H:10])[H:11])([H:7])([H:8])[H:9]>>[C:1]([O:4][C:3](=[C:2]([H:10])[H:11])[C:5]([O:6][H:14])([H:12])[H:13])([H:7])([H:8])[H:9]"
C       -1.79955893       0.71620612      -0.29192862
C       -0.73448825      -0.94828993       0.09174018
C        0.34629851      -0.04360708       0.17341478
O        0.05419885       1.18604925      -0.03142360
C        1.78981067      -0.43693729       0.23482526
O        2.62937589       0.46758234      -0.42692878
H       -2.12955693       0.98908128       0.71326167
H       -2.60169186       0.10539333      -0.71784835
H       -1.90908505       1.58908424      -0.93680490
H       -0.50487942      -1.84644416      -0.47368740
H       -1.29529072      -1.16137630       0.99583675
H        2.04691170      -0.51494865       1.29998130
H        1.91899740      -1.42647464      -0.21279159
H        2.18895814       1.32468150      -0.41764671
