19
Frame=0 idx=009424 GeodesicLength=0.0 rxn_smarts="[C:1]([C:2]([O:3][C@@:4]1([H:13])[C:5]([H:14])([H:15])[C@:6]1([C:7]([H:17])([H:18])[H:19])[H:16])([H:11])[H:12])([H:8])([H:9])[H:10]>>[C:1]([C:2]([O:3][C:5]([C@:6]([C:4][H:13])([C:7]([H:17])([H:18])[H:19])[H:16])([H:14])[H:15])([H:11])[H:12])([H:8])([H:9])[H:10]"
C        2.68436484       0.44383512       0.78959413
C        1.53049818       0.12480800      -0.13329610
O        0.56216950      -0.63366160       0.56625194
C       -0.43088131      -1.33268589      -0.40563333
C       -1.15637282      -0.06207983       1.00518414
C       -1.71335069      -0.48262355      -0.24955571
C       -1.97705543       0.55617016      -1.32039593
H        3.12865258      -0.47433474       1.17591261
H        2.35350628       1.04736616       1.63720227
H        3.45358295       1.00299385       0.25383667
H        1.82604407      -0.48412591      -0.99582973
H        1.08233357       1.04513751      -0.52973975
H       -0.52425554      -2.31991876       0.05571005
H       -0.84211036       0.96195769       1.18848405
H       -1.31963319      -0.66596328       1.88688934
H       -2.54596253      -1.17488526      -0.12294125
H       -2.11953200       0.06294569      -2.28237913
H       -2.86547947       1.15305380      -1.09465475
H       -1.12651857       1.23201090      -1.42463953
19
Frame=1 idx=009424 GeodesicLength=0.044590140444724174 rxn_smarts="[C:1]([C:2]([O:3][C@@:4]1([H:13])[C:5]([H:14])([H:15])[C@:6]1([C:7]([H:17])([H:18])[H:19])[H:16])([H:11])[H:12])([H:8])([H:9])[H:10]>>[C:1]([C:2]([O:3][C:5]([C@:6]([C:4][H:13])([C:7]([H:17])([H:18])[H:19])[H:16])([H:14])[H:15])([H:11])[H:12])([H:8])([H:9])[H:10]"
C        2.68206667       0.45307371       0.79240289
C        1.54331909       0.10937109      -0.14030400
O        0.56605894      -0.63531041       0.56138961
C       -0.43393084      -1.32472671      -0.40503292
C       -1.14878374      -0.07405162       1.00524239
C       -1.71814687      -0.48350408      -0.25186594
C       -1.98468798       0.56462505      -1.31202889
H        3.12147979      -0.45397340       1.20933559
H        2.33685768       1.07768132       1.61871311
H        3.45909186       0.99915588       0.25445822
H        1.85538540      -0.51962888      -0.98227323
H        1.09891561       1.01815418      -0.56592161
H       -0.51814300      -2.32284972       0.03301590
H       -0.84177976       0.95246489       1.18710427
H       -1.32693026      -0.66963778       1.89000642
H       -2.55182782      -1.17483595      -0.12647050
H       -2.12875967       0.08222057      -2.27934281
H       -2.87371095       1.15756752      -1.07842234
H       -1.13647414       1.24420432      -1.41000615
19
Frame=2 idx=009424 GeodesicLength=0.08882347154028666 rxn_smarts="[C:1]([C:2]([O:3][C@@:4]1([H:13])[C:5]([H:14])([H:15])[C@:6]1([C:7]([H:17])([H:18])[H:19])[H:16])([H:11])[H:12])([H:8])([H:9])[H:10]>>[C:1]([C:2]([O:3][C:5]([C@:6]([C:4][H:13])([C:7]([H:17])([H:18])[H:19])[H:16])([H:14])[H:15])([H:11])[H:12])([H:8])([H:9])[H:10]"
C        2.67937569       0.46270169       0.79442397
C        1.55585143       0.09361906      -0.14695308
O        0.56977219      -0.63707682       0.55688686
C       -0.43691591      -1.31707840      -0.40410390
C       -1.14156303      -0.08641183       1.00553842
C       -1.72275312      -0.48440085      -0.25417473
C       -1.99148251       0.57328368      -1.30343120
H        3.11361729      -0.43224912       1.24178528
H        2.32016251       1.10798521       1.59853960
H        3.46409048       0.99561927       0.25447271
H        1.88403340      -0.55520573      -0.96737459
H        1.11551149       0.98990104      -0.60173144
H       -0.51204997      -2.32563109       0.00997054
H       -0.84185530       0.94246811       1.18642404
H       -1.33483156      -0.67352635       1.89310881
H       -2.55767452      -1.17467876      -0.13048662
H       -2.13694988       0.10202951      -2.27611394
H       -2.88101547       1.16238490      -1.06220062
H       -1.14532322       1.25626649      -1.39458013
19
Frame=3 idx=009424 GeodesicLength=0.13266228458516052 rxn_smarts="[C:1]([C:2]([O:3][C@@:4]1([H:13])[C:5]([H:14])([H:15])[C@:6]1([C:7]([H:17])([H:18])[H:19])[H:16])([H:11])[H:12])([H:8])([H:9])[H:10]>>[C:1]([C:2]([O:3][C:5]([C@:6]([C:4][H:13])([C:7]([H:17])([H:18])[H:19])[H:16])([H:14])[H:15])([H:11])[H:12])([H:8])([H:9])[H:10]"
C        2.67638064       0.47260211       0.79564080
C        1.56803675       0.07771168      -0.15317338
O        0.57328026      -0.63884576       0.55280047
C       -0.43982133      -1.30972981      -0.40276582
C       -1.13476955      -0.09909970       1.00607369
C       -1.72717854      -0.48532417      -0.25648495
C       -1.99743952       0.58204912      -1.29468445
H        3.10522854      -0.40940133       1.27289417
H        2.30364020       1.13790223       1.57691440
H        3.46858992       0.99241939       0.25389600
H        1.91181416      -0.59049586      -0.95123877
H        1.13205486       0.96061664      -0.63685557
H       -0.50592322      -2.32819526      -0.01329089
H       -0.84245466       0.93205200       1.18640225
H       -1.34339241      -0.67753371       1.89620493
H       -2.56349794      -1.17443308      -0.13497557
H       -2.14407140       0.12220172      -2.27273119
H       -2.88741168       1.16741910      -1.04613749
H       -1.15306507       1.26808469      -1.37848862
19
Frame=4 idx=009424 GeodesicLength=0.176067080761577 rxn_smarts="[C:1]([C:2]([O:3][C@@:4]1([H:13])[C:5]([H:14])([H:15])[C@:6]1([C:7]([H:17])([H:18])[H:19])[H:16])([H:11])[H:12])([H:8])([H:9])[H:10]>>[C:1]([C:2]([O:3][C:5]([C@:6]([C:4][H:13])([C:7]([H:17])([H:18])[H:19])[H:16])([H:14])[H:15])([H:11])[H:12])([H:8])([H:9])[H:10]"
C        2.67319833       0.48263651       0.79607080
C        1.57982445       0.06182587      -0.15890377
O        0.57655486      -0.64048630       0.54917586
C       -0.44263050      -1.30265918      -0.40095029
C       -1.12845655      -0.11203254       1.00683949
C       -1.73143744      -0.48628748      -0.25879847
C       -2.00259899       0.59080980      -1.28588228
H        3.09650344      -0.38574176       1.30233361
H        2.28754918       1.16706121       1.55414776
H        3.47263893       0.98956407       0.25276360
H        1.93855354      -0.62512367      -0.93402104
H        1.14848340       0.93059283      -0.67097604
H       -0.49969182      -2.33046679      -0.03664522
H       -0.84369512       0.92133003       1.18696537
H       -1.35265148      -0.68153228       1.89930248
H       -2.56928562      -1.17413473      -0.13990167
H       -2.15014296       0.14253119      -2.26924220
H       -2.89296351       1.17256114      -1.03038343
H       -1.15975214       1.27955206      -1.36189457
19
Frame=5 idx=009424 GeodesicLength=0.21903548614023524 rxn_smarts="[C:1]([C:2]([O:3][C@@:4]1([H:13])[C:5]([H:14])([H:15])[C@:6]1([C:7]([H:17])([H:18])[H:19])[H:16])([H:11])[H:12])([H:8])([H:9])[H:10]>>[C:1]([C:2]([O:3][C:5]([C@:6]([C:4][H:13])([C:7]([H:17])([H:18])[H:19])[H:16])([H:14])[H:15])([H:11])[H:12])([H:8])([H:9])[H:10]"
C        2.66996211       0.49263906       0.79577038
C        1.59118270       0.04615671      -0.16409081
O        0.57958599      -0.64184780       0.54603663
C       -0.44532880      -1.29581528      -0.39860013
C       -1.12265349      -0.12508814       1.00781669
C       -1.73555172      -0.48729806      -0.26111904
C       -2.00705932       0.59943844      -1.27712904
H        3.08767871      -0.36163236       1.32981681
H        2.27213447       1.19506523       1.53062076
H        3.47630869       0.98702631       0.25114921
H        1.96413218      -0.65871327      -0.91589241
H        1.16474381       0.90014166      -0.70379144
H       -0.49326534      -2.33235283      -0.05999798
H       -0.84566931       0.91044960       1.18800594
H       -1.36260708      -0.68535822       1.90239609
H       -2.57502207      -1.17381821      -0.14520730
H       -2.15526692       0.16278227      -2.26569729
H       -2.89779388       1.17767551      -1.01509083
H       -1.16551072       1.29054938      -1.34499625
19
Frame=6 idx=009424 GeodesicLength=0.2614693356514751 rxn_smarts="[C:1]([C:2]([O:3][C@@:4]1([H:13])[C:5]([H:14])([H:15])[C@:6]1([C:7]([H:17])([H:18])[H:19])[H:16])([H:11])[H:12])([H:8])([H:9])[H:10]>>[C:1]([C:2]([O:3][C:5]([C@:6]([C:4][H:13])([C:7]([H:17])([H:18])[H:19])[H:16])([H:14])[H:15])([H:11])[H:12])([H:8])([H:9])[H:10]"
C        2.66685193       0.50231969       0.79482893
C        1.60209587       0.03098279      -0.16868758
O        0.58236890      -0.64270692       0.54341916
C       -0.44785982      -1.28910471      -0.39566313
C       -1.11739335      -0.13805875       1.00896138
C       -1.73952770      -0.48837960      -0.26344861
C       -2.01095457       0.60774046      -1.26859536
H        3.07908545      -0.33784431       1.35495396
H        2.25770750       1.22139439       1.50700951
H        3.47966863       0.98476138       0.24914492
H        1.98838432      -0.69076898      -0.89730748
H        1.18069381       0.86999773      -0.73486741
H       -0.48651561      -2.33377862      -0.08300588
H       -0.84850825       0.89967319       1.18932839
H       -1.37325025      -0.68872277       1.90552339
H       -2.58063535      -1.17357631      -0.15078836
H       -2.15953633       0.18259256      -2.26221158
H       -2.90209720       1.18252190      -1.00049277
H       -1.17057797       1.30095689      -1.32810147
19
Frame=7 idx=009424 GeodesicLength=0.3035294144329561 rxn_smarts="[C:1]([C:2]([O:3][C@@:4]1([H:13])[C:5]([H:14])([H:15])[C@:6]1([C:7]([H:17])([H:18])[H:19])[H:16])([H:11])[H:12])([H:8])([H:9])[H:10]>>[C:1]([C:2]([O:3][C:5]([C@:6]([C:4][H:13])([C:7]([H:17])([H:18])[H:19])[H:16])([H:14])[H:15])([H:11])[H:12])([H:8])([H:9])[H:10]"
C        2.66377234       0.51190657       0.79330590
C        1.61262594       0.01605514      -0.17278811
O        0.58492624      -0.64325549       0.54120801
C       -0.45028084      -1.28258108      -0.39229052
C       -1.11258279      -0.15111907       1.01027961
C       -1.74337388      -0.48950253      -0.26579142
C       -2.01432127       0.61587424      -1.26013095
H        3.07052552      -0.31384514       1.37835055
H        2.24401544       1.24663292       1.48294673
H        3.48275073       0.98275395       0.24674103
H        2.01155644      -0.72179108      -0.87800935
H        1.19648859       0.83956432      -0.76468252
H       -0.47953140      -2.33471864      -0.10604462
H       -0.85201995       0.88876928       1.19100382
H       -1.38448476      -0.69184298       1.90859904
H       -2.58617648      -1.17332554      -0.15667184
H       -2.16307149       0.20223740      -2.25866468
H       -2.90587892       1.18727359      -0.98631275
H       -1.17493945       1.31091415      -1.31104791
19
Frame=8 idx=009424 GeodesicLength=0.3453290391636646 rxn_smarts="[C:1]([C:2]([O:3][C@@:4]1([H:13])[C:5]([H:14])([H:15])[C@:6]1([C:7]([H:17])([H:18])[H:19])[H:16])([H:11])[H:12])([H:8])([H:9])[H:10]>>[C:1]([C:2]([O:3][C:5]([C@:6]([C:4][H:13])([C:7]([H:17])([H:18])[H:19])[H:16])([H:14])[H:15])([H:11])[H:12])([H:8])([H:9])[H:10]"
C        2.66059849       0.52151867       0.79118727
C        1.62285677       0.00119547      -0.17645511
O        0.58728914      -0.64362854       0.53933317
C       -0.45263861      -1.27628528      -0.38855995
C       -1.10814756      -0.16432558       1.01180079
C       -1.74707394      -0.49064896      -0.26814139
C       -2.01715052       0.62394716      -1.25164433
H        3.06187966      -0.28937094       1.40032497
H        2.23066918       1.27106699       1.45818756
H        3.48549971       0.98102618       0.24390171
H        2.03394577      -0.75208160      -0.85786488
H        1.21218442       0.80855272      -0.79351066
H       -0.47236071      -2.33523601      -0.12930902
H       -0.85604542       0.87766283       1.19309337
H       -1.39625466      -0.69484747       1.91161066
H       -2.59166124      -1.17302032      -0.16285490
H       -2.16589796       0.22191084      -2.25500235
H       -2.90909939       1.19205078      -0.97237607
H       -1.17859315       1.32051305      -1.29372084
19
Frame=9 idx=009424 GeodesicLength=0.38696597591499987 rxn_smarts="[C:1]([C:2]([O:3][C@@:4]1([H:13])[C:5]([H:14])([H:15])[C@:6]1([C:7]([H:17])([H:18])[H:19])[H:16])([H:11])[H:12])([H:8])([H:9])[H:10]>>[C:1]([C:2]([O:3][C:5]([C@:6]([C:4][H:13])([C:7]([H:17])([H:18])[H:19])[H:16])([H:14])[H:15])([H:11])[H:12])([H:8])([H:9])[H:10]"
C        2.65719454       0.53131039       0.78845088
C        1.63282848      -0.01380557      -0.17973072
O        0.58947769      -0.64397405       0.53773736
C       -0.45494595      -1.27024921      -0.38455846
C       -1.10402336      -0.17781050       1.01353081
C       -1.75059905      -0.49179103      -0.27050264
C       -2.01940639       0.63209390      -1.24301635
H        3.05294928      -0.26402178       1.42126022
H        2.21737377       1.29511855       1.43234298
H        3.48786574       0.97953773       0.24057471
H        2.05574438      -0.78200985      -0.83665953
H        1.22780267       0.77656036      -0.82163601
H       -0.46504502      -2.33534874      -0.15302948
H       -0.86045240       0.86618762       1.19567450
H       -1.40848555      -0.69792278       1.91451704
H       -2.59707954      -1.17259148      -0.16938486
H       -2.16800728       0.24186043      -2.25114625
H       -2.91170526       1.19698863      -0.95848300
H       -1.18148677       1.32986739      -1.27594120
19
Frame=10 idx=009424 GeodesicLength=0.42835963266468363 rxn_smarts="[C:1]([C:2]([O:3][C@@:4]1([H:13])[C:5]([H:14])([H:15])[C@:6]1([C:7]([H:17])([H:18])[H:19])[H:16])([H:11])[H:12])([H:8])([H:9])[H:10]>>[C:1]([C:2]([O:3][C:5]([C@:6]([C:4][H:13])([C:7]([H:17])([H:18])[H:19])[H:16])([H:14])[H:15])([H:11])[H:12])([H:8])([H:9])[H:10]"
C        2.65377643       0.54101319       0.78520069
C        1.64252459      -0.02864751      -0.18255790
O        0.59147929      -0.64406361       0.53644672
C       -0.45717351      -1.26438525      -0.38023994
C       -1.10024559      -0.19137121       1.01541582
C       -1.75398226      -0.49295859      -0.27288426
C       -2.02125102       0.64010722      -1.23440629
H        3.04403265      -0.23847738       1.44073844
H        2.20453664       1.31822607       1.40606977
H        3.48997037       0.97826495       0.23688423
H        2.07675162      -0.81105293      -0.81474828
H        1.24333354       0.74420449      -0.84863790
H       -0.45749278      -2.33491779      -0.17689902
H       -0.86536603       0.85459169       1.19852870
H       -1.42118256      -0.70077371       1.91730272
H       -2.60240169      -1.17213775      -0.17616367
H       -2.16955083       0.26170578      -2.24717575
H       -2.91390277       1.20183477      -0.94485229
H       -1.18385609       1.33883757      -1.25802179
19
Frame=11 idx=009424 GeodesicLength=0.4696200408178234 rxn_smarts="[C:1]([C:2]([O:3][C@@:4]1([H:13])[C:5]([H:14])([H:15])[C@:6]1([C:7]([H:17])([H:18])[H:19])[H:16])([H:11])[H:12])([H:8])([H:9])[H:10]>>[C:1]([C:2]([O:3][C:5]([C@:6]([C:4][H:13])([C:7]([H:17])([H:18])[H:19])[H:16])([H:14])[H:15])([H:11])[H:12])([H:8])([H:9])[H:10]"
C        2.65018061       0.55083530       0.78137828
C        1.65198447      -0.04358313      -0.18497756
O        0.59330633      -0.64408274       0.53541882
C       -0.45935649      -1.25876249      -0.37566986
C       -1.09676779      -0.20516734       1.01749022
C       -1.75720092      -0.49412050      -0.27528000
C       -2.02260339       0.64815071      -1.22567549
H        3.03491187      -0.21220285       1.45916537
H        2.19179697       1.34085509       1.37886940
H        3.49174659       0.97719906       0.23273894
H        2.09719336      -0.83962466      -0.79184629
H        1.25879950       0.71095868      -0.87484515
H       -0.44976051      -2.33397985      -0.20125394
H       -0.87065149       0.84267730       1.20179309
H       -1.43430024      -0.70364613       1.91995680
H       -2.60765035      -1.17157013      -0.18325126
H       -2.17047083       0.28174634      -2.24300856
H       -2.91558239       1.20677977      -0.93126948
H       -1.18557529       1.34753757      -1.23973333
19
Frame=12 idx=009424 GeodesicLength=0.5106651590475291 rxn_smarts="[C:1]([C:2]([O:3][C@@:4]1([H:13])[C:5]([H:14])([H:15])[C@:6]1([C:7]([H:17])([H:18])[H:19])[H:16])([H:11])[H:12])([H:8])([H:9])[H:10]>>[C:1]([C:2]([O:3][C:5]([C@:6]([C:4][H:13])([C:7]([H:17])([H:18])[H:19])[H:16])([H:14])[H:15])([H:11])[H:12])([H:8])([H:9])[H:10]"
C        2.64662488       0.56049652       0.77710825
C        1.66118531      -0.05831706      -0.18694435
O        0.59495351      -0.64380101       0.53467559
C       -0.46145531      -1.25328427      -0.37079858
C       -1.09361266      -0.21898469       1.01970106
C       -1.76028413      -0.49530386      -0.27769536
C       -2.02364574       0.65602148      -1.21699375
H        3.02589714      -0.18590219       1.47619064
H        2.17957256       1.36249393       1.35140274
H        3.49332693       0.97626213       0.22826586
H        2.11686913      -0.86723964      -0.76833640
H        1.27414958       0.67746780      -0.89985393
H       -0.44173131      -2.33239966      -0.22580533
H       -0.87642868       0.83070378       1.20524657
H       -1.44780805      -0.70624289       1.92247317
H       -2.61277934      -1.17098759      -0.19053081
H       -2.17093043       0.30159866      -2.23874458
H       -2.91698293       1.21156425      -0.91797216
H       -1.18692043       1.35585431      -1.22138863
19
Frame=13 idx=009424 GeodesicLength=0.5515960797414211 rxn_smarts="[C:1]([C:2]([O:3][C@@:4]1([H:13])[C:5]([H:14])([H:15])[C@:6]1([C:7]([H:17])([H:18])[H:19])[H:16])([H:11])[H:12])([H:8])([H:9])[H:10]>>[C:1]([C:2]([O:3][C:5]([C@:6]([C:4][H:13])([C:7]([H:17])([H:18])[H:19])[H:16])([H:14])[H:15])([H:11])[H:12])([H:8])([H:9])[H:10]"
C        2.64295082       0.57019850       0.77232218
C        1.67017291      -0.07308809      -0.18849117
O        0.59643017      -0.64339261       0.53416795
C       -0.46350594      -1.24801481      -0.36570815
C       -1.09073766      -0.23299107       1.02207535
C       -1.76321110      -0.49648528      -0.28013391
C       -2.02429592       0.66387739      -1.20821843
H        3.01673608      -0.15904386       1.49217372
H        2.16751951       1.38357782       1.32316308
H        3.49465328       0.97545556       0.22338681
H        2.13598929      -0.89428077      -0.74391709
H        1.28945291       0.64321284      -0.92397351
H       -0.43347681      -2.33019569      -0.25082150
H       -0.88257261       0.81846865       1.20901888
H       -1.46166939      -0.70881245       1.92481751
H       -2.61781291      -1.17031467      -0.19807644
H       -2.17087467       0.32156073      -2.23429016
H       -2.91798483       1.21637056      -0.90473186
H       -1.18776314       1.36389725      -1.20276326
19
Frame=14 idx=009424 GeodesicLength=0.5924995358856332 rxn_smarts="[C:1]([C:2]([O:3][C@@:4]1([H:13])[C:5]([H:14])([H:15])[C@:6]1([C:7]([H:17])([H:18])[H:19])[H:16])([H:11])[H:12])([H:8])([H:9])[H:10]>>[C:1]([C:2]([O:3][C:5]([C@:6]([C:4][H:13])([C:7]([H:17])([H:18])[H:19])[H:16])([H:14])[H:15])([H:11])[H:12])([H:8])([H:9])[H:10]"
C        2.63898839       0.58010667       0.76693709
C        1.67899316      -0.08809781      -0.18963945
O        0.59774809      -0.64301469       0.53386006
C       -0.46554018      -1.24301962      -0.36046030
C       -1.08809883      -0.24732431       1.02463050
C       -1.76595489      -0.49763720      -0.28259981
C       -2.02446210       0.67185547      -1.19922227
H        3.00720040      -0.13119852       1.50733515
H        2.15528147       1.40440269       1.29372807
H        3.49561591       0.97483359       0.21801791
H        2.15475310      -0.92104786      -0.71832573
H        1.30479817       0.60776643      -0.94744999
H       -0.42506726      -2.32738740      -0.27645493
H       -0.88896295       0.80579799       1.21321500
H       -1.47586379      -0.71157010       1.92695091
H       -2.62276946      -1.16946653      -0.20595546
H       -2.17020389       0.34189629      -2.22955219
H       -2.91847086       1.22135025      -0.89136903
H       -1.18798448       1.37175467      -1.18364554
19
Frame=15 idx=009424 GeodesicLength=0.6333039880537333 rxn_smarts="[C:1]([C:2]([O:3][C@@:4]1([H:13])[C:5]([H:14])([H:15])[C@:6]1([C:7]([H:17])([H:18])[H:19])[H:16])([H:11])[H:12])([H:8])([H:9])[H:10]>>[C:1]([C:2]([O:3][C:5]([C@:6]([C:4][H:13])([C:7]([H:17])([H:18])[H:19])[H:16])([H:14])[H:15])([H:11])[H:12])([H:8])([H:9])[H:10]"
C        2.63498137       0.58995472       0.76108623
C        1.68761603      -0.10306450      -0.19033503
O        0.59889503      -0.64243105       0.53377570
C       -0.46751554      -1.23818853      -0.35500894
C       -1.08572949      -0.26177996       1.02731307
C       -1.76855160      -0.49878882      -0.28509603
C       -2.02434310       0.67975521      -1.19016897
H        2.99758591      -0.10299601       1.52140624
H        2.14334727       1.42453886       1.26367322
H        3.49640879       0.97423689       0.21229906
H        2.17293195      -0.94709226      -0.69189801
H        1.32010408       0.57171696      -0.96987767
H       -0.41637392      -2.32380020      -0.30254024
H       -0.89573023       0.79294331       1.21762184
H       -1.49034233      -0.71423524       1.92887514
H       -2.62760237      -1.16855527      -0.21405525
H       -2.16911299       0.36222764      -2.22463249
H       -2.91870068       1.22623472      -0.87810271
H       -1.18786820       1.37932351      -1.16433516
19
Frame=16 idx=009424 GeodesicLength=0.6741017613097591 rxn_smarts="[C:1]([C:2]([O:3][C@@:4]1([H:13])[C:5]([H:14])([H:15])[C@:6]1([C:7]([H:17])([H:18])[H:19])[H:16])([H:11])[H:12])([H:8])([H:9])[H:10]>>[C:1]([C:2]([O:3][C:5]([C@:6]([C:4][H:13])([C:7]([H:17])([H:18])[H:19])[H:16])([H:14])[H:15])([H:11])[H:12])([H:8])([H:9])[H:10]"
C        2.63073466       0.59993652       0.75466137
C        1.69608521      -0.11822246      -0.19059120
O        0.59987850      -0.64182393       0.53388479
C       -0.46946669      -1.23360379      -0.34941593
C       -1.08359255      -0.27652288       1.03014998
C       -1.77097090      -0.49990958      -0.28762721
C       -2.02381833       0.68773845      -1.18091755
H        2.98763299      -0.07391703       1.53461228
H        2.13131092       1.44431003       1.23249536
H        3.49690189       0.97374005       0.20612521
H        2.19073867      -0.97274381      -0.66431048
H        1.33546685       0.53454811      -0.99151962
H       -0.40747129      -2.31945752      -0.32926835
H       -0.90275528       0.77970387       1.22237803
H       -1.50508946      -0.71707027       1.93055973
H       -2.63233469      -1.16748603      -0.22245953
H       -2.16748885       0.38286186      -2.21943191
H       -2.91851473       1.23122097      -0.86472843
H       -1.18724693       1.38669744      -1.14459655
