13
Frame=0 idx=009669 GeodesicLength=0.0 rxn_smarts="[O:1]([C@@:2]1([H:9])[C@@:3]2([H:10])[O:4][C@:5]1([H:11])[C:6]([H:12])=[C:7]2[H:13])[H:8]>>[O:1]([C@@:2]([C:3]1([H:10])[C:6]([H:12])=[C:7]1[H:13])([C:5](=[O:4])[H:11])[H:9])[H:8]"
O        2.07328741      -0.06290449       0.77954944
C        0.76124220      -0.45673934       0.48607454
C       -0.14910433       0.71546326       0.74169925
O        1.61490633      -0.77140788      -1.69274113
C        0.71640054      -1.03347615      -0.93722632
C       -1.94527986       0.02510753      -0.66377754
C       -1.37080317       0.97695605       0.21833820
H        2.53049091      -0.02085666      -0.07348752
H        0.45899769      -1.25996771       1.17325622
H        0.28257104       1.39933935       1.47110155
H       -0.11125669      -1.69671469      -1.19922102
H       -2.99579877       0.29636454      -0.85999612
H       -1.86565332       1.88883618       0.55643043
13
Frame=1 idx=009669 GeodesicLength=0.1405539655975381 rxn_smarts="[O:1]([C@@:2]1([H:9])[C@@:3]2([H:10])[O:4][C@:5]1([H:11])[C:6]([H:12])=[C:7]2[H:13])[H:8]>>[O:1]([C@@:2]([C:3]1([H:10])[C:6]([H:12])=[C:7]1[H:13])([C:5](=[O:4])[H:11])[H:9])[H:8]"
O        2.07257296      -0.14166895       0.81724498
C        0.74918617      -0.46678640       0.49561620
C       -0.11172326       0.75616972       0.67800126
O        1.54013536      -0.63945036      -1.70904044
C        0.69135621      -1.01980839      -0.93613930
C       -1.89589955       0.03809903      -0.66866203
C       -1.38773182       0.97329079       0.25638181
H        2.54183909      -0.06952906      -0.02670181
H        0.39472268      -1.25072800       1.17843066
H        0.34583305       1.47118974       1.36105483
H       -0.07697651      -1.75364204      -1.18799810
H       -2.95711415       0.24362932      -0.88147083
H       -1.90620023       1.85923460       0.62328277
13
Frame=2 idx=009669 GeodesicLength=0.28206592059448754 rxn_smarts="[O:1]([C@@:2]1([H:9])[C@@:3]2([H:10])[O:4][C@:5]1([H:11])[C:6]([H:12])=[C:7]2[H:13])[H:8]>>[O:1]([C@@:2]([C:3]1([H:10])[C:6]([H:12])=[C:7]1[H:13])([C:5](=[O:4])[H:11])[H:9])[H:8]"
O        2.06594220      -0.20638389       0.84723577
C        0.73612405      -0.47592766       0.50490201
C       -0.08260515       0.78514538       0.62026419
O        1.47046649      -0.52999565      -1.71164520
C        0.66661612      -1.00762810      -0.93432670
C       -1.85121671       0.05369625      -0.67037097
C       -1.39940195       0.96611087       0.29310814
H        2.54518700      -0.10432233       0.01253754
H        0.34042786      -1.24166921       1.18414501
H        0.40077171       1.53060940       1.25149073
H       -0.04032389      -1.80142495      -1.18165612
H       -2.91717474       0.20374617      -0.90397498
H       -1.93481298       1.82804373       0.68829057
13
Frame=3 idx=009669 GeodesicLength=0.42506242992705257 rxn_smarts="[O:1]([C@@:2]1([H:9])[C@@:3]2([H:10])[O:4][C@:5]1([H:11])[C:6]([H:12])=[C:7]2[H:13])[H:8]>>[O:1]([C@@:2]([C:3]1([H:10])[C:6]([H:12])=[C:7]1[H:13])([C:5](=[O:4])[H:11])[H:9])[H:8]"
O        2.05988151      -0.25483078       0.86550678
C        0.72544759      -0.48423691       0.51530183
C       -0.06168650       0.80269947       0.57194530
O        1.39431627      -0.43914145      -1.70926749
C        0.63852305      -1.00017881      -0.92893430
C       -1.81806903       0.05441718      -0.65156419
C       -1.40947973       0.95199291       0.33340461
H        2.54233976      -0.12128746       0.03766695
H        0.30329987      -1.23345751       1.19560884
H        0.44513569       1.57801215       1.14659497
H       -0.00183866      -1.85003702      -1.16909621
H       -2.85993847       0.20498602      -0.96316068
H       -1.95793133       1.79106219       0.75599359
13
Frame=4 idx=009669 GeodesicLength=0.5678110381559889 rxn_smarts="[O:1]([C@@:2]1([H:9])[C@@:3]2([H:10])[O:4][C@:5]1([H:11])[C:6]([H:12])=[C:7]2[H:13])[H:8]>>[O:1]([C@@:2]([C:3]1([H:10])[C:6]([H:12])=[C:7]1[H:13])([C:5](=[O:4])[H:11])[H:9])[H:8]"
O        2.05147472      -0.29842052       0.88125413
C        0.71406703      -0.49218876       0.52425932
C       -0.04513037       0.81490693       0.52811619
O        1.32260550      -0.35991932      -1.70246626
C        0.61083150      -0.99256623      -0.92476618
C       -1.78795017       0.05582929      -0.63195908
C       -1.41476585       0.94245670       0.36609031
H        2.53736629      -0.13168376       0.06202913
H        0.26936455      -1.22669237       1.20501020
H        0.48139699       1.61434078       1.04973125
H        0.04110885      -1.89170044      -1.16167751
H       -2.80788713       0.20467686      -1.00926728
H       -1.97248190       1.76096084       0.81364579
13
Frame=5 idx=009669 GeodesicLength=0.7108316819311826 rxn_smarts="[O:1]([C@@:2]1([H:9])[C@@:3]2([H:10])[O:4][C@:5]1([H:11])[C:6]([H:12])=[C:7]2[H:13])[H:8]>>[O:1]([C@@:2]([C:3]1([H:10])[C:6]([H:12])=[C:7]1[H:13])([C:5](=[O:4])[H:11])[H:9])[H:8]"
O        2.03927526      -0.34224402       0.89766861
C        0.70056323      -0.49967054       0.53074497
C       -0.03009005       0.82527726       0.48652557
O        1.25931523      -0.28843681      -1.69247157
C        0.58434434      -0.98282899      -0.92365682
C       -1.75750751       0.06501895      -0.61909110
C       -1.41535642       0.94136998       0.38876292
H        2.53158678      -0.14093682       0.09064360
H        0.23265040      -1.22061300       1.20944341
H        0.51353080       1.64191357       0.96200732
H        0.08791282      -1.92355941      -1.16275558
H       -2.76691851       0.18370412      -1.02731525
H       -1.97930639       1.74100570       0.85949391
13
Frame=6 idx=009669 GeodesicLength=0.8538258350776806 rxn_smarts="[O:1]([C@@:2]1([H:9])[C@@:3]2([H:10])[O:4][C@:5]1([H:11])[C:6]([H:12])=[C:7]2[H:13])[H:8]>>[O:1]([C@@:2]([C:3]1([H:10])[C:6]([H:12])=[C:7]1[H:13])([C:5](=[O:4])[H:11])[H:9])[H:8]"
O        2.02608986      -0.38295459       0.91127719
C        0.68691506      -0.50641754       0.53604147
C       -0.01708764       0.83316900       0.44769703
O        1.19800320      -0.22585749      -1.68148507
C        0.55707597      -0.97411273      -0.92278998
C       -1.72993844       0.07367649      -0.60427085
C       -1.41440914       0.94241994       0.40886355
H        2.52473232      -0.14670253       0.11830074
H        0.19864046      -1.21423917       1.21330692
H        0.54165095       1.66369885       0.87951052
H        0.13828764      -1.95092379      -1.16497988
H       -2.72688885       0.16501344      -1.04406161
H       -1.98307137       1.72323012       0.90258996
13
Frame=7 idx=009669 GeodesicLength=0.996816661107494 rxn_smarts="[O:1]([C@@:2]1([H:9])[C@@:3]2([H:10])[O:4][C@:5]1([H:11])[C:6]([H:12])=[C:7]2[H:13])[H:8]>>[O:1]([C@@:2]([C:3]1([H:10])[C:6]([H:12])=[C:7]1[H:13])([C:5](=[O:4])[H:11])[H:9])[H:8]"
O        2.01192124      -0.42158535       0.92282331
C        0.67302061      -0.51250976       0.54014404
C       -0.00553335       0.83935649       0.41077328
O        1.13885950      -0.17095945      -1.67024775
C        0.52907300      -0.96647429      -0.92227355
C       -1.70455540       0.08276844      -0.58888495
C       -1.41224748       0.94551003       0.42664574
H        2.51714905      -0.15013807       0.14605021
H        0.16631276      -1.20739008       1.21650579
H        0.56670539       1.68097972       0.80127924
H        0.19199897      -1.97342449      -1.16834869
H       -2.68834855       0.14676938      -1.05813285
H       -1.98435574       1.70709743       0.94366617
13
Frame=8 idx=009669 GeodesicLength=1.1397706330201922 rxn_smarts="[O:1]([C@@:2]1([H:9])[C@@:3]2([H:10])[O:4][C@:5]1([H:11])[C:6]([H:12])=[C:7]2[H:13])[H:8]>>[O:1]([C@@:2]([C:3]1([H:10])[C:6]([H:12])=[C:7]1[H:13])([C:5](=[O:4])[H:11])[H:9])[H:8]"
O        1.99682632      -0.45869658       0.93280603
C        0.65886747      -0.51803098       0.54314530
C        0.00498005       0.84428895       0.37516021
O        1.08182454      -0.12283523      -1.65933876
C        0.50032929      -0.96007307      -0.92210863
C       -1.68096796       0.09266561      -0.57363751
C       -1.40907552       0.95043613       0.44236313
H        2.50902183      -0.15187499       0.17457909
H        0.13512562      -1.19994362       1.21916719
H        0.58941979       1.69472691       0.72638848
H        0.24856548      -1.99077187      -1.17267064
H       -2.65143980       0.12830835      -1.06936572
H       -1.98347711       1.69180038       0.98351184
13
Frame=9 idx=009669 GeodesicLength=1.2827583903215012 rxn_smarts="[O:1]([C@@:2]1([H:9])[C@@:3]2([H:10])[O:4][C@:5]1([H:11])[C:6]([H:12])=[C:7]2[H:13])[H:8]>>[O:1]([C@@:2]([C:3]1([H:10])[C:6]([H:12])=[C:7]1[H:13])([C:5](=[O:4])[H:11])[H:9])[H:8]"
O        1.98096499      -0.49447949       0.94128188
C        0.64455812      -0.52303954       0.54513215
C        0.01461643       0.84808135       0.34038117
O        1.02652449      -0.08105116      -1.64923174
C        0.47087928      -0.95521769      -0.92211694
C       -1.65897911       0.10313613      -0.55852329
C       -1.40514201       0.95664348       0.45634299
H        2.50034533      -0.15194403       0.20414742
H        0.10503993      -1.19165996       1.22151897
H        0.61003330       1.70545536       0.65413030
H        0.30725969      -2.00284463      -1.17728399
H       -2.61546091       0.11043106      -1.07888335
H       -1.98063953       1.67648912       1.02310442
13
Frame=10 idx=009669 GeodesicLength=1.4256576762764186 rxn_smarts="[O:1]([C@@:2]1([H:9])[C@@:3]2([H:10])[O:4][C@:5]1([H:11])[C:6]([H:12])=[C:7]2[H:13])[H:8]>>[O:1]([C@@:2]([C:3]1([H:10])[C:6]([H:12])=[C:7]1[H:13])([C:5](=[O:4])[H:11])[H:9])[H:8]"
O        1.96414527      -0.52949499       0.94889471
C        0.63002143      -0.52767574       0.54610393
C        0.02376546       0.85098382       0.30618812
O        0.97349469      -0.04443159      -1.63996443
C        0.44099443      -0.95160232      -0.92251565
C       -1.63807345       0.11481181      -0.54436341
C       -1.40026258       0.96440491       0.46851428
H        2.49122349      -0.15111605       0.23576929
H        0.07544507      -1.18271356       1.22323451
H        0.62926230       1.71363248       0.58394603
H        0.36722419      -2.00876395      -1.18284578
H       -2.58152869       0.09060754      -1.08465604
H       -1.97571161       1.66135765       1.06169444
13
Frame=11 idx=009669 GeodesicLength=1.5685321932028573 rxn_smarts="[O:1]([C@@:2]1([H:9])[C@@:3]2([H:10])[O:4][C@:5]1([H:11])[C:6]([H:12])=[C:7]2[H:13])[H:8]>>[O:1]([C@@:2]([C:3]1([H:10])[C:6]([H:12])=[C:7]1[H:13])([C:5](=[O:4])[H:11])[H:9])[H:8]"
O        1.94649872      -0.56384194       0.95578295
C        0.61539344      -0.53202051       0.54612980
C        0.03259937       0.85300800       0.27238808
O        0.92263460      -0.01234766      -1.63170414
C        0.41087839      -0.94921185      -0.92326095
C       -1.61800663       0.12750380      -0.53119203
C       -1.39446889       0.97338710       0.47906863
H        2.48163230      -0.14934993       0.26990706
H        0.04639295      -1.17311199       1.22436055
H        0.64735115       1.71950523       0.51542429
H        0.42711654      -2.00831629      -1.18924291
H       -2.54931819       0.06871859      -1.08689653
H       -1.96870376       1.64607744       1.09923521
13
Frame=12 idx=009669 GeodesicLength=1.7113875228382236 rxn_smarts="[O:1]([C@@:2]1([H:9])[C@@:3]2([H:10])[O:4][C@:5]1([H:11])[C:6]([H:12])=[C:7]2[H:13])[H:8]>>[O:1]([C@@:2]([C:3]1([H:10])[C:6]([H:12])=[C:7]1[H:13])([C:5](=[O:4])[H:11])[H:9])[H:8]"
O        1.92821396      -0.59753808       0.96202718
C        0.60083979      -0.53614331       0.54527565
C        0.04125237       0.85415553       0.23886914
O        0.87386089       0.01581851      -1.62460946
C        0.38076508      -0.94796938      -0.92435729
C       -1.59857117       0.14094558      -0.51900218
C       -1.38778465       0.98325002       0.48820513
H        2.47152613      -0.14647615       0.30702663
H        0.01801995      -1.16292038       1.22495114
H        0.66447072       1.72329714       0.44828394
H        0.48546768      -2.00161491      -1.19641323
H       -2.51842108       0.04477490      -1.08585506
H       -1.95963965       1.63042052       1.13559841
13
Frame=13 idx=009669 GeodesicLength=1.8542501607537853 rxn_smarts="[O:1]([C@@:2]1([H:9])[C@@:3]2([H:10])[O:4][C@:5]1([H:11])[C:6]([H:12])=[C:7]2[H:13])[H:8]>>[O:1]([C@@:2]([C:3]1([H:10])[C:6]([H:12])=[C:7]1[H:13])([C:5](=[O:4])[H:11])[H:9])[H:8]"
O        1.90961409      -0.63041440       0.96749000
C        0.58658800      -0.54006148       0.54361247
C        0.04975349       0.85438129       0.20547671
O        0.82690825       0.04042662      -1.61889308
C        0.35082378      -0.94789876      -0.92572886
C       -1.57968353       0.15459780      -0.50756639
C       -1.38027918       0.99350371       0.49614582
H        2.46079530      -0.14199069       0.34747787
H       -0.00933569      -1.15213298       1.22520210
H        0.68059633       1.72522879       0.38216125
H        0.54083203      -1.98935749      -1.20393295
H       -2.48800637       0.01995427      -1.08264735
H       -1.94860650       1.61376333       1.17120242
13
Frame=14 idx=009669 GeodesicLength=1.9970906932486627 rxn_smarts="[O:1]([C@@:2]1([H:9])[C@@:3]2([H:10])[O:4][C@:5]1([H:11])[C:6]([H:12])=[C:7]2[H:13])[H:8]>>[O:1]([C@@:2]([C:3]1([H:10])[C:6]([H:12])=[C:7]1[H:13])([C:5](=[O:4])[H:11])[H:9])[H:8]"
O        1.89091173      -0.66257061       0.97215306
C        0.57279446      -0.54387535       0.54113042
C        0.05821336       0.85369524       0.17229255
O        0.78179824       0.06228045      -1.61451090
C        0.32130298      -0.94866529      -0.92750011
C       -1.56113512       0.16838864      -0.49692561
C       -1.37193330       1.00393492       0.50313992
H        2.44929178      -0.13592144       0.39185197
H       -0.03552824      -1.14101189       1.22495154
H        0.69587099       1.72539857       0.31716072
H        0.59224811      -1.97195397      -1.21217999
H       -2.45815284      -0.00639529      -1.07665833
H       -1.93568216       1.59669601       1.20509476
13
Frame=15 idx=009669 GeodesicLength=2.1399876381754344 rxn_smarts="[O:1]([C@@:2]1([H:9])[C@@:3]2([H:10])[O:4][C@:5]1([H:11])[C:6]([H:12])=[C:7]2[H:13])[H:8]>>[O:1]([C@@:2]([C:3]1([H:10])[C:6]([H:12])=[C:7]1[H:13])([C:5](=[O:4])[H:11])[H:9])[H:8]"
O        1.87248273      -0.69378638       0.97570243
C        0.55967562      -0.54761591       0.53786839
C        0.06658199       0.85201355       0.13926495
O        0.73816581       0.08166053      -1.61154286
C        0.29227884      -0.95024329      -0.92958571
C       -1.54290626       0.18178998      -0.48672184
C       -1.36281413       1.01407233       0.50950547
H        2.43671876      -0.12790560       0.44048456
H       -0.06014571      -1.12963836       1.22437042
H        0.71016361       1.72391154       0.25302441
H        0.63906484      -1.95037180      -1.22091549
H       -2.42826090      -0.03291371      -1.06885748
H       -1.92100520       1.57902711       1.23740277
13
Frame=16 idx=009669 GeodesicLength=2.282982243444978 rxn_smarts="[O:1]([C@@:2]1([H:9])[C@@:3]2([H:10])[O:4][C@:5]1([H:11])[C:6]([H:12])=[C:7]2[H:13])[H:8]>>[O:1]([C@@:2]([C:3]1([H:10])[C:6]([H:12])=[C:7]1[H:13])([C:5](=[O:4])[H:11])[H:9])[H:8]"
O        1.85468561      -0.72389744       0.97784296
C        0.54740595      -0.55132282       0.53382086
C        0.07484778       0.84931498       0.10633123
O        0.69573246       0.09886903      -1.61003762
C        0.26379828      -0.95255948      -0.93197640
C       -1.52494610       0.19448590      -0.47675702
C       -1.35294117       1.02362706       0.51544838
H        2.42268037      -0.11775407       0.49391460
H       -0.08287041      -1.11812538       1.22353892
H        0.72343028       1.72087898       0.18957037
H        0.68098819      -1.92550973      -1.23010210
H       -2.39817997      -0.05875142      -1.05975160
H       -1.90463127       1.56074441       1.26815739
