17
Frame=0 idx=011524 GeodesicLength=0.0 rxn_smarts="[C:1]([C@@:2]1([H:11])[N:3]([H:12])[C@:4]1([C@@:5]1([H:14])[C:6]([H:15])([H:16])[N:7]1[H:17])[H:13])([H:8])([H:9])[H:10]>>[C:1]1([H:9])([H:10])[C@:2]([N:3]([H:8])[H:12])([H:11])[C@:4]1([C@@:5]1([H:14])[C:6]([H:15])([H:16])[N:7]1[H:17])[H:13]"
C       -2.00030818      -0.28925884      -0.03340444
C       -0.86881618      -0.15077089      -1.02018389
N       -0.70559758       1.29910106      -1.11664346
C        0.26788160      -0.92325833      -0.59067235
C        1.16352057      -0.71929109       0.53374732
C        2.02317262       0.51666490       0.61603028
N        0.97750486       0.28185541       1.57981049
H       -1.97368882       1.02763881      -0.49357873
H       -1.72685984      -0.24830544       1.02150499
H       -2.82977872      -0.96826434      -0.23141456
H       -1.20381582      -0.51687172      -1.99212864
H       -0.31353707       1.63638062      -0.23860546
H        0.49647888      -1.82623120      -1.15415803
H        1.62504164      -1.63182471       0.89646702
H        3.03434140       0.40498438       0.98945129
H        1.86984626       1.25075299      -0.16701135
H        0.16461446       0.85669839       1.40078954
17
Frame=1 idx=011524 GeodesicLength=0.09688345011693295 rxn_smarts="[C:1]([C@@:2]1([H:11])[N:3]([H:12])[C@:4]1([C@@:5]1([H:14])[C:6]([H:15])([H:16])[N:7]1[H:17])[H:13])([H:8])([H:9])[H:10]>>[C:1]1([H:9])([H:10])[C@:2]([N:3]([H:8])[H:12])([H:11])[C@:4]1([C@@:5]1([H:14])[C:6]([H:15])([H:16])[N:7]1[H:17])[H:13]"
C       -1.98908802      -0.30324478      -0.02993276
C       -0.88363494      -0.15441431      -1.03911241
N       -0.69176815       1.28894429      -1.11359083
C        0.25777105      -0.90594827      -0.59028190
C        1.15219268      -0.71393608       0.53951878
C        2.03074699       0.50657310       0.61877188
N        0.97959804       0.29125305       1.58291794
H       -1.98379298       1.03563334      -0.50789753
H       -1.71634884      -0.24630503       1.02388482
H       -2.80723904      -0.99964625      -0.21316297
H       -1.22125569      -0.52167691      -2.00853153
H       -0.33652382       1.64752417      -0.22966420
H        0.50540611      -1.79631167      -1.16649889
H        1.59597972      -1.63372003       0.90654022
H        3.03999888       0.38309510       0.99369599
H        1.89113137       1.24396968      -0.16379770
H        0.17682662       0.87821060       1.39714110
17
Frame=2 idx=011524 GeodesicLength=0.1937246463942824 rxn_smarts="[C:1]([C@@:2]1([H:11])[N:3]([H:12])[C@:4]1([C@@:5]1([H:14])[C:6]([H:15])([H:16])[N:7]1[H:17])[H:13])([H:8])([H:9])[H:10]>>[C:1]1([H:9])([H:10])[C@:2]([N:3]([H:8])[H:12])([H:11])[C@:4]1([C@@:5]1([H:14])[C:6]([H:15])([H:16])[N:7]1[H:17])[H:13]"
C       -1.97764978      -0.31772825      -0.02657572
C       -0.89836816      -0.15780141      -1.05734351
N       -0.67841450       1.27861351      -1.10937084
C        0.24775567      -0.88837087      -0.58999197
C        1.14095625      -0.70835032       0.54516085
C        2.03844684       0.49619204       0.62148945
N        0.98182530       0.30093349       1.58570312
H       -1.99432733       1.04377013      -0.52227283
H       -1.70626223      -0.24477650       1.02609042
H       -2.78369547      -1.03136049      -0.19564992
H       -1.23848000      -0.52580969      -2.02447453
H       -0.36028007       1.65886878      -0.22155487
H        0.51378401      -1.76614605      -1.17804975
H        1.56654944      -1.63517382       0.91659364
H        3.04550695       0.36069745       0.99818645
H        1.91304435       1.23640824      -0.16090437
H        0.18960872       0.90003375       1.39296439
17
Frame=3 idx=011524 GeodesicLength=0.2905747035005879 rxn_smarts="[C:1]([C@@:2]1([H:11])[N:3]([H:12])[C@:4]1([C@@:5]1([H:14])[C:6]([H:15])([H:16])[N:7]1[H:17])[H:13])([H:8])([H:9])[H:10]>>[C:1]1([H:9])([H:10])[C@:2]([N:3]([H:8])[H:12])([H:11])[C@:4]1([C@@:5]1([H:14])[C:6]([H:15])([H:16])[N:7]1[H:17])[H:13]"
C       -1.96597737      -0.33272226      -0.02332949
C       -0.91298316      -0.16087163      -1.07482628
N       -0.66565563       1.26819408      -1.10397431
C        0.23784990      -0.87054308      -0.58978059
C        1.12983247      -0.70253963       0.55068483
C        2.04627939       0.48550320       0.62419067
N        0.98419146       0.31091522       1.58814454
H       -2.00534453       1.05210371      -0.53671637
H       -1.69660483      -0.24376402       1.02813064
H       -2.75909548      -1.06345221      -0.17892826
H       -1.25547563      -0.52924362      -2.03989028
H       -0.38476859       1.67038516      -0.21432823
H        0.52159486      -1.73578702      -1.18885186
H        1.53673333      -1.63614468       0.92666315
H        3.05085331       0.33779352       1.00296010
H        1.93557674       1.22799903      -0.15834837
H        0.20299377       0.92217422       1.38820011
17
Frame=4 idx=011524 GeodesicLength=0.3874723841256056 rxn_smarts="[C:1]([C@@:2]1([H:11])[N:3]([H:12])[C@:4]1([C@@:5]1([H:14])[C:6]([H:15])([H:16])[N:7]1[H:17])[H:13])([H:8])([H:9])[H:10]>>[C:1]1([H:9])([H:10])[C@:2]([N:3]([H:8])[H:12])([H:11])[C@:4]1([C@@:5]1([H:14])[C:6]([H:15])([H:16])[N:7]1[H:17])[H:13]"
C       -1.95405648      -0.34823162      -0.02018485
C       -0.92745407      -0.16357550      -1.09151142
N       -0.65360776       1.25776881      -1.09741281
C        0.22806767      -0.85248653      -0.58962003
C        1.11884391      -0.69651095       0.55610514
C        2.05424753       0.47449262       0.62688605
N        0.98670642       0.32121352       1.59023034
H       -2.01689405       1.06068983      -0.55126152
H       -1.68737948      -0.24331400       1.03001843
H       -2.73341688      -1.09593266      -0.16305377
H       -1.27223431      -0.53196393      -2.05471208
H       -0.40994635       1.68203035      -0.20801694
H        0.52883726      -1.70528493      -1.19894724
H        1.50654321      -1.63659807       0.93677284
H        3.05602658       0.31439618       1.00804756
H        1.95870646       1.21868075      -0.15613979
H        0.21701034       0.94462612       1.38280009
17
Frame=5 idx=011524 GeodesicLength=0.4844594147063892 rxn_smarts="[C:1]([C@@:2]1([H:11])[N:3]([H:12])[C@:4]1([C@@:5]1([H:14])[C:6]([H:15])([H:16])[N:7]1[H:17])[H:13])([H:8])([H:9])[H:10]>>[C:1]1([H:9])([H:10])[C@:2]([N:3]([H:8])[H:12])([H:11])[C@:4]1([C@@:5]1([H:14])[C:6]([H:15])([H:16])[N:7]1[H:17])[H:13]"
C       -1.94187775      -0.36425494      -0.01712551
C       -0.94175771      -0.16586822      -1.10736073
N       -0.64238040       1.24741485      -1.08969361
C        0.21841836      -0.83422337      -0.58948600
C        1.10800922      -0.69027038       0.56143415
C        2.06234669       0.46314243       0.62958597
N        0.98937682       0.33183937       1.59194044
H       -2.02902621       1.06958711      -0.56593186
H       -1.67857928      -0.24347873       1.03177559
H       -2.70662102      -1.12880614      -0.14805964
H       -1.28875293      -0.53396899      -2.06888380
H       -0.43575663       1.69374608      -0.20267415
H        0.53553030      -1.67465089      -1.20840903
H        1.47597779      -1.63648308       0.94697227
H        3.06100214       0.29050874       1.01348711
H        1.98240275       1.20838773      -0.15428325
H        0.23168785       0.96737844       1.37671204
17
Frame=6 idx=011524 GeodesicLength=0.5815427495031612 rxn_smarts="[C:1]([C@@:2]1([H:11])[N:3]([H:12])[C@:4]1([C@@:5]1([H:14])[C:6]([H:15])([H:16])[N:7]1[H:17])[H:13])([H:8])([H:9])[H:10]>>[C:1]1([H:9])([H:10])[C@:2]([N:3]([H:8])[H:12])([H:11])[C@:4]1([C@@:5]1([H:14])[C:6]([H:15])([H:16])[N:7]1[H:17])[H:13]"
C       -1.92943498      -0.38077652      -0.01414135
C       -0.95588372      -0.16772688      -1.12233479
N       -0.63206777       1.23720583      -1.08086892
C        0.20891202      -0.81578208      -0.58934755
C        1.09734745      -0.68382758       0.56668750
C        2.07056836       0.45144519       0.63230460
N        0.99221550       0.34279724       1.59327511
H       -2.04177251       1.07885502      -0.58079737
H       -1.67019842      -0.24429689       1.03341549
H       -2.67870184      -1.16204693      -0.13398232
H       -1.30503791      -0.53526474      -2.08234789
H       -0.46215167       1.70547558      -0.19828318
H        0.54169363      -1.64392251      -1.21727334
H        1.44507817      -1.63577505       0.95726250
H        3.06576643       0.26616572       1.01929860
H        2.00662028       1.19707428      -0.15277763
H        0.24704698       0.99040033       1.36991053
17
Frame=7 idx=011524 GeodesicLength=0.6787724466051146 rxn_smarts="[C:1]([C@@:2]1([H:11])[N:3]([H:12])[C@:4]1([C@@:5]1([H:14])[C:6]([H:15])([H:16])[N:7]1[H:17])[H:13])([H:8])([H:9])[H:10]>>[C:1]1([H:9])([H:10])[C@:2]([N:3]([H:8])[H:12])([H:11])[C@:4]1([C@@:5]1([H:14])[C:6]([H:15])([H:16])[N:7]1[H:17])[H:13]"
C       -1.91671754      -0.39778927      -0.01121010
C       -0.96982917      -0.16914000      -1.13639618
N       -0.62274851       1.22720348      -1.07097513
C        0.19955511      -0.79718774      -0.58917773
C        1.08687690      -0.67719327       0.57187921
C        2.07889700       0.43939093       0.63505580
N        0.99523552       0.35408752       1.59423368
H       -2.05516498       1.08856530      -0.59595820
H       -1.66222394      -0.24580815       1.03496642
H       -2.64965148      -1.19561863      -0.12084552
H       -1.32110457      -0.53586895      -2.09505178
H       -0.48907970       1.71715210      -0.19483371
H        0.54736150      -1.61310032      -1.22559959
H        1.41388330      -1.63443662       0.96765809
H        3.07029858       0.24138999       1.02550043
H        2.03130445       1.18469674      -0.15161395
H        0.26310753       1.01365692       1.36236826
17
Frame=8 idx=011524 GeodesicLength=0.7761511673719295 rxn_smarts="[C:1]([C@@:2]1([H:11])[N:3]([H:12])[C@:4]1([C@@:5]1([H:14])[C:6]([H:15])([H:16])[N:7]1[H:17])[H:13])([H:8])([H:9])[H:10]>>[C:1]1([H:9])([H:10])[C@:2]([N:3]([H:8])[H:12])([H:11])[C@:4]1([C@@:5]1([H:14])[C:6]([H:15])([H:16])[N:7]1[H:17])[H:13]"
C       -1.90371645      -0.41527289      -0.00830751
C       -0.98360170      -0.17010390      -1.14952489
N       -0.61449150       1.21746384      -1.06006330
C        0.19035186      -0.77846828      -0.58894798
C        1.07661423      -0.67037395       0.57702082
C        2.08731452       0.42697606       0.63785429
N        0.99845317       0.36570197       1.59481332
H       -2.06921863       1.09877644      -0.61151924
H       -1.65463821      -0.24805324       1.03646039
H       -2.61947423      -1.22946103      -0.10865638
H       -1.33697452      -0.53580093      -2.10696613
H       -0.51649163       1.72870008      -0.19229814
H        0.55257342      -1.58218464      -1.23343739
H        1.38244718      -1.63243231       0.97816813
H        3.07457328       0.21621512       1.03211321
H        2.05639252       1.17121959      -0.15077713
H        0.27988667       1.03709806       1.35406794
17
Frame=9 idx=011524 GeodesicLength=0.873665833870253 rxn_smarts="[C:1]([C@@:2]1([H:11])[N:3]([H:12])[C@:4]1([C@@:5]1([H:14])[C:6]([H:15])([H:16])[N:7]1[H:17])[H:13])([H:8])([H:9])[H:10]>>[C:1]1([H:9])([H:10])[C@:2]([N:3]([H:8])[H:12])([H:11])[C@:4]1([C@@:5]1([H:14])[C:6]([H:15])([H:16])[N:7]1[H:17])[H:13]"
C       -1.89042671      -0.43317767      -0.00540345
C       -0.99720932      -0.17067181      -1.16170471
N       -0.60732745       1.20793585      -1.04823273
C        0.18129338      -0.75966756      -0.58860994
C        1.06657785      -0.66338286       0.58213435
C        2.09579455       0.41423012       0.64069003
N        1.00191910       0.37763670       1.59503730
H       -2.08390633       1.10950743      -0.62776918
H       -1.64740490      -0.25108152       1.03790930
H       -2.58831580      -1.26330721      -0.09741912
H       -1.35261160      -0.53507150      -2.11810870
H       -0.54447935       1.74005360      -0.19037118
H        0.55735266      -1.55123073      -1.24077174
H        1.35097537      -1.62981749       0.98876950
H        3.07857519       0.19071986       1.03907113
H        2.08179984       1.15666249      -0.15023440
H        0.29739352       1.06066230       1.34501353
17
Frame=10 idx=011524 GeodesicLength=0.9713172801452676 rxn_smarts="[C:1]([C@@:2]1([H:11])[N:3]([H:12])[C@:4]1([C@@:5]1([H:14])[C:6]([H:15])([H:16])[N:7]1[H:17])[H:13])([H:8])([H:9])[H:10]>>[C:1]1([H:9])([H:10])[C@:2]([N:3]([H:8])[H:12])([H:11])[C@:4]1([C@@:5]1([H:14])[C:6]([H:15])([H:16])[N:7]1[H:17])[H:13]"
C       -1.87684492      -0.45151469      -0.00249849
C       -1.01066674      -0.17081340      -1.17291801
N       -0.60131957       1.19874683      -1.03547929
C        0.17238808      -0.74078345      -0.58816079
C        1.05677948      -0.65622079       0.58721899
C        2.10432210       0.40113832       0.64358966
N        1.00561748       0.38988307       1.59488976
H       -2.09921920       1.12088541      -0.64466579
H       -1.64050051      -0.25492766       1.03934588
H       -2.55609839      -1.29733331      -0.08714271
H       -1.36810229      -0.53373948      -2.12839937
H       -0.57284808       1.75115130      -0.18922940
H        0.56173976      -1.52016530      -1.24770561
H        1.31935326      -1.62649822       0.99951079
H        3.08228472       0.16491426       1.04643937
H        2.10748056       1.14097428      -0.14999350
H        0.31563427       1.08430282       1.33519850
17
Frame=11 idx=011524 GeodesicLength=1.0691081308438741 rxn_smarts="[C:1]([C@@:2]1([H:11])[N:3]([H:12])[C@:4]1([C@@:5]1([H:14])[C:6]([H:15])([H:16])[N:7]1[H:17])[H:13])([H:8])([H:9])[H:10]>>[C:1]1([H:9])([H:10])[C@:2]([N:3]([H:8])[H:12])([H:11])[C@:4]1([C@@:5]1([H:14])[C:6]([H:15])([H:16])[N:7]1[H:17])[H:13]"
C       -1.86296343      -0.47027047       0.00042657
C       -1.02399712      -0.17054886      -1.18315198
N       -0.59649466       1.18991906      -1.02184331
C        0.16362897      -0.72183152      -0.58757620
C        1.04722923      -0.64889453       0.59228300
C        2.11287300       0.38771033       0.64655988
N        1.00956739       0.40243402       1.59437541
H       -2.11512760       1.13298756      -0.66236720
H       -1.63389464      -0.25963431       1.04079589
H       -2.52283229      -1.33149533      -0.07782358
H       -1.38348444      -0.53184029      -2.13781102
H       -0.60155124       1.76193715      -0.18879323
H        0.56576294      -1.48896795      -1.25427543
H        1.28762030      -1.62245623       1.01039540
H        3.08568161       0.13883558       1.05421360
H        2.13336765       1.12415123      -0.15004176
H        0.33461434       1.10796455       1.32463397
17
Frame=12 idx=011524 GeodesicLength=1.1670207061956466 rxn_smarts="[C:1]([C@@:2]1([H:11])[N:3]([H:12])[C@:4]1([C@@:5]1([H:14])[C:6]([H:15])([H:16])[N:7]1[H:17])[H:13])([H:8])([H:9])[H:10]>>[C:1]1([H:9])([H:10])[C@:2]([N:3]([H:8])[H:12])([H:11])[C@:4]1([C@@:5]1([H:14])[C:6]([H:15])([H:16])[N:7]1[H:17])[H:13]"
C       -1.84878004      -0.48942951       0.00338086
C       -1.03722772      -0.16990809      -1.19240034
N       -0.59286421       1.18146078      -1.00736920
C        0.15500591      -0.70283056      -0.58683140
C        1.03793513      -0.64141252       0.59733595
C        2.12142024       0.37395800       0.64959963
N        1.01378779       0.41527801       1.59349911
H       -2.13157384       1.14590402      -0.68102785
H       -1.62755668      -0.26523646       1.04227870
H       -2.48854352      -1.36574412      -0.06945363
H       -1.39878835      -0.52941499      -2.14632800
H       -0.63055757       1.77236127      -0.18895570
H        0.56944495      -1.45762205      -1.26050926
H        1.25583229      -1.61768065       1.02143183
H        3.08874920       0.11253913       1.06237457
H        2.15938445       1.10619433      -0.15036450
H        0.35433199       1.13158340       1.31333921
17
Frame=13 idx=011524 GeodesicLength=1.2650390661957909 rxn_smarts="[C:1]([C@@:2]1([H:11])[N:3]([H:12])[C@:4]1([C@@:5]1([H:14])[C:6]([H:15])([H:16])[N:7]1[H:17])[H:13])([H:8])([H:9])[H:10]>>[C:1]1([H:9])([H:10])[C@:2]([N:3]([H:8])[H:12])([H:11])[C@:4]1([C@@:5]1([H:14])[C:6]([H:15])([H:16])[N:7]1[H:17])[H:13]"
C       -1.83428953      -0.50897675       0.00638717
C       -1.05039127      -0.16891840      -1.20065825
N       -0.59043209       1.17337584      -0.99207370
C        0.14650236      -0.68379682      -0.58590028
C        1.02890053      -0.63378018       0.60238467
C        2.12993602       0.35989299       0.65271149
N        1.01829914       0.42839906       1.59226393
H       -2.14849001       1.15971673      -0.70082712
H       -1.62145476      -0.27177725       1.04382804
H       -2.45323718      -1.40004114      -0.06201145
H       -1.41405143      -0.52648633      -2.15394788
H       -0.65984796       1.78237127      -0.18963338
H        0.57280910      -1.42610089      -1.26643007
H        1.22403499      -1.61215357       1.03261890
H        3.09146691       0.08606475       1.07090846
H        2.18545757       1.08710766      -0.15094635
H        0.37478759       1.15510303       1.30132582
17
Frame=14 idx=011524 GeodesicLength=1.363160378873097 rxn_smarts="[C:1]([C@@:2]1([H:11])[N:3]([H:12])[C@:4]1([C@@:5]1([H:14])[C:6]([H:15])([H:16])[N:7]1[H:17])[H:13])([H:8])([H:9])[H:10]>>[C:1]1([H:9])([H:10])[C@:2]([N:3]([H:8])[H:12])([H:11])[C@:4]1([C@@:5]1([H:14])[C:6]([H:15])([H:16])[N:7]1[H:17])[H:13]"
C       -1.81948359      -0.52891788       0.00945600
C       -1.06352276      -0.16760748      -1.20791169
N       -0.58920572       1.16565015      -0.97596794
C        0.13810099      -0.66474652      -0.58475460
C        1.02013221      -0.62600575       0.60744186
C        2.13839506       0.34553242       0.65588732
N        1.02312417       0.44179318       1.59067449
H       -2.16579271       1.17452957      -0.72195860
H       -1.61555026      -0.27930553       1.04546638
H       -2.41694165      -1.43435076      -0.05550471
H       -1.42930777      -0.52308696      -2.16065059
H       -0.68940347       1.79192998      -0.19070599
H        0.57586330      -1.39437094      -1.27206193
H        1.19227529      -1.60587326       1.04398202
H        3.09382524       0.05946383       1.07978430
H        2.21151632       1.06689571      -0.15178155
H        0.39597534       1.17847023       1.28860523
17
Frame=15 idx=011524 GeodesicLength=1.4613653639547697 rxn_smarts="[C:1]([C@@:2]1([H:11])[N:3]([H:12])[C@:4]1([C@@:5]1([H:14])[C:6]([H:15])([H:16])[N:7]1[H:17])[H:13])([H:8])([H:9])[H:10]>>[C:1]1([H:9])([H:10])[C@:2]([N:3]([H:8])[H:12])([H:11])[C@:4]1([C@@:5]1([H:14])[C:6]([H:15])([H:16])[N:7]1[H:17])[H:13]"
C       -1.80435753      -0.54924805       0.01260404
C       -1.07665969      -0.16600758      -1.21415050
N       -0.58918705       1.15826647      -0.95904809
C        0.12977843      -0.64569458      -0.58336650
C        1.01163213      -0.61809527       0.61251834
C        2.14676982       0.33089404       0.65911821
N        1.02828532       0.45544879       1.58873214
H       -2.18336708       1.19045201      -0.74464314
H       -1.60980540      -0.28786843       1.04722538
H       -2.37967255      -1.46864075      -0.04992947
H       -1.44459372      -0.51924704      -2.16642654
H       -0.71923384       1.80099547      -0.19204459
H        0.57861529      -1.36239711      -1.27742227
H        1.16060970      -1.59883745       1.05554073
H        3.09581300       0.03278321       1.08896900
H        2.23748461       1.04556500      -0.15286437
H        0.41788857       1.20163127       1.27518762
17
Frame=16 idx=011524 GeodesicLength=1.559632354449715 rxn_smarts="[C:1]([C@@:2]1([H:11])[N:3]([H:12])[C@:4]1([C@@:5]1([H:14])[C:6]([H:15])([H:16])[N:7]1[H:17])[H:13])([H:8])([H:9])[H:10]>>[C:1]1([H:9])([H:10])[C@:2]([N:3]([H:8])[H:12])([H:11])[C@:4]1([C@@:5]1([H:14])[C:6]([H:15])([H:16])[N:7]1[H:17])[H:13]"
C       -1.78890361      -0.56997391       0.01584747
C       -1.08984346      -0.16415326      -1.21935903
N       -0.59037753       1.15119731      -0.94129733
C        0.12150857      -0.62665995      -0.58170372
C        1.00340350      -0.61005654       0.61762787
C        2.15503173       0.31599746       0.66239206
N        1.03380532       0.46935746       1.58643929
H       -2.20106705       1.20760477      -0.76911657
H       -1.60418162      -0.29752118       1.04913697
H       -2.34147358      -1.50287628      -0.04529255
H       -1.45994437      -0.51499150      -2.17126517
H       -0.74935748       1.80953217      -0.19351688
H        0.58106462      -1.33014597      -1.28252111
H        1.12911140      -1.59105183       1.06731642
H        3.09742480       0.00608184       1.09842198
H        2.26328334       1.02312829      -0.15419493
H        0.44051540       1.22453112       1.26108523
