11
Frame=0 idx=001623 GeodesicLength=0.0 rxn_smarts="[N:1]([C:2](=[O:3])[C:4]([C:5](=[O:6])[H:11])([H:9])[H:10])([H:7])[H:8]>>[H:8][H:10].[N:1](=[C:2]1\[O:3][C@:4]1([C:5](=[O:6])[H:11])[H:9])\[H:7]"
N       -1.78724346       0.20657297       0.45564262
C       -0.94812590       0.01166058      -0.48499980
O       -0.77796409       0.08802576      -1.73436917
C        0.38987928      -0.47546817      -0.16402136
C        1.55119712       0.47514798      -0.26255350
O        2.58497970       0.26505293       0.30045163
H       -2.70729388       0.52476749       0.18348574
H       -0.52338655      -0.33423580       1.46298836
H        0.59508822      -1.52789446      -0.34244884
H        0.27342792      -0.60483838       1.45833972
H        1.34944164       1.37120910      -0.87251543
11
Frame=1 idx=001623 GeodesicLength=0.09228836781431228 rxn_smarts="[N:1]([C:2](=[O:3])[C:4]([C:5](=[O:6])[H:11])([H:9])[H:10])([H:7])[H:8]>>[H:8][H:10].[N:1](=[C:2]1\[O:3][C@:4]1([C:5](=[O:6])[H:11])[H:9])\[H:7]"
N       -1.79240217       0.21100483       0.45549212
C       -0.94953926       0.01984330      -0.48440874
O       -0.76048947       0.12710772      -1.72793626
C        0.38977701      -0.46534227      -0.16434813
C        1.56602092       0.46451041      -0.27323560
O        2.60997410       0.22443839       0.25847125
H       -2.73480540       0.44686464       0.17666280
H       -0.54981031      -0.30533569       1.48235012
H        0.58474489      -1.52201695      -0.33045355
H        0.26837728      -0.58020867       1.46417641
H        1.36815241       1.37913430      -0.85677042
11
Frame=2 idx=001623 GeodesicLength=0.18444644446299896 rxn_smarts="[N:1]([C:2](=[O:3])[C:4]([C:5](=[O:6])[H:11])([H:9])[H:10])([H:7])[H:8]>>[H:8][H:10].[N:1](=[C:2]1\[O:3][C@:4]1([C:5](=[O:6])[H:11])[H:9])\[H:7]"
N       -1.79879611       0.21343319       0.45419531
C       -0.95106508       0.02760516      -0.48424497
O       -0.74322473       0.16635981      -1.72078623
C        0.38967103      -0.45511051      -0.16488883
C        1.58013363       0.45412884      -0.28362004
O        2.63274150       0.18421176       0.21602188
H       -2.75648591       0.36967414       0.17164955
H       -0.57802155      -0.27614484       1.50137445
H        0.57477433      -1.51573580      -0.31847844
H        0.26277032      -0.55475430       1.46968734
H        1.38750257       1.38633255      -0.84091003
11
Frame=3 idx=001623 GeodesicLength=0.2766615446078313 rxn_smarts="[N:1]([C:2](=[O:3])[C:4]([C:5](=[O:6])[H:11])([H:9])[H:10])([H:7])[H:8]>>[H:8][H:10].[N:1](=[C:2]1\[O:3][C@:4]1([C:5](=[O:6])[H:11])[H:9])\[H:7]"
N       -1.80632428       0.21521820       0.45188687
C       -0.95254664       0.03648043      -0.48433362
O       -0.72605904       0.20719308      -1.71272199
C        0.38938233      -0.44434503      -0.16561929
C        1.59406894       0.44350404      -0.29376926
O        2.65366363       0.14306920       0.17286196
H       -2.77343784       0.28852500       0.16833462
H       -0.60807375      -0.24536553       1.52014869
H        0.56418228      -1.50876066      -0.30652775
H        0.25647058      -0.52791045       1.47491149
H        1.40867378       1.39239171      -0.82517172
11
Frame=4 idx=001623 GeodesicLength=0.3689310924261614 rxn_smarts="[N:1]([C:2](=[O:3])[C:4]([C:5](=[O:6])[H:11])([H:9])[H:10])([H:7])[H:8]>>[H:8][H:10].[N:1](=[C:2]1\[O:3][C@:4]1([C:5](=[O:6])[H:11])[H:9])\[H:7]"
N       -1.81505633       0.21439026       0.44870928
C       -0.95414419       0.04500084      -0.48464967
O       -0.70922393       0.24844342      -1.70365209
C        0.38915000      -0.43353114      -0.16653514
C        1.60747316       0.43301234      -0.30369987
O        2.67251730       0.10238074       0.12920744
H       -2.78512385       0.20867767       0.16615888
H       -0.63992477      -0.21416684       1.53869778
H        0.55399529      -1.50143871      -0.29462284
H        0.24983394      -0.50041560       1.47985058
H        1.43050338       1.39764703      -0.80946435
11
Frame=5 idx=001623 GeodesicLength=0.4611633673830967 rxn_smarts="[N:1]([C:2](=[O:3])[C:4]([C:5](=[O:6])[H:11])([H:9])[H:10])([H:7])[H:8]>>[H:8][H:10].[N:1](=[C:2]1\[O:3][C@:4]1([C:5](=[O:6])[H:11])[H:9])\[H:7]"
N       -1.82468335       0.21087032       0.44485741
C       -0.95582925       0.05288702      -0.48508945
O       -0.69278645       0.28997090      -1.69336896
C        0.38905121      -0.42279930      -0.16762261
C        1.62034067       0.42263783      -0.31349090
O        2.68932430       0.06240351       0.08505269
H       -2.79208332       0.13098540       0.16463649
H       -0.67353550      -0.18272779       1.55704396
H        0.54440523      -1.49389491      -0.28276207
H        0.24304722      -0.47246376       1.48448201
H        1.45274925       1.40213078      -0.79373858
11
Frame=6 idx=001623 GeodesicLength=0.5534384150816245 rxn_smarts="[N:1]([C:2](=[O:3])[C:4]([C:5](=[O:6])[H:11])([H:9])[H:10])([H:7])[H:8]>>[H:8][H:10].[N:1](=[C:2]1\[O:3][C@:4]1([C:5](=[O:6])[H:11])[H:9])\[H:7]"
N       -1.83507757       0.20509029       0.44045721
C       -0.95752795       0.06065369      -0.48550836
O       -0.67670573       0.33224190      -1.68165218
C        0.38906116      -0.41199112      -0.16880456
C        1.63286032       0.41227371      -0.32308193
O        2.70428469       0.02266359       0.04006539
H       -2.79484780       0.05401829       0.16347188
H       -0.70911193      -0.15079231       1.57522206
H        0.53514151      -1.48600718      -0.27088622
H        0.23611903      -0.44383458       1.48887521
H        1.47580428       1.40568371      -0.77815850
11
Frame=7 idx=001623 GeodesicLength=0.6457388499439076 rxn_smarts="[N:1]([C:2](=[O:3])[C:4]([C:5](=[O:6])[H:11])([H:9])[H:10])([H:7])[H:8]>>[H:8][H:10].[N:1](=[C:2]1\[O:3][C@:4]1([C:5](=[O:6])[H:11])[H:9])\[H:7]"
N       -1.84600315       0.19711473       0.43560209
C       -0.95922002       0.06811474      -0.48585570
O       -0.66100494       0.37517121      -1.66833280
C        0.38923782      -0.40119240      -0.17005675
C        1.64504799       0.40189991      -0.33253433
O        2.71741187      -0.01666971      -0.00581745
H       -2.79369433      -0.02175737       0.16241981
H       -0.74680367      -0.11852397       1.59321368
H        0.52633872      -1.47785806      -0.25894579
H        0.22916554      -0.41461407       1.49303498
H        1.49952417       1.40831497      -0.76272773
11
Frame=8 idx=001623 GeodesicLength=0.738011305359299 rxn_smarts="[N:1]([C:2](=[O:3])[C:4]([C:5](=[O:6])[H:11])([H:9])[H:10])([H:7])[H:8]>>[H:8][H:10].[N:1](=[C:2]1\[O:3][C@:4]1([C:5](=[O:6])[H:11])[H:9])\[H:7]"
N       -1.85724497       0.18703385       0.43035844
C       -0.96089682       0.07503820      -0.48612055
O       -0.64571773       0.41867283      -1.65325430
C        0.38964699      -0.39052124      -0.17137376
C        1.65695181       0.39147325      -0.34197119
O        2.72877674      -0.05540090      -0.05261898
H       -2.78901859      -0.09590124       0.16131288
H       -0.78672331      -0.08594800       1.61096022
H        0.51814224      -1.46957322      -0.24687736
H        0.22231125      -0.38494689       1.49695274
H        1.52377238       1.41007336      -0.74736814
11
Frame=9 idx=001623 GeodesicLength=0.8303566360231225 rxn_smarts="[N:1]([C:2](=[O:3])[C:4]([C:5](=[O:6])[H:11])([H:9])[H:10])([H:7])[H:8]>>[H:8][H:10].[N:1](=[C:2]1\[O:3][C@:4]1([C:5](=[O:6])[H:11])[H:9])\[H:7]"
N       -1.86863493       0.17521182       0.42472920
C       -0.96245116       0.08177924      -0.48620861
O       -0.63075012       0.46290847      -1.63622135
C        0.39027578      -0.37983780      -0.17265279
C        1.66861204       0.38097704      -0.35126398
O        2.73833115      -0.09379032      -0.10067691
H       -2.78073090      -0.16917126       0.16007137
H       -0.82937114      -0.05327524       1.62846271
H        0.51040808      -1.46100955      -0.23459108
H        0.21556608      -0.35458180       1.50069399
H        1.54874512       1.41078941      -0.73234255
11
Frame=10 idx=001623 GeodesicLength=0.9226357557789763 rxn_smarts="[N:1]([C:2](=[O:3])[C:4]([C:5](=[O:6])[H:11])([H:9])[H:10])([H:7])[H:8]>>[H:8][H:10].[N:1](=[C:2]1\[O:3][C@:4]1([C:5](=[O:6])[H:11])[H:9])\[H:7]"
N       -1.87998047       0.16160337       0.41876390
C       -0.96389414       0.08788806      -0.48616729
O       -0.61617122       0.50767119      -1.61707721
C        0.39122529      -0.36936898      -0.17393466
C        1.68007676       0.37035424      -0.36065909
O        2.74617516      -0.13143523      -0.14984429
H       -2.76936837      -0.24068501       0.15863427
H       -0.87477055      -0.02033049       1.64557801
H        0.50340751      -1.45240146      -0.22204809
H        0.20910605      -0.32388672       1.50420252
H        1.57419397       1.41059104      -0.71744807
11
Frame=11 idx=001623 GeodesicLength=1.0149644269508944 rxn_smarts="[N:1]([C:2](=[O:3])[C:4]([C:5](=[O:6])[H:11])([H:9])[H:10])([H:7])[H:8]>>[H:8][H:10].[N:1](=[C:2]1\[O:3][C@:4]1([C:5](=[O:6])[H:11])[H:9])\[H:7]"
N       -1.89122335       0.14643081       0.41243016
C       -0.96512896       0.09371317      -0.48591251
O       -0.60186693       0.55314039      -1.59560565
C        0.39250096      -0.35899713      -0.17510683
C        1.69143052       0.35956669      -0.37006100
O        2.75229153      -0.16861455      -0.20057400
H       -2.75481633      -0.31118153       0.15697562
H       -0.92348932       0.01288799       1.66225588
H        0.49701881      -1.44363643      -0.20912337
H        0.20294966      -0.29266896       1.50756395
H        1.60033341       1.40935955      -0.70284224
11
Frame=12 idx=001623 GeodesicLength=1.1072122926361632 rxn_smarts="[N:1]([C:2](=[O:3])[C:4]([C:5](=[O:6])[H:11])([H:9])[H:10])([H:7])[H:8]>>[H:8][H:10].[N:1](=[C:2]1\[O:3][C@:4]1([C:5](=[O:6])[H:11])[H:9])\[H:7]"
N       -1.90215055       0.12970989       0.40575071
C       -0.96609871       0.09906348      -0.48544247
O       -0.58784920       0.59919434      -1.57157152
C        0.39416264      -0.34884777      -0.17617653
C        1.70267622       0.34855332      -0.37962685
O        2.75664424      -0.20509408      -0.25283194
H       -2.73729571      -0.38030633       0.15509578
H       -0.97575629       0.04665039       1.67830739
H        0.49137430      -1.43482897      -0.19581522
H        0.19725799      -0.26119921       1.51073273
H        1.62703508       1.40710492      -0.68842209
11
Frame=13 idx=001623 GeodesicLength=1.1994682007040085 rxn_smarts="[N:1]([C:2](=[O:3])[C:4]([C:5](=[O:6])[H:11])([H:9])[H:10])([H:7])[H:8]>>[H:8][H:10].[N:1](=[C:2]1\[O:3][C@:4]1([C:5](=[O:6])[H:11])[H:9])\[H:7]"
N       -1.91270083       0.11158771       0.39871924
C       -0.96671581       0.10416615      -0.48466847
O       -0.57403495       0.64586095      -1.54475718
C        0.39625616      -0.33887705      -0.17704718
C        1.71389984       0.33728551      -0.38933882
O        2.75920605      -0.24094878      -0.30692995
H       -2.71671296      -0.44839120       0.15303204
H       -1.03221071       0.08105453       1.69360631
H        0.48646720      -1.42593960      -0.18205409
H        0.19212124      -0.22954805       1.51379966
H        1.65442479       1.40374983      -0.67436156
11
Frame=14 idx=001623 GeodesicLength=1.291696576046277 rxn_smarts="[N:1]([C:2](=[O:3])[C:4]([C:5](=[O:6])[H:11])([H:9])[H:10])([H:7])[H:8]>>[H:8][H:10].[N:1](=[C:2]1\[O:3][C@:4]1([C:5](=[O:6])[H:11])[H:9])\[H:7]"
N       -1.92269206       0.09207544       0.39138804
C       -0.96689228       0.10897429      -0.48351682
O       -0.56040279       0.69302919      -1.51488465
C        0.39885736      -0.32916260      -0.17768792
C        1.72513340       0.32571455      -0.39937013
O        2.75993722      -0.27599536      -0.36288872
H       -2.69319103      -0.51521560       0.15083747
H       -1.09339329       0.11632416       1.70789458
H        0.48241093      -1.41704265      -0.16783675
H        0.18776500      -0.19797903       1.51677592
H        1.68246753       1.39927762      -0.66071101
11
Frame=15 idx=001623 GeodesicLength=1.3839109444697104 rxn_smarts="[N:1]([C:2](=[O:3])[C:4]([C:5](=[O:6])[H:11])([H:9])[H:10])([H:7])[H:8]>>[H:8][H:10].[N:1](=[C:2]1\[O:3][C@:4]1([C:5](=[O:6])[H:11])[H:9])\[H:7]"
N       -1.93199105       0.07131343       0.38378476
C       -0.96650316       0.11373329      -0.48183595
O       -0.54686607       0.74064708      -1.48169622
C        0.40202369      -0.31966076      -0.17800920
C        1.73641828       0.31379994      -0.40978726
O        2.75871070      -0.31021932      -0.42082707
H       -2.66649346      -0.58097051       0.14864630
H       -1.16014410       0.15255727       1.72090459
H        0.47920714      -1.40807949      -0.15319009
H        0.18439817      -0.16669458       1.51976832
H        1.71123988       1.39357365      -0.64775818
11
Frame=16 idx=001623 GeodesicLength=1.4760961914864548 rxn_smarts="[N:1]([C:2](=[O:3])[C:4]([C:5](=[O:6])[H:11])([H:9])[H:10])([H:7])[H:8]>>[H:8][H:10].[N:1](=[C:2]1\[O:3][C@:4]1([C:5](=[O:6])[H:11])[H:9])\[H:7]"
N       -1.94044649       0.04935500       0.37600419
C       -0.96544899       0.11856649      -0.47945180
O       -0.53337846       0.78863055      -1.44487525
C        0.40583952      -0.31041260      -0.17797219
C        1.74779852       0.30149376      -0.42078141
O        2.75547857      -0.34349741      -0.48073390
H       -2.63650311      -0.64568666       0.14667736
H       -1.23334758       0.19019215       1.73219004
H        0.47692649      -1.39910602      -0.13824727
H        0.18231950      -0.13613992       1.52285743
H        1.74076205       1.38660466      -0.63566721
