13
Frame=0 idx=002206 GeodesicLength=0.0 rxn_smarts="[C:1]([C:2](=[O:3])[C@@:4]1([H:10])[C:5]([H:11])([H:12])[N:6]1[H:13])([H:7])([H:8])[H:9]>>[C:1]([C:2]([O-:3])=[C:4]1[C:5]([H:11])([H:12])[N+:6]1([H:10])[H:13])([H:7])([H:8])[H:9]"
C        1.82650634      -0.26157451       0.72167018
C        0.67226612       0.49998918       0.12790203
O        0.52028792       1.69390540       0.30704072
C       -0.22094380      -0.30939720      -0.72426548
C       -1.53933612      -0.62804487      -0.15421922
N       -1.63058818       0.56458138      -0.99278488
H        1.51559418      -1.25958897       1.03589460
H        2.24857490       0.29196818       1.55784089
H        2.59119653      -0.39171353      -0.04717256
H       -0.74559927       0.27068067      -1.76034935
H       -1.68619028      -0.40594479       0.89916077
H       -2.10549851      -1.48333779      -0.50794977
H       -1.44626985       1.41847681      -0.46276795
13
Frame=1 idx=002206 GeodesicLength=0.06416908001177793 rxn_smarts="[C:1]([C:2](=[O:3])[C@@:4]1([H:10])[C:5]([H:11])([H:12])[N:6]1[H:13])([H:7])([H:8])[H:9]>>[C:1]([C:2]([O-:3])=[C:4]1[C:5]([H:11])([H:12])[N+:6]1([H:10])[H:13])([H:7])([H:8])[H:9]"
C        1.83119147      -0.26279024       0.71479385
C        0.67181083       0.49438958       0.12722642
O        0.52885613       1.69217943       0.28870664
C       -0.23365350      -0.31618646      -0.70890075
C       -1.55370711      -0.61503739      -0.13183843
N       -1.62160450       0.55743834      -1.00017749
H        1.56866124      -1.29835118       0.93848425
H        2.18464514       0.23215720       1.61723006
H        2.63796830      -0.29721852      -0.02030164
H       -0.74630399       0.22889889      -1.77870127
H       -1.70185990      -0.36751916       0.91569877
H       -2.12590393      -1.47222610      -0.47092677
H       -1.44010019       1.42426561      -0.49129362
13
Frame=2 idx=002206 GeodesicLength=0.1284341860107966 rxn_smarts="[C:1]([C:2](=[O:3])[C@@:4]1([H:10])[C:5]([H:11])([H:12])[N:6]1[H:13])([H:7])([H:8])[H:9]>>[C:1]([C:2]([O-:3])=[C:4]1[C:5]([H:11])([H:12])[N+:6]1([H:10])[H:13])([H:7])([H:8])[H:9]"
C        1.83549339      -0.26412849       0.70771969
C        0.67277081       0.48961217       0.12372296
O        0.53738019       1.69043625       0.27050606
C       -0.24595371      -0.32250262      -0.69438754
C       -1.56690487      -0.60131251      -0.10903173
N       -1.61291605       0.54967204      -1.00688655
H        1.62537225      -1.32737344       0.83685201
H        2.11671814       0.16267470       1.66877967
H        2.68046954      -0.20313476       0.01891092
H       -0.74852353       0.18561810      -1.79595717
H       -1.71480342      -0.32832950       0.93223231
H       -2.14531820      -1.46036339      -0.43247692
H       -1.43378453       1.42913145      -0.51998370
13
Frame=3 idx=002206 GeodesicLength=0.19271600486320478 rxn_smarts="[C:1]([C:2](=[O:3])[C@@:4]1([H:10])[C:5]([H:11])([H:12])[N:6]1[H:13])([H:7])([H:8])[H:9]>>[C:1]([C:2]([O-:3])=[C:4]1[C:5]([H:11])([H:12])[N+:6]1([H:10])[H:13])([H:7])([H:8])[H:9]"
C        1.83939228      -0.26550095       0.70043413
C        0.67509317       0.48569204       0.11747173
O        0.54580494       1.68882137       0.25248368
C       -0.25775177      -0.32833078      -0.68065633
C       -1.57879262      -0.58691119      -0.08587101
N       -1.60446501       0.54126797      -1.01290132
H        1.68538942      -1.34555826       0.73242734
H        2.04571983       0.08396674       1.71076757
H        2.71765685      -0.11109505       0.07066012
H       -0.75222219       0.14092397      -1.81197691
H       -1.72495035      -0.28850629       0.94867817
H       -2.16350568      -1.44777324      -0.39275538
H       -1.42736886       1.43300367      -0.54876181
13
Frame=4 idx=002206 GeodesicLength=0.25722632867980144 rxn_smarts="[C:1]([C:2](=[O:3])[C@@:4]1([H:10])[C:5]([H:11])([H:12])[N:6]1[H:13])([H:7])([H:8])[H:9]>>[C:1]([C:2]([O-:3])=[C:4]1[C:5]([H:11])([H:12])[N+:6]1([H:10])[H:13])([H:7])([H:8])[H:9]"
C        1.84303257      -0.26683638       0.69287427
C        0.67855009       0.48252375       0.10903431
O        0.55410011       1.68739373       0.23479248
C       -0.26903575      -0.33385343      -0.66729273
C       -1.58957611      -0.57174146      -0.06232497
N       -1.59607980       0.53210185      -1.01842544
H        1.74897439      -1.35215080       0.62596324
H        1.97277894      -0.00383423       1.74166819
H        2.74860523      -0.02183031       0.13500537
H       -0.75705086       0.09445369      -1.82651082
H       -1.73288408      -0.24769646       0.96491098
H       -2.18068858      -1.43436220      -0.35168974
H       -1.42072614       1.43583225      -0.57800514
13
Frame=5 idx=002206 GeodesicLength=0.32221741053755565 rxn_smarts="[C:1]([C:2](=[O:3])[C@@:4]1([H:10])[C:5]([H:11])([H:12])[N:6]1[H:13])([H:7])([H:8])[H:9]>>[C:1]([C:2]([O-:3])=[C:4]1[C:5]([H:11])([H:12])[N+:6]1([H:10])[H:13])([H:7])([H:8])[H:9]"
C        1.84657677      -0.26808720       0.68518202
C        0.68281747       0.48002107       0.09909834
O        0.56219247       1.68624762       0.21739566
C       -0.27975702      -0.33914369      -0.65398312
C       -1.59939797      -0.55574267      -0.03843975
N       -1.58769747       0.52214326      -1.02367124
H        1.81627607      -1.34633899       0.51875576
H        1.89954657      -0.10013114       1.76010110
H        2.77215973       0.06315255       0.21150945
H       -0.76271172       0.04609642      -1.83942718
H       -1.73912615      -0.20575626       0.98083610
H       -2.19693213      -1.42002796      -0.30940265
H       -1.41394661       1.43756698      -0.60795450
13
Frame=6 idx=002206 GeodesicLength=0.38765047103784644 rxn_smarts="[C:1]([C:2](=[O:3])[C@@:4]1([H:10])[C:5]([H:11])([H:12])[N:6]1[H:13])([H:7])([H:8])[H:9]>>[C:1]([C:2]([O-:3])=[C:4]1[C:5]([H:11])([H:12])[N+:6]1([H:10])[H:13])([H:7])([H:8])[H:9]"
C        1.85019896      -0.26919467       0.67742463
C        0.68734526       0.47799113       0.08888698
O        0.56995976       1.68532212       0.20053563
C       -0.28991093      -0.34428836      -0.64015516
C       -1.60853726      -0.53882323      -0.01440357
N       -1.57908707       0.51129887      -1.02887265
H        1.88699224      -1.32738409       0.41248841
H        1.82863888      -0.20392293       1.76471787
H        2.78696499       0.14234633       0.29883457
H       -0.76862150      -0.00433419      -1.85030118
H       -1.74456446      -0.16247841       0.99602927
H       -2.21242067      -1.40457923      -0.26625927
H       -1.40695819       1.43804665      -0.63892553
13
Frame=7 idx=002206 GeodesicLength=0.45351988952451705 rxn_smarts="[C:1]([C:2](=[O:3])[C@@:4]1([H:10])[C:5]([H:11])([H:12])[N:6]1[H:13])([H:7])([H:8])[H:9]>>[C:1]([C:2]([O-:3])=[C:4]1[C:5]([H:11])([H:12])[N+:6]1([H:10])[H:13])([H:7])([H:8])[H:9]"
C        1.85400300      -0.27017207       0.66969767
C        0.69155036       0.47628901       0.07966162
O        0.57732484       1.68470764       0.18435732
C       -0.29948557      -0.34940793      -0.62530383
C       -1.61734873      -0.52095691       0.00959496
N       -1.56999719       0.49952139      -1.03420364
H        1.96050082      -1.29478540       0.30874881
H        1.76283076      -0.31384587       1.75467191
H        2.79201247       0.21407506       0.39518899
H       -0.77407665      -0.05700409      -1.85873881
H       -1.75022936      -0.11768743       1.01010747
H       -2.22742196      -1.38797057      -0.22264292
H       -1.39966278       1.43723716      -0.67113956
13
Frame=8 idx=002206 GeodesicLength=0.5192852415689284 rxn_smarts="[C:1]([C:2](=[O:3])[C@@:4]1([H:10])[C:5]([H:11])([H:12])[N:6]1[H:13])([H:7])([H:8])[H:9]>>[C:1]([C:2]([O-:3])=[C:4]1[C:5]([H:11])([H:12])[N+:6]1([H:10])[H:13])([H:7])([H:8])[H:9]"
C        1.85800160      -0.27099479       0.66220344
C        0.69486530       0.47477269       0.07265193
O        0.58429579       1.68435271       0.16898278
C       -0.30850897      -0.35435743      -0.60924691
C       -1.62597501      -0.50230660       0.03306976
N       -1.56030006       0.48693606      -1.03966384
H        2.03486966      -1.24896307       0.21058622
H        1.70532794      -0.42704562       1.72999231
H        2.78676626       0.27610447       0.49715699
H       -0.77868366      -0.11135160      -1.86447496
H       -1.75665908      -0.07192077       1.02256123
H       -2.24190430      -1.37025051      -0.17956625
H       -1.39209546       1.43502447      -0.70425270
13
Frame=9 idx=002206 GeodesicLength=0.5849673612595642 rxn_smarts="[C:1]([C:2](=[O:3])[C@@:4]1([H:10])[C:5]([H:11])([H:12])[N:6]1[H:13])([H:7])([H:8])[H:9]>>[C:1]([C:2]([O-:3])=[C:4]1[C:5]([H:11])([H:12])[N+:6]1([H:10])[H:13])([H:7])([H:8])[H:9]"
C        1.86243843      -0.27175485       0.65487347
C        0.69697848       0.47319858       0.06877648
O        0.59102264       1.68405714       0.15447609
C       -0.31716031      -0.35933326      -0.59157214
C       -1.63503796      -0.48267844       0.05591413
N       -1.54988803       0.47336029      -1.04534002
H        2.10966043      -1.18992535       0.11846391
H        1.65810021      -0.54243971       1.69084925
H        2.77148824       0.32790696       0.60334376
H       -0.78200421      -0.16782871      -1.86709794
H       -1.76491102      -0.02466354       1.03302744
H       -2.25668819      -1.35111386      -0.13717528
H       -1.38399872       1.43121476      -0.73853915
13
Frame=10 idx=002206 GeodesicLength=0.6504120991386122 rxn_smarts="[C:1]([C:2](=[O:3])[C@@:4]1([H:10])[C:5]([H:11])([H:12])[N:6]1[H:13])([H:7])([H:8])[H:9]>>[C:1]([C:2]([O-:3])=[C:4]1[C:5]([H:11])([H:12])[N+:6]1([H:10])[H:13])([H:7])([H:8])[H:9]"
C        1.86724378      -0.27253503       0.64776445
C        0.69775416       0.47148394       0.06830194
O        0.59771562       1.68374460       0.14056622
C       -0.32555753      -0.36430890      -0.57234311
C       -1.64458808      -0.46214179       0.07799063
N       -1.53876163       0.45887091      -1.05112172
H        2.18360947      -1.11829225       0.03397217
H        1.62217442      -0.65802960       1.63773326
H        2.74662441       0.36829803       0.71178558
H       -0.78411828      -0.22614468      -1.86652191
H       -1.77495807       0.02385374       1.04137901
H       -2.27186960      -1.33056901      -0.09573644
H       -1.37526869       1.42577004      -0.77377007
13
Frame=11 idx=002206 GeodesicLength=0.7156102219606535 rxn_smarts="[C:1]([C:2](=[O:3])[C@@:4]1([H:10])[C:5]([H:11])([H:12])[N:6]1[H:13])([H:7])([H:8])[H:9]>>[C:1]([C:2]([O-:3])=[C:4]1[C:5]([H:11])([H:12])[N+:6]1([H:10])[H:13])([H:7])([H:8])[H:9]"
C        1.87237738      -0.27343317       0.64082318
C        0.69727512       0.46955092       0.07107634
O        0.60460916       1.68324398       0.12704010
C       -0.33381444      -0.36929312      -0.55169863
C       -1.65465808      -0.44071617       0.09925104
N       -1.52698218       0.44349623      -1.05684241
H        2.25577676      -1.03479584      -0.04159921
H        1.59788100      -0.77194469       1.57102003
H        2.71279663       0.39645005       0.82107634
H       -0.78525554      -0.28613387      -1.86267262
H       -1.78661758       0.07351710       1.04756399
H       -2.28760150      -1.30856568      -0.05530637
H       -1.36578672       1.41862425      -0.80973179
13
Frame=12 idx=002206 GeodesicLength=0.7807211606082485 rxn_smarts="[C:1]([C:2](=[O:3])[C@@:4]1([H:10])[C:5]([H:11])([H:12])[N:6]1[H:13])([H:7])([H:8])[H:9]>>[C:1]([C:2]([O-:3])=[C:4]1[C:5]([H:11])([H:12])[N+:6]1([H:10])[H:13])([H:7])([H:8])[H:9]"
C        1.87780635      -0.27452146       0.63392515
C        0.69580372       0.46736090       0.07655119
O        0.61189568       1.68236791       0.11384986
C       -0.34202055      -0.37430143      -0.52986931
C       -1.66519703      -0.41841826       0.11971260
N       -1.51465045       0.42724713      -1.06231653
H        2.32544339      -0.94034958      -0.10693855
H        1.58502530      -0.88221979       1.49097138
H        2.67060297       0.41163531       0.93004502
H       -0.78579545      -0.34767536      -1.85554169
H       -1.79949760       0.12422694       1.05162387
H       -2.30398196      -1.28506320      -0.01579564
H       -1.35543436       1.40971091      -0.84621737
13
Frame=13 idx=002206 GeodesicLength=0.8459700092014868 rxn_smarts="[C:1]([C:2](=[O:3])[C@@:4]1([H:10])[C:5]([H:11])([H:12])[N:6]1[H:13])([H:7])([H:8])[H:9]>>[C:1]([C:2]([O-:3])=[C:4]1[C:5]([H:11])([H:12])[N+:6]1([H:10])[H:13])([H:7])([H:8])[H:9]"
C        1.88345443      -0.27583083       0.62693908
C        0.69375995       0.46493742       0.08374079
O        0.61963544       1.68098851       0.10113972
C       -0.35020123      -0.37931420      -0.50723312
C       -1.67596818      -0.39532014       0.13941738
N       -1.50191900       0.41017364      -1.06734042
H        2.39195956      -0.83637550      -0.16045915
H        1.58290719      -0.98653407       1.39799687
H        2.62060518       0.41316574       1.03734962
H       -0.78627923      -0.41054115      -1.84523891
H       -1.81289115       0.17574563       1.05370102
H       -2.32087928      -1.26009822       0.02294329
H       -1.34418368       1.39900317      -0.88295618
13
Frame=14 idx=002206 GeodesicLength=0.9114942877869309 rxn_smarts="[C:1]([C:2](=[O:3])[C@@:4]1([H:10])[C:5]([H:11])([H:12])[N:6]1[H:13])([H:7])([H:8])[H:9]>>[C:1]([C:2]([O-:3])=[C:4]1[C:5]([H:11])([H:12])[N+:6]1([H:10])[H:13])([H:7])([H:8])[H:9]"
C        1.88913246      -0.27736148       0.61982695
C        0.69173085       0.46239341       0.09112977
O        0.62773385       1.67913535       0.08911160
C       -0.35825537      -0.38422650      -0.48444305
C       -1.68647476      -0.37164496       0.15839534
N       -1.48904423       0.39245340      -1.07165596
H        2.45465362      -0.72528809      -0.20024479
H        1.59015883      -1.08205053       1.29321217
H        2.56348131       0.40059179       1.14111688
H       -0.78738672      -0.47416759      -1.83211380
H       -1.82571173       0.22748269       1.05410026
H       -2.33776750      -1.23392056       0.06102226
H       -1.33225059       1.38660306      -0.91945763
13
Frame=15 idx=002206 GeodesicLength=0.9774598921021775 rxn_smarts="[C:1]([C:2](=[O:3])[C@@:4]1([H:10])[C:5]([H:11])([H:12])[N:6]1[H:13])([H:7])([H:8])[H:9]>>[C:1]([C:2]([O-:3])=[C:4]1[C:5]([H:11])([H:12])[N+:6]1([H:10])[H:13])([H:7])([H:8])[H:9]"
C        1.89469795      -0.27908717       0.61257337
C        0.69028776       0.45985061       0.09718875
O        0.63602339       1.67695236       0.07796319
C       -0.36606691      -0.38896745      -0.46208541
C       -1.69625250      -0.34758198       0.17673447
N       -1.47629334       0.37422643      -1.07509150
H        2.51329680      -0.60963411      -0.22482295
H        1.60531850      -1.16639150       1.17799308
H        2.49977660       0.37392116       1.23961691
H       -0.78974847      -0.53811637      -1.81653501
H       -1.83698688       0.27897330       1.05317707
H       -2.35414157      -1.20676045       0.09866822
H       -1.31991134       1.37261518      -0.95538018
13
Frame=16 idx=002206 GeodesicLength=1.0439235265943678 rxn_smarts="[C:1]([C:2](=[O:3])[C@@:4]1([H:10])[C:5]([H:11])([H:12])[N:6]1[H:13])([H:7])([H:8])[H:9]>>[C:1]([C:2]([O-:3])=[C:4]1[C:5]([H:11])([H:12])[N+:6]1([H:10])[H:13])([H:7])([H:8])[H:9]"
C        1.90000426      -0.28097710       0.60524703
C        0.68990262       0.45744853       0.10056275
O        0.64435266       1.67469116       0.06768110
C       -0.37348890      -0.39346708      -0.44067681
C       -1.70485499      -0.32333637       0.19454046
N       -1.46392745       0.35564094      -1.07753307
H        2.56780925      -0.49209174      -0.23310156
H        1.62697433      -1.23760331       1.05409798
H        2.42997340       0.33358511       1.33107360
H       -0.79386927      -0.60194318      -1.79889299
H       -1.84587714       0.32975869       1.05132370
H       -2.36945764      -1.17888892       0.13610429
H       -1.30754114       1.35718326      -0.99042649
