15
Frame=0 idx=005030 GeodesicLength=0.0 rxn_smarts="[C:1]([C@@:2]1([H:9])[C:3]([H:10])([H:11])[C@:4]1([C:5]([H:13])([H:14])[H:15])[H:12])([H:6])([H:7])[H:8]>>[C:1]([C:2][C:3]([C:4]([C:5]([H:13])([H:14])[H:15])([H:9])[H:12])([H:10])[H:11])([H:6])([H:7])[H:8]"
C        1.59745747      -0.89092414      -0.08178971
C        1.20748342       0.42539300       0.53687024
C        0.35409784       1.24794108      -0.34994819
C       -0.67979404       0.57316880       0.54360697
C       -1.65164247      -0.39959180      -0.08257092
H        0.99271307      -1.25144956      -0.92605459
H        1.71345064      -1.68731491       0.65422595
H        2.59979577      -0.69169366      -0.47688711
H        0.03427317       0.05510201       1.33787295
H        0.41697406       2.32723494      -0.24467014
H        0.26470557       0.94465293      -1.39611946
H       -1.13188638       1.28528604       1.23085198
H       -2.35248325       0.13237734      -0.72865112
H       -1.13897286      -1.14125394      -0.69567381
H       -2.22617195      -0.92892811       0.67893696
15
Frame=1 idx=005030 GeodesicLength=0.05750078164714113 rxn_smarts="[C:1]([C@@:2]1([H:9])[C:3]([H:10])([H:11])[C@:4]1([C:5]([H:13])([H:14])[H:15])[H:12])([H:6])([H:7])[H:8]>>[C:1]([C:2][C:3]([C:4]([C:5]([H:13])([H:14])[H:15])([H:9])[H:12])([H:10])[H:11])([H:6])([H:7])[H:8]"
C        1.61069400      -0.89088223      -0.07927256
C        1.20360390       0.42052632       0.53497586
C        0.35046442       1.24054186      -0.35396202
C       -0.68027237       0.56743451       0.54431530
C       -1.66352024      -0.39190920      -0.08531608
H        1.00777991      -1.25906358      -0.92123923
H        1.73703981      -1.68487036       0.65769994
H        2.61067532      -0.68061623      -0.47528425
H        0.04005694       0.04749700       1.35259403
H        0.40924484       2.32020529      -0.25071915
H        0.26509543       0.93433145      -1.39954595
H       -1.12827060       1.28202509       1.23179421
H       -2.36452149       0.15101314      -0.72213458
H       -1.16033195      -1.13196211      -0.70830447
H       -2.23773790      -0.92427097       0.67439894
15
Frame=2 idx=005030 GeodesicLength=0.11499091511160586 rxn_smarts="[C:1]([C@@:2]1([H:9])[C:3]([H:10])([H:11])[C@:4]1([C:5]([H:13])([H:14])[H:15])[H:12])([H:6])([H:7])[H:8]>>[C:1]([C:2][C:3]([C:4]([C:5]([H:13])([H:14])[H:15])([H:9])[H:12])([H:10])[H:11])([H:6])([H:7])[H:8]"
C        1.62419731      -0.89073670      -0.07669292
C        1.19960995       0.41540735       0.53309947
C        0.34678899       1.23286177      -0.35805598
C       -0.68085486       0.56147309       0.54488939
C       -1.67564698      -0.38403599      -0.08808959
H        1.02329110      -1.26673596      -0.91634169
H        1.76104423      -1.68213458       0.66125847
H        2.62165712      -0.66919037      -0.47357984
H        0.04601990       0.03974985       1.36739831
H        0.40148878       2.31288047      -0.25689652
H        0.26545816       0.92367173      -1.40301445
H       -1.12454701       1.27851360       1.23274073
H       -2.37664299       0.17002487      -0.71534186
H       -1.18229549      -1.12229199      -0.72115505
H       -2.24956823      -0.91945715       0.66978156
15
Frame=3 idx=005030 GeodesicLength=0.17247423911526127 rxn_smarts="[C:1]([C@@:2]1([H:9])[C:3]([H:10])([H:11])[C@:4]1([C:5]([H:13])([H:14])[H:15])[H:12])([H:6])([H:7])[H:8]>>[C:1]([C:2][C:3]([C:4]([C:5]([H:13])([H:14])[H:15])([H:9])[H:12])([H:10])[H:11])([H:6])([H:7])[H:8]"
C        1.63797454      -0.89048158      -0.07404864
C        1.19549844       0.41002205       0.53123693
C        0.34306889       1.22488572      -0.36223405
C       -0.68154646       0.55527156       0.54532478
C       -1.68802996      -0.37596382      -0.09089078
H        1.03927448      -1.27446370      -0.91136486
H        1.78547039      -1.67909216       0.66490361
H        2.63273846      -0.65740376      -0.47176304
H        0.05217443       0.03185907       1.38229259
H        0.39370615       2.30524481      -0.26320737
H        0.26578821       0.91265495      -1.40652641
H       -1.12071472       1.27473904       1.23368631
H       -2.38884235       0.18942700      -0.70825851
H       -1.20488629      -1.11221835      -0.73423033
H       -2.26167423      -0.91448081       0.66507975
15
Frame=4 idx=005030 GeodesicLength=0.2299555003469876 rxn_smarts="[C:1]([C@@:2]1([H:9])[C:3]([H:10])([H:11])[C@:4]1([C:5]([H:13])([H:14])[H:15])[H:12])([H:6])([H:7])[H:8]>>[C:1]([C:2][C:3]([C:4]([C:5]([H:13])([H:14])[H:15])([H:9])[H:12])([H:10])[H:11])([H:6])([H:7])[H:8]"
C        1.65203346      -0.89011055      -0.07133692
C        1.19126596       0.40435524       0.52938376
C        0.33930111       1.21659717      -0.36650050
C       -0.68235233       0.54881523       0.54561660
C       -1.70067680      -0.36768413      -0.09371931
H        1.05575844      -1.28224368      -0.90631205
H        1.81032517      -1.67572713       0.66863929
H        2.64391799      -0.64524215      -0.46982194
H        0.05853468       0.02382426       1.39728418
H        0.38589631       2.29728042      -0.26965840
H        0.26607972       0.90125986      -1.41008384
H       -1.11677276       1.27068669       1.23462593
H       -2.40111321       0.20923476      -0.70086743
H       -1.22812985      -1.10170978      -0.74753677
H       -2.27406789      -0.90933619       0.66028740
15
Frame=5 idx=005030 GeodesicLength=0.2874322054446722 rxn_smarts="[C:1]([C@@:2]1([H:9])[C:3]([H:10])([H:11])[C@:4]1([C:5]([H:13])([H:14])[H:15])[H:12])([H:6])([H:7])[H:8]>>[C:1]([C:2][C:3]([C:4]([C:5]([H:13])([H:14])[H:15])([H:9])[H:12])([H:10])[H:11])([H:6])([H:7])[H:8]"
C        1.66637870      -0.88961762      -0.06855543
C        1.18690942       0.39839160       0.52753475
C        0.33548308       1.20798112      -0.37085926
C       -0.68327777       0.54209110       0.54576023
C       -1.71359207      -0.35918932      -0.09657406
H        1.07276779      -1.29007217      -0.90118701
H        1.83560829      -1.67202293       0.67246709
H        2.65519215      -0.63269402      -0.46774551
H        0.06511404       0.01564775       1.41238084
H        0.37806065       2.28897252      -0.27625414
H        0.26632656       0.88946754      -1.41368850
H       -1.11272063       1.26634330       1.23555458
H       -2.41344726       0.22945974      -0.69315435
H       -1.25204449      -1.09073917      -0.76107749
H       -2.28675845      -0.90401946       0.65539827
15
Frame=6 idx=005030 GeodesicLength=0.34490724675738255 rxn_smarts="[C:1]([C@@:2]1([H:9])[C:3]([H:10])([H:11])[C@:4]1([C:5]([H:13])([H:14])[H:15])[H:12])([H:6])([H:7])[H:8]>>[C:1]([C:2][C:3]([C:4]([C:5]([H:13])([H:14])[H:15])([H:9])[H:12])([H:10])[H:11])([H:6])([H:7])[H:8]"
C        1.68101914      -0.88899488      -0.06570133
C        1.18242426       0.39211213       0.52568442
C        0.33161094       1.19901787      -0.37531554
C       -0.68432890       0.53508112       0.54575012
C       -1.72678460      -0.35046892      -0.09945482
H        1.09033567      -1.29794355      -0.89599474
H        1.86132526      -1.66796201       0.67639123
H        2.66655756      -0.61974383      -0.46551978
H        0.07192767       0.00733107       1.42759033
H        0.37019830       2.28030032      -0.28300203
H        0.26652160       0.87725323      -1.41734284
H       -1.10855815       1.26169185       1.23646547
H       -2.42583405       0.25011815      -0.68509869
H       -1.27665577      -1.07926858      -0.77485754
H       -2.29975892      -0.89852395       0.65040574
15
Frame=7 idx=005030 GeodesicLength=0.40238272592522717 rxn_smarts="[C:1]([C@@:2]1([H:9])[C:3]([H:10])([H:11])[C@:4]1([C:5]([H:13])([H:14])[H:15])[H:12])([H:6])([H:7])[H:8]>>[C:1]([C:2][C:3]([C:4]([C:5]([H:13])([H:14])[H:15])([H:9])[H:12])([H:10])[H:11])([H:6])([H:7])[H:8]"
C        1.69595999      -0.88823515      -0.06277387
C        1.17780582       0.38549587       0.52382616
C        0.32768116       1.18968844      -0.37987449
C       -0.68551272       0.52776945       0.54558003
C       -1.74026026      -0.34151405      -0.10236032
H        1.10849393      -1.30585090      -0.89074203
H        1.88747625      -1.66352762       0.68041713
H        2.67800956      -0.60637597      -0.46312979
H        0.07899161      -0.00112245       1.44292082
H        0.36231084       2.27124567      -0.28990822
H        0.26665616       0.86459322      -1.42104929
H       -1.10428477       1.25671566       1.23735228
H       -2.43826280       0.27122283      -0.67668282
H       -1.30198475      -1.06726082      -0.78887875
H       -2.31308002      -0.89284419       0.64530316
15
Frame=8 idx=005030 GeodesicLength=0.45985782787357726 rxn_smarts="[C:1]([C@@:2]1([H:9])[C:3]([H:10])([H:11])[C@:4]1([C:5]([H:13])([H:14])[H:15])[H:12])([H:6])([H:7])[H:8]>>[C:1]([C:2][C:3]([C:4]([C:5]([H:13])([H:14])[H:15])([H:9])[H:12])([H:10])[H:11])([H:6])([H:7])[H:8]"
C        1.71120801      -0.88732990      -0.05977088
C        1.17304845       0.37852095       0.52195323
C        0.32368969       1.17997175      -0.38454086
C       -0.68683654       0.52013773       0.54524446
C       -1.75402511      -0.33231373      -0.10528864
H        1.12727393      -1.31378558      -0.88543678
H        1.91405866      -1.65870251       0.68454869
H        2.68954360      -0.59257323      -0.46056176
H        0.08632272      -0.00970719       1.45838159
H        0.35439874       2.26178719      -0.29697891
H        0.26672148       0.85146127      -1.42480987
H       -1.09990113       1.25139709       1.23820736
H       -2.45071704       0.29278591      -0.66788867
H       -1.32805154      -1.05467710      -0.80314283
H       -2.32673391      -0.88697265       0.64008388
15
Frame=9 idx=005030 GeodesicLength=0.517346856365276 rxn_smarts="[C:1]([C@@:2]1([H:9])[C:3]([H:10])([H:11])[C@:4]1([C:5]([H:13])([H:14])[H:15])[H:12])([H:6])([H:7])[H:8]>>[C:1]([C:2][C:3]([C:4]([C:5]([H:13])([H:14])[H:15])([H:9])[H:12])([H:10])[H:11])([H:6])([H:7])[H:8]"
C        1.72678464      -0.88626409      -0.05668484
C        1.16814469       0.37114964       0.52005856
C        0.31962831       1.16982917      -0.38932562
C       -0.68831148       0.51215255       0.54473537
C       -1.76810011      -0.32284254      -0.10824109
H        1.14673477      -1.32172730      -0.88008382
H        1.94109708      -1.65346268       0.68880361
H        2.70116804      -0.57829881      -0.45780005
H        0.09393221      -0.01843638       1.47397705
H        0.34646010       2.25189159      -0.30423553
H        0.26670052       0.83780166      -1.42863045
H       -1.09539866       1.24570020       1.23902600
H       -2.46318934       0.31483876      -0.65868339
H       -1.35489927      -1.04144303      -0.81764992
H       -2.34075149      -0.88088875       0.63473411
15
Frame=10 idx=005030 GeodesicLength=0.5748327927838324 rxn_smarts="[C:1]([C@@:2]1([H:9])[C:3]([H:10])([H:11])[C@:4]1([C:5]([H:13])([H:14])[H:15])[H:12])([H:6])([H:7])[H:8]>>[C:1]([C:2][C:3]([C:4]([C:5]([H:13])([H:14])[H:15])([H:9])[H:12])([H:10])[H:11])([H:6])([H:7])[H:8]"
C        1.74268016      -0.88503471      -0.05351776
C        1.16308855       0.36336697       0.51813526
C        0.31549621       1.15925156      -0.39422939
C       -0.68994309       0.50380649       0.54404784
C       -1.78247598      -0.31310257      -0.11121470
H        1.16688352      -1.32968049      -0.87469091
H        1.96857320      -1.64779112       0.69317612
H        2.71285926      -0.56354737      -0.45483256
H        0.10184339      -0.02728638       1.48972007
H        0.33849960       2.24154434      -0.31167221
H        0.26659122       0.82360902      -1.43251032
H       -1.09078647       1.23961984       1.23979763
H       -2.47565477       0.33738026      -0.64905645
H       -1.38252378      -1.02753893      -0.83239971
H       -2.35513102      -0.87459691       0.62924709
15
Frame=11 idx=005030 GeodesicLength=0.6323087288797672 rxn_smarts="[C:1]([C@@:2]1([H:9])[C:3]([H:10])([H:11])[C@:4]1([C:5]([H:13])([H:14])[H:15])[H:12])([H:6])([H:7])[H:8]>>[C:1]([C:2][C:3]([C:4]([C:5]([H:13])([H:14])[H:15])([H:9])[H:12])([H:10])[H:11])([H:6])([H:7])[H:8]"
C        1.75889815      -0.88363246      -0.05026701
C        1.15787289       0.35514512       0.51617536
C        0.31128836       1.14821453      -0.39925901
C       -0.69174012       0.49507921       0.54317579
C       -1.79715633      -0.30308325      -0.11420769
H        1.18775543      -1.33763288      -0.86926394
H        1.99648521      -1.64166696       0.69766595
H        2.72460666      -0.54829925      -0.45163922
H        0.11007326      -0.03624913       1.50561865
H        0.33051970       2.23072166      -0.31929786
H        0.26638370       0.80885257      -1.43645301
H       -1.08606395       1.23313451       1.24051466
H       -2.48809433       0.36042359      -0.63898449
H       -1.41094182      -1.01291905      -0.84739028
H       -2.36988681      -0.86808820       0.62361208
15
Frame=12 idx=005030 GeodesicLength=0.6897773779791234 rxn_smarts="[C:1]([C@@:2]1([H:9])[C:3]([H:10])([H:11])[C@:4]1([C:5]([H:13])([H:14])[H:15])[H:12])([H:6])([H:7])[H:8]>>[C:1]([C:2][C:3]([C:4]([C:5]([H:13])([H:14])[H:15])([H:9])[H:12])([H:10])[H:11])([H:6])([H:7])[H:8]"
C        1.77544578      -0.88204606      -0.04693053
C        1.15248896       0.34645110       0.51417098
C        0.30699908       1.13668933      -0.40442085
C       -0.69371255       0.48594678       0.54211226
C       -1.81214825      -0.29276832      -0.11721974
H        1.20938575      -1.34557563      -0.86381084
H        2.02483924      -1.63506631       0.70228275
H        2.73639983      -0.53252671      -0.44820564
H        0.11864267      -0.04531812       1.52168214
H        0.32252258       2.21939431      -0.32712083
H        0.26606630       0.79349539      -1.44046138
H       -1.08123140       1.22621957       1.24116920
H       -2.50048871       0.38398675      -0.62844445
H       -1.44017118      -0.99753109      -0.86261855
H       -2.38503811      -0.86135100       0.61781549
15
Frame=13 idx=005030 GeodesicLength=0.7472284680556722 rxn_smarts="[C:1]([C@@:2]1([H:9])[C:3]([H:10])([H:11])[C@:4]1([C:5]([H:13])([H:14])[H:15])[H:12])([H:6])([H:7])[H:8]>>[C:1]([C:2][C:3]([C:4]([C:5]([H:13])([H:14])[H:15])([H:9])[H:12])([H:10])[H:11])([H:6])([H:7])[H:8]"
C        1.79232251      -0.88026629      -0.04350659
C        1.14692868       0.33725411       0.51211237
C        0.30262333       1.12464978      -0.40972126
C       -0.69586969       0.47638783       0.54085084
C       -1.82745188      -0.28214773      -0.12024840
H        1.23181067      -1.35349376      -0.85834453
H        2.05362143      -1.62796796       0.70702524
H        2.74822531      -0.51620876      -0.44450846
H        0.12757299      -0.05447715       1.53791999
H        0.31451150       2.20753753      -0.33514898
H        0.26562696       0.77750406      -1.44453815
H       -1.07628895       1.21885246       1.24175481
H       -2.51281383       0.40807695      -0.61741567
H       -1.47022125      -0.98132530      -0.87807657
H       -2.40059778      -0.85437577       0.61184533
15
Frame=14 idx=005030 GeodesicLength=0.8046627162692247 rxn_smarts="[C:1]([C@@:2]1([H:9])[C:3]([H:10])([H:11])[C@:4]1([C:5]([H:13])([H:14])[H:15])[H:12])([H:6])([H:7])[H:8]>>[C:1]([C:2][C:3]([C:4]([C:5]([H:13])([H:14])[H:15])([H:9])[H:12])([H:10])[H:11])([H:6])([H:7])[H:8]"
C        1.80953523      -0.87827896      -0.03999373
C        1.14117994       0.32751056       0.50998901
C        0.29815351       1.11206050      -0.41516881
C       -0.69822486       0.46637348       0.53938286
C       -1.84307317      -0.27120418      -0.12329145
H        1.25507365      -1.36136980      -0.85287751
H        2.08283470      -1.62034834       0.71190431
H        2.76006977      -0.49931039      -0.44052665
H        0.13688552      -0.06371556       1.55434025
H        0.30649006       2.19511605      -0.34339292
H        0.26505024       0.76083440      -1.44868760
H       -1.07123714       1.21100376       1.24226022
H       -2.52504062       0.43271171      -0.60586843
H       -1.50110814      -0.96423726      -0.89375720
H       -2.41658870      -0.84714599       0.60568767
15
Frame=15 idx=005030 GeodesicLength=0.8620745939580812 rxn_smarts="[C:1]([C@@:2]1([H:9])[C:3]([H:10])([H:11])[C@:4]1([C:5]([H:13])([H:14])[H:15])[H:12])([H:6])([H:7])[H:8]>>[C:1]([C:2][C:3]([C:4]([C:5]([H:13])([H:14])[H:15])([H:9])[H:12])([H:10])[H:11])([H:6])([H:7])[H:8]"
C        1.82708379      -0.87607159      -0.03639183
C        1.13523126       0.31717716       0.50778824
C        0.29358283       1.09888862      -0.42077116
C       -0.70079072       0.45587805       0.53770025
C       -1.85901308      -0.25992336      -0.12634499
H        1.27921721      -1.36917970      -0.84742960
H        2.11246152      -1.61218711       0.71692117
H        2.77191761      -0.48180071      -0.43623154
H        0.14660443      -0.07301314       1.57095283
H        0.29846441       2.18209758      -0.35186116
H        0.26432000       0.74344568      -1.45291321
H       -1.06607705       1.20264679       1.24267621
H       -2.53713684       0.45789743      -0.59378159
H       -1.53283703      -0.94620928      -0.90964441
H       -2.43302833      -0.83964642       0.59933080
15
Frame=16 idx=005030 GeodesicLength=0.919458677069805 rxn_smarts="[C:1]([C@@:2]1([H:9])[C:3]([H:10])([H:11])[C@:4]1([C:5]([H:13])([H:14])[H:15])[H:12])([H:6])([H:7])[H:8]>>[C:1]([C:2][C:3]([C:4]([C:5]([H:13])([H:14])[H:15])([H:9])[H:12])([H:10])[H:11])([H:6])([H:7])[H:8]"
C        1.84496810      -0.87363069      -0.03269995
C        1.12906841       0.30620421       0.50549723
C        0.28890373       1.08509763      -0.42653699
C       -0.70358206       0.44487291       0.53579404
C       -1.87527193      -0.24829106      -0.12940598
H        1.30428550      -1.37689735      -0.84202188
H        2.14248914      -1.60346177       0.72208353
H        2.78374905      -0.46364646      -0.43159553
H        0.15675384      -0.08234749       1.58776705
H        0.29044136       2.16844686      -0.36056338
H        0.26341787       0.72529214      -1.45721950
H       -1.06081073       1.19375201       1.24299024
H       -2.54906705       0.48364204      -0.58112618
H       -1.56541094      -0.92717162      -0.92572393
H       -2.44993428      -0.83186137       0.59276123
