11
Frame=0 idx=002851 GeodesicLength=0.0 rxn_smarts="[C:1]([N:2]([C:3]([C:4]#[N:5])([H:10])[H:11])[H:9])([H:6])([H:7])[H:8]>>[C:1](=[N:2][H:9])([H:7])[H:8].[C:3](=[C:4]=[N:5][H:6])([H:10])[H:11]"
C        1.25049917      -0.55929179      -0.22775982
N        0.90364162       0.59000534       0.34810374
C       -1.11859769       1.00840222       0.21384450
C       -1.48340258      -0.18884101      -0.29785001
N       -1.19679333      -1.26377502      -0.73278207
H        0.01071302      -1.23594851      -0.59898137
H        1.58992516      -1.39515674       0.38422797
H        1.66002827      -0.49659441      -1.23460933
H        0.84154377       0.45892474       1.35447901
H       -1.35709109       1.22517699       1.24804798
H       -1.10046636       1.85709816      -0.45672060
11
Frame=1 idx=002851 GeodesicLength=0.07869525627563616 rxn_smarts="[C:1]([N:2]([C:3]([C:4]#[N:5])([H:10])[H:11])[H:9])([H:6])([H:7])[H:8]>>[C:1](=[N:2][H:9])([H:7])[H:8].[C:3](=[C:4]=[N:5][H:6])([H:10])[H:11]"
C        1.26065985      -0.55884087      -0.23181866
N        0.90246842       0.56602370       0.38579747
C       -1.11730385       1.02019681       0.19907113
C       -1.49734792      -0.18041407      -0.30151446
N       -1.21613792      -1.26960775      -0.70171737
H        0.00839754      -1.24665281      -0.57008102
H        1.65544737      -1.39329846       0.34806967
H        1.63542417      -0.45511917      -1.24883569
H        0.83771866       0.40188400       1.38685510
H       -1.38241150       1.25976851       1.22180205
H       -1.08691482       1.85606011      -0.48762819
11
Frame=2 idx=002851 GeodesicLength=0.1565541645182435 rxn_smarts="[C:1]([N:2]([C:3]([C:4]#[N:5])([H:10])[H:11])[H:9])([H:6])([H:7])[H:8]>>[C:1](=[N:2][H:9])([H:7])[H:8].[C:3](=[C:4]=[N:5][H:6])([H:10])[H:11]"
C        1.27021658      -0.55832648      -0.23531500
N        0.90072048       0.54145230       0.42161605
C       -1.11564196       1.03085422       0.18502484
C       -1.51142191      -0.17273944      -0.30441346
N       -1.23569574      -1.27392023      -0.67292273
H        0.00625517      -1.25684953      -0.54226340
H        1.71755894      -1.38790689       0.31253513
H        1.61176745      -0.41530514      -1.25931105
H        0.83552514       0.34592161       1.41670988
H       -1.40519936       1.29309966       1.19559330
H       -1.07408479       1.85371993      -0.51725355
11
Frame=3 idx=002851 GeodesicLength=0.23388079240022203 rxn_smarts="[C:1]([N:2]([C:3]([C:4]#[N:5])([H:10])[H:11])[H:9])([H:6])([H:7])[H:8]>>[C:1](=[N:2][H:9])([H:7])[H:8].[C:3](=[C:4]=[N:5][H:6])([H:10])[H:11]"
C        1.27922709      -0.55785471      -0.23828232
N        0.89844025       0.51629221       0.45572642
C       -1.11371892       1.04052793       0.17165993
C       -1.52578824      -0.16576824      -0.30628203
N       -1.25560743      -1.27693441      -0.64636656
H        0.00421100      -1.26654349      -0.51590372
H        1.77653885      -1.37929105       0.27786586
H        1.58933717      -0.37704839      -1.26638164
H        0.83513375       0.29099918       1.44435973
H       -1.42564858       1.32548967       1.16945034
H       -1.06212494       1.85013130      -0.54584602
11
Frame=4 idx=002851 GeodesicLength=0.31083679177091605 rxn_smarts="[C:1]([N:2]([C:3]([C:4]#[N:5])([H:10])[H:11])[H:9])([H:6])([H:7])[H:8]>>[C:1](=[N:2][H:9])([H:7])[H:8].[C:3](=[C:4]=[N:5][H:6])([H:10])[H:11]"
C        1.28771942      -0.55745701      -0.24076333
N        0.89562146       0.49044265       0.48842584
C       -1.11156835       1.04935499       0.15886950
C       -1.54055307      -0.15937846      -0.30701022
N       -1.27601300      -1.27889758      -0.62168159
H        0.00218828      -1.27578121      -0.49118575
H        1.83285700      -1.36760287       0.24401114
H        1.56819280      -0.34008923      -1.27039119
H        0.83649945       0.23681047       1.47017018
H       -1.44400522       1.35729294       1.14324533
H       -1.05093878       1.84530531      -0.57368991
11
Frame=5 idx=002851 GeodesicLength=0.3872929324222767 rxn_smarts="[C:1]([N:2]([C:3]([C:4]#[N:5])([H:10])[H:11])[H:9])([H:6])([H:7])[H:8]>>[C:1](=[N:2][H:9])([H:7])[H:8].[C:3](=[C:4]=[N:5][H:6])([H:10])[H:11]"
C        1.29570348      -0.55720344      -0.24277560
N        0.89224730       0.46385455       0.51977722
C       -1.10919936       1.05740734       0.14657515
C       -1.55574689      -0.15343485      -0.30657537
N       -1.29696364      -1.27987911      -0.59882727
H        0.00011046      -1.28462654      -0.46816801
H        1.88670920      -1.35290086       0.21124522
H        1.54830557      -0.30433695      -1.27162626
H        0.83970206       0.18330759       1.49430016
H       -1.46027565       1.38851173       1.11698149
H       -1.04059251       1.83930053      -0.60090671
11
Frame=6 idx=002851 GeodesicLength=0.4636993934991619 rxn_smarts="[C:1]([N:2]([C:3]([C:4]#[N:5])([H:10])[H:11])[H:9])([H:6])([H:7])[H:8]>>[C:1](=[N:2][H:9])([H:7])[H:8].[C:3](=[C:4]=[N:5][H:6])([H:10])[H:11]"
C        1.30329311      -0.55717481      -0.24433408
N        0.88838398       0.43649900       0.54991103
C       -1.10669619       1.06481372       0.13471957
C       -1.57150649      -0.14780489      -0.30506796
N       -1.31864504      -1.28006461      -0.57767884
H       -0.00209996      -1.29324518      -0.44688153
H        1.93848156      -1.33530339       0.17964188
H        1.52974542      -0.26975026      -1.27035264
H        0.84484147       0.13044425       1.51695719
H       -1.47467455       1.41928242       1.09064414
H       -1.03112328       1.83230374      -0.62755877
11
Frame=7 idx=002851 GeodesicLength=0.5395209130087173 rxn_smarts="[C:1]([N:2]([C:3]([C:4]#[N:5])([H:10])[H:11])[H:9])([H:6])([H:7])[H:8]>>[C:1](=[N:2][H:9])([H:7])[H:8].[C:3](=[C:4]=[N:5][H:6])([H:10])[H:11]"
C        1.31044050      -0.55743666      -0.24547284
N        0.88394532       0.40831911       0.57885986
C       -1.10401661       1.07159468       0.12325916
C       -1.58770035      -0.14232278      -0.30260917
N       -1.34099052      -1.27948426      -0.55800452
H       -0.00445990      -1.30167977      -0.42731387
H        1.98824560      -1.31477011       0.14922916
H        1.51242888      -0.23634907      -1.26674879
H        0.85179890       0.07826639       1.53818704
H       -1.48726060       1.44955973       1.06422017
H       -1.02243122       1.82430273      -0.65360620
11
Frame=8 idx=002851 GeodesicLength=0.615356009677336 rxn_smarts="[C:1]([N:2]([C:3]([C:4]#[N:5])([H:10])[H:11])[H:9])([H:6])([H:7])[H:8]>>[C:1](=[N:2][H:9])([H:7])[H:8].[C:3](=[C:4]=[N:5][H:6])([H:10])[H:11]"
C        1.31729645      -0.55803939      -0.24620989
N        0.87903505       0.37922473       0.60673667
C       -1.10122142       1.07785615       0.11208051
C       -1.60447747      -0.13687285      -0.29930757
N       -1.36422279      -1.27824571      -0.53965403
H       -0.00705523      -1.31008586      -0.40937888
H        2.03634434      -1.29133686       0.12016179
H        1.49629468      -0.20396117      -1.26105773
H        0.86070779       0.02658252       1.55816916
H       -1.49812831       1.47936229       1.03767255
H       -1.01457309       1.81551616      -0.67921257
11
Frame=9 idx=002851 GeodesicLength=0.6908849102780998 rxn_smarts="[C:1]([N:2]([C:3]([C:4]#[N:5])([H:10])[H:11])[H:9])([H:6])([H:7])[H:8]>>[C:1](=[N:2][H:9])([H:7])[H:8].[C:3](=[C:4]=[N:5][H:6])([H:10])[H:11]"
C        1.32384903      -0.55902016      -0.24656740
N        0.87359056       0.34918066       0.63358650
C       -1.09824150       1.08360416       0.10115331
C       -1.62170593      -0.13136245      -0.29533114
N       -1.38829561      -1.27637835      -0.52260763
H       -0.00989374      -1.31856286      -0.39296587
H        2.08277221      -1.26490537       0.09248794
H        1.48112563      -0.17268071      -1.25343154
H        0.87152319      -0.02447461       1.57694108
H       -1.50725625       1.50862774       1.01103209
H       -1.00746758       1.80597194      -0.70429735
11
Frame=10 idx=002851 GeodesicLength=0.7662222092365544 rxn_smarts="[C:1]([N:2]([C:3]([C:4]#[N:5])([H:10])[H:11])[H:9])([H:6])([H:7])[H:8]>>[C:1](=[N:2][H:9])([H:7])[H:8].[C:3](=[C:4]=[N:5][H:6])([H:10])[H:11]"
C        1.33015611      -0.56037075      -0.24657033
N        0.86758774       0.31798273       0.65958785
C       -1.09506992       1.08890185       0.09037409
C       -1.63938972      -0.12570751      -0.29062020
N       -1.41323694      -1.27395206      -0.50648223
H       -0.01295313      -1.32718104      -0.37808208
H        2.12772093      -1.23539076       0.06609701
H        1.46676204      -0.14223343      -1.24394431
H        0.88414257      -0.07527998       1.59460418
H       -1.51471177       1.53757084       0.98410801
H       -1.00100790       1.79566011      -0.72907200
11
Frame=11 idx=002851 GeodesicLength=0.8418289319628037 rxn_smarts="[C:1]([N:2]([C:3]([C:4]#[N:5])([H:10])[H:11])[H:9])([H:6])([H:7])[H:8]>>[C:1](=[N:2][H:9])([H:7])[H:8].[C:3](=[C:4]=[N:5][H:6])([H:10])[H:11]"
C        1.33635734      -0.56209412      -0.24627805
N        0.86111361       0.28551367       0.68479755
C       -1.09169471       1.09373991       0.07965934
C       -1.65766186      -0.11983746      -0.28524852
N       -1.43931672      -1.27097923      -0.49105402
H       -0.01633168      -1.33596785      -0.36479253
H        2.17126571      -1.20263528       0.04116760
H        1.45325781      -0.11252238      -1.23277942
H        0.89857963      -0.12589092       1.61126328
H       -1.52045582       1.56610142       0.95694738
H       -0.99511332       1.78457225      -0.75368260
11
Frame=12 idx=002851 GeodesicLength=0.9166999954527347 rxn_smarts="[C:1]([N:2]([C:3]([C:4]#[N:5])([H:10])[H:11])[H:9])([H:6])([H:7])[H:8]>>[C:1](=[N:2][H:9])([H:7])[H:8].[C:3](=[C:4]=[N:5][H:6])([H:10])[H:11]"
C        1.34231042      -0.56423151      -0.24570576
N        0.85401221       0.25178383       0.70907034
C       -1.08800423       1.09812060       0.06904109
C       -1.67613847      -0.11370426      -0.27930827
N       -1.46615333      -1.26751870      -0.47617307
H       -0.01987997      -1.34501056      -0.35310123
H        2.21298717      -1.16662977       0.01774983
H        1.44033684      -0.08363726      -1.21981339
H        0.91464198      -0.17609217       1.62659918
H       -1.52441127       1.59417663       0.92949826
H       -0.98970135       1.77274317      -0.77785698
11
Frame=13 idx=002851 GeodesicLength=0.9921135692540978 rxn_smarts="[C:1]([N:2]([C:3]([C:4]#[N:5])([H:10])[H:11])[H:9])([H:6])([H:7])[H:8]>>[C:1](=[N:2][H:9])([H:7])[H:8].[C:3](=[C:4]=[N:5][H:6])([H:10])[H:11]"
C        1.34837335      -0.56677788      -0.24491321
N        0.84656778       0.21670198       0.73248906
C       -1.08413943       1.10207009       0.05845202
C       -1.69515680      -0.10721923      -0.27293233
N       -1.49417889      -1.26352120      -0.46187559
H       -0.02368749      -1.35436432      -0.34294617
H        2.25308972      -1.12754695      -0.00389338
H        1.42817358      -0.05557408      -1.20545462
H        0.93262175      -0.22579364       1.64095922
H       -1.52675806       1.62166612       0.90194320
H       -0.98490552       1.76035910      -0.80182819
11
Frame=14 idx=002851 GeodesicLength=1.0669079408337951 rxn_smarts="[C:1]([N:2]([C:3]([C:4]#[N:5])([H:10])[H:11])[H:9])([H:6])([H:7])[H:8]>>[C:1](=[N:2][H:9])([H:7])[H:8].[C:3](=[C:4]=[N:5][H:6])([H:10])[H:11]"
C        1.35441316      -0.56968922      -0.24391394
N        0.83861792       0.18032720       0.75487640
C       -1.07993888       1.10553930       0.04793919
C       -1.71423486      -0.10037111      -0.26624037
N       -1.52290441      -1.25898368      -0.44817724
H       -0.02754380      -1.36406276      -0.33427684
H        2.29093963      -1.08551654      -0.02367926
H        1.41636072      -0.02853170      -1.18960382
H        0.95228270      -0.27453974       1.65400815
H       -1.52734344       1.64841354       0.87431662
H       -0.98064873       1.74741471      -0.82524889
11
Frame=15 idx=002851 GeodesicLength=1.1419072058004196 rxn_smarts="[C:1]([N:2]([C:3]([C:4]#[N:5])([H:10])[H:11])[H:9])([H:6])([H:7])[H:8]>>[C:1](=[N:2][H:9])([H:7])[H:8].[C:3](=[C:4]=[N:5][H:6])([H:10])[H:11]"
C        1.36064626      -0.57290179      -0.24277892
N        0.83033834       0.14249406       0.77631893
C       -1.07546871       1.10855173       0.03742726
C       -1.73361655      -0.09313898      -0.25914036
N       -1.55263527      -1.25395712      -0.43473575
H       -0.03148469      -1.37411122      -0.32729116
H        2.32665814      -1.04060715      -0.04145614
H        1.40506600      -0.00223125      -1.17242562
H        0.97363898      -0.32252797       1.66590482
H       -1.52623628       1.67451855       0.84658315
H       -0.97690622       1.73391114      -0.84840622
11
Frame=16 idx=002851 GeodesicLength=1.2168700384472417 rxn_smarts="[C:1]([N:2]([C:3]([C:4]#[N:5])([H:10])[H:11])[H:9])([H:6])([H:7])[H:8]>>[C:1](=[N:2][H:9])([H:7])[H:8].[C:3](=[C:4]=[N:5][H:6])([H:10])[H:11]"
C        1.36710139      -0.57630835      -0.24156272
N        0.82173460       0.10313178       0.79675793
C       -1.07065434       1.11105667       0.02691317
C       -1.75316195      -0.08551258      -0.25156407
N       -1.58325353      -1.24842241      -0.42130353
H       -0.03540509      -1.38446057      -0.32210119
H        2.35996832      -0.99289088      -0.05713918
H        1.39418501       0.02339624      -1.15394973
H        0.99641635      -0.36968505       1.67654145
H       -1.52336127       1.69996275       0.81870775
H       -0.97356950       1.71973241      -0.87129987
