11
Frame=0 idx=003064 GeodesicLength=0.0 rxn_smarts="[C:1](/[C:2](=[N:3]\[O:4][H:10])[C:5]#[C:6][H:11])([H:7])([H:8])[H:9]>>[C:1]([C:2]([N:3]=[O:4])=[C:5]=[C:6]([H:10])[H:11])([H:7])([H:8])[H:9]"
C       -1.11725344      -1.04969264       0.26290598
C       -0.27492721      -0.26205718      -0.67291376
N       -0.47839896       1.01966964      -1.10921357
O       -0.51924841       1.68624143       0.03400149
C        1.09929978      -0.21972130      -0.68709337
C        1.84571133       0.54678445      -0.00121361
H       -1.47873897      -1.93904226      -0.26086882
H       -0.55691206      -1.37908298       1.13862169
H       -1.97879143      -0.45576627       0.56409569
H        0.60977688       1.46208556       0.34687058
H        2.84948246       0.59058154       0.38480766
11
Frame=1 idx=003064 GeodesicLength=0.09949274892651856 rxn_smarts="[C:1](/[C:2](=[N:3]\[O:4][H:10])[C:5]#[C:6][H:11])([H:7])([H:8])[H:9]>>[C:1]([C:2]([N:3]=[O:4])=[C:5]=[C:6]([H:10])[H:11])([H:7])([H:8])[H:9]"
C       -1.11636514      -1.05234570       0.26307138
C       -0.26379203      -0.27103513      -0.66943414
N       -0.48285434       1.00210913      -1.12195610
O       -0.54736105       1.68924429       0.00543643
C        1.11123613      -0.22595714      -0.66193469
C        1.85494742       0.55283725       0.01201390
H       -1.52174729      -1.91065102      -0.27983108
H       -0.55047113      -1.42620021       1.11686469
H       -1.95384412      -0.44670355       0.60579091
H        0.60588316       1.49455661       0.34649035
H        2.86436839       0.59414546       0.38348834
11
Frame=2 idx=003064 GeodesicLength=0.19893022500099827 rxn_smarts="[C:1](/[C:2](=[N:3]\[O:4][H:10])[C:5]#[C:6][H:11])([H:7])([H:8])[H:9]>>[C:1]([C:2]([N:3]=[O:4])=[C:5]=[C:6]([H:10])[H:11])([H:7])([H:8])[H:9]"
C       -1.11543435      -1.05501395       0.26322889
C       -0.25245698      -0.28016797      -0.66590033
N       -0.48698436       0.98400444      -1.13462484
O       -0.57597078       1.69092613      -0.02372613
C        1.12300679      -0.23200872      -0.63581013
C        1.86410600       0.55871550       0.02608537
H       -1.56494740      -1.87918097      -0.29733800
H       -0.54575019      -1.47416971       1.09290100
H       -1.92653781      -0.43882836       0.64795553
H        0.60155637       1.52758561       0.34562656
H        2.87941270       0.59813800       0.38160207
11
Frame=3 idx=003064 GeodesicLength=0.29836866738694784 rxn_smarts="[C:1](/[C:2](=[N:3]\[O:4][H:10])[C:5]#[C:6][H:11])([H:7])([H:8])[H:9]>>[C:1]([C:2]([N:3]=[O:4])=[C:5]=[C:6]([H:10])[H:11])([H:7])([H:8])[H:9]"
C       -1.11452641      -1.05767562       0.26332080
C       -0.24091736      -0.28947852      -0.66236448
N       -0.49067689       0.96541458      -1.14714124
O       -0.60510244       1.69115583      -0.05331588
C        1.13458529      -0.23793911      -0.60861400
C        1.87318272       0.56428359       0.04120803
H       -1.60799890      -1.84472095      -0.31317907
H       -0.54305639      -1.52250001       1.06680834
H       -1.89703549      -0.43228623       0.69012794
H        0.59676286       1.56100803       0.34454344
H        2.89478302       0.60273841       0.37860613
11
Frame=4 idx=003064 GeodesicLength=0.3980028190564372 rxn_smarts="[C:1](/[C:2](=[N:3]\[O:4][H:10])[C:5]#[C:6][H:11])([H:7])([H:8])[H:9]>>[C:1]([C:2]([N:3]=[O:4])=[C:5]=[C:6]([H:10])[H:11])([H:7])([H:8])[H:9]"
C       -1.11365086      -1.06030014       0.26331913
C       -0.22916870      -0.29898227      -0.65890790
N       -0.49389247       0.94640850      -1.15950653
O       -0.63483432       1.68985730      -0.08323628
C        1.14595409      -0.24379653      -0.58032277
C        1.88219603       0.56944118       0.05748801
H       -1.65060880      -1.80733928      -0.32717529
H       -0.54250011      -1.57082054       1.03865229
H       -1.86544450      -0.42715466       0.73200684
H        0.59145802       1.59473497       0.34342328
H        2.91049162       0.60795148       0.37425922
11
Frame=5 idx=003064 GeodesicLength=0.4972064762495708 rxn_smarts="[C:1](/[C:2](=[N:3]\[O:4][H:10])[C:5]#[C:6][H:11])([H:7])([H:8])[H:9]>>[C:1]([C:2]([N:3]=[O:4])=[C:5]=[C:6]([H:10])[H:11])([H:7])([H:8])[H:9]"
C       -1.11247887      -1.06282141       0.26328663
C       -0.21737821      -0.30848088      -0.65575900
N       -0.49697379       0.92720166      -1.17160708
O       -0.66514683       1.68693869      -0.11333903
C        1.15681074      -0.24919196      -0.55171581
C        1.89108363       0.57452331       0.07384508
H       -1.69216933      -1.76728339      -0.33873703
H       -0.54352079      -1.61838814       1.00840658
H       -1.83153585      -0.42368536       0.77343086
H        0.58577171       1.62887061       0.34183467
H        2.92553760       0.61231687       0.37035412
11
Frame=6 idx=003064 GeodesicLength=0.5965125019323275 rxn_smarts="[C:1](/[C:2](=[N:3]\[O:4][H:10])[C:5]#[C:6][H:11])([H:7])([H:8])[H:9]>>[C:1]([C:2]([N:3]=[O:4])=[C:5]=[C:6]([H:10])[H:11])([H:7])([H:8])[H:9]"
C       -1.11124142      -1.06521610       0.26311622
C       -0.20551444      -0.31799528      -0.65290518
N       -0.49974672       0.90795857      -1.18334461
O       -0.69610096       1.68239067      -0.14328274
C        1.16723500      -0.25439144      -0.52251511
C        1.89996205       0.57911284       0.09083032
H       -1.73212087      -1.72511351      -0.34797698
H       -0.54654545      -1.66449513       0.97670587
H       -1.79619415      -0.42188806       0.81349789
H        0.57970651       1.66318849       0.34042959
H        2.94056045       0.61644896       0.36544474
11
Frame=7 idx=003064 GeodesicLength=0.6957045390282347 rxn_smarts="[C:1](/[C:2](=[N:3]\[O:4][H:10])[C:5]#[C:6][H:11])([H:7])([H:8])[H:9]>>[C:1]([C:2]([N:3]=[O:4])=[C:5]=[C:6]([H:10])[H:11])([H:7])([H:8])[H:9]"
C       -1.10977412      -1.06745118       0.26283768
C       -0.19368834      -0.32737736      -0.65046059
N       -0.50245944       0.88887171      -1.19465323
O       -0.72773270       1.67623530      -0.17292381
C        1.17705515      -0.25920580      -0.49321479
C        1.90884199       0.58335178       0.10778156
H       -1.77001188      -1.68125625      -0.35467204
H       -0.55114531      -1.70862999       0.94377272
H       -1.75956924      -0.42182697       0.85198524
H        0.57338681       1.69782398       0.33900164
H        2.95509708       0.61946479       0.36054561
11
Frame=8 idx=003064 GeodesicLength=0.7949228475306465 rxn_smarts="[C:1](/[C:2](=[N:3]\[O:4][H:10])[C:5]#[C:6][H:11])([H:7])([H:8])[H:9]>>[C:1]([C:2]([N:3]=[O:4])=[C:5]=[C:6]([H:10])[H:11])([H:7])([H:8])[H:9]"
C       -1.10811071      -1.06951924       0.26242697
C       -0.18196234      -0.33651903      -0.64844603
N       -0.50521663       0.87015189      -1.20544761
O       -0.76008569       1.66856792      -0.20201568
C        1.18622677      -0.26364424      -0.46400398
C        1.91782409       0.58714010       0.12453245
H       -1.80537676      -1.63640170      -0.35890634
H       -0.55715690      -1.75025268       0.91014623
H       -1.72233606      -0.42347716       0.88840304
H        0.56695528       1.73285305       0.33769350
H        2.96923895       0.62110109       0.35561745
11
Frame=9 idx=003064 GeodesicLength=0.8942473548534775 rxn_smarts="[C:1](/[C:2](=[N:3]\[O:4][H:10])[C:5]#[C:6][H:11])([H:7])([H:8])[H:9]>>[C:1]([C:2]([N:3]=[O:4])=[C:5]=[C:6]([H:10])[H:11])([H:7])([H:8])[H:9]"
C       -1.10652244      -1.07143593       0.26175168
C       -0.17032350      -0.34536584      -0.64657565
N       -0.50783088       0.85190207      -1.21541067
O       -0.79306419       1.65938613      -0.23019031
C        1.19477029      -0.26788662      -0.43444044
C        1.92702454       0.59009082       0.14172928
H       -1.83767911      -1.59137101      -0.36131030
H       -0.56481119      -1.78868683       0.87674942
H       -1.68580603      -0.42680286       0.92181271
H        0.56066324       1.76820046       0.33700220
H        2.98357929       0.62196961       0.34888209
11
Frame=10 idx=003064 GeodesicLength=0.993613186424303 rxn_smarts="[C:1](/[C:2](=[N:3]\[O:4][H:10])[C:5]#[C:6][H:11])([H:7])([H:8])[H:9]>>[C:1]([C:2]([N:3]=[O:4])=[C:5]=[C:6]([H:10])[H:11])([H:7])([H:8])[H:9]"
C       -1.10476844      -1.07321357       0.26092202
C       -0.15890646      -0.35371045      -0.64501103
N       -0.51073341       0.83434924      -1.22466921
O       -0.82681956       1.64892907      -0.25749284
C        1.20256953      -0.27168673      -0.40526454
C        1.93649361       0.59247604       0.15842071
H       -1.86688556      -1.54662876      -0.36175093
H       -0.57328608      -1.82404765       0.84360688
H       -1.64991093      -0.43166962       0.95262517
H        0.55468003       1.80431406       0.33639089
H        2.99756726       0.62088838       0.34222286
11
Frame=11 idx=003064 GeodesicLength=1.0930595373231204 rxn_smarts="[C:1](/[C:2](=[N:3]\[O:4][H:10])[C:5]#[C:6][H:11])([H:7])([H:8])[H:9]>>[C:1]([C:2]([N:3]=[O:4])=[C:5]=[C:6]([H:10])[H:11])([H:7])([H:8])[H:9]"
C       -1.10291527      -1.07488464       0.25990787
C       -0.14772287      -0.36147116      -0.64360295
N       -0.51395090       0.81754113      -1.23314123
O       -0.86140751       1.63724842      -0.28386763
C        1.20963709      -0.27505541      -0.37637377
C        1.94630206       0.59420894       0.17475190
H       -1.89298644      -1.50258100      -0.36061415
H       -0.58240178      -1.85635211       0.81102725
H       -1.61513019      -0.43795376       0.98075644
H        0.54920796       1.84139492       0.33582301
H        3.01136784       0.61790467       0.33533325
11
Frame=12 idx=003064 GeodesicLength=1.1926141696670776 rxn_smarts="[C:1](/[C:2](=[N:3]\[O:4][H:10])[C:5]#[C:6][H:11])([H:7])([H:8])[H:9]>>[C:1]([C:2]([N:3]=[O:4])=[C:5]=[C:6]([H:10])[H:11])([H:7])([H:8])[H:9]"
C       -1.10106190      -1.07651045       0.25868397
C       -0.13675461      -0.36859585      -0.64217034
N       -0.51741472       0.80150868      -1.24075357
O       -0.89684197       1.62440358      -0.30931036
C        1.21599549      -0.27803499      -0.34755874
C        1.95651138       0.59517350       0.19101222
H       -1.91608936      -1.45956346      -0.35832016
H       -0.59204461      -1.88577156       0.77921461
H       -1.58191973      -0.44554284       1.00623273
H        0.54448875       1.87968180       0.33525403
H        3.02513127       0.61325159       0.32771559
11
Frame=13 idx=003064 GeodesicLength=1.2922995911469157 rxn_smarts="[C:1](/[C:2](=[N:3]\[O:4][H:10])[C:5]#[C:6][H:11])([H:7])([H:8])[H:9]>>[C:1]([C:2]([N:3]=[O:4])=[C:5]=[C:6]([H:10])[H:11])([H:7])([H:8])[H:9]"
C       -1.09916252      -1.07813285       0.25726998
C       -0.12606616      -0.37495155      -0.64067049
N       -0.52132531       0.78633902      -1.24749308
O       -0.93328234       1.61046528      -0.33381668
C        1.22162991      -0.28051358      -0.31898482
C        1.96718346       0.59544000       0.20699129
H       -1.93631325      -1.41787328      -0.35506499
H       -0.60182190      -1.91248990       0.74822285
H       -1.55039795      -0.45435435       1.02928467
H        0.54076714       1.91953842       0.33433558
H        3.03878892       0.60653280       0.31992569
11
Frame=14 idx=003064 GeodesicLength=1.392139999181507 rxn_smarts="[C:1](/[C:2](=[N:3]\[O:4][H:10])[C:5]#[C:6][H:11])([H:7])([H:8])[H:9]>>[C:1]([C:2]([N:3]=[O:4])=[C:5]=[C:6]([H:10])[H:11])([H:7])([H:8])[H:9]"
C       -1.09724478      -1.07981098       0.25565769
C       -0.11567660      -0.38045250      -0.63898876
N       -0.52573020       0.77208100      -1.25330932
O       -0.97084255       1.59545986      -0.35740020
C        1.22654534      -0.28245595      -0.29057389
C        1.97836422       0.59497884       0.22279699
H       -1.95384374      -1.37773267      -0.35112308
H       -0.61152026      -1.93675073       0.71806921
H       -1.52075021      -0.46432637       1.05009110
H        0.53832021       1.96128463       0.33282153
H        3.05237857       0.59772487       0.31195875
11
Frame=15 idx=003064 GeodesicLength=1.4921632800745475 rxn_smarts="[C:1](/[C:2](=[N:3]\[O:4][H:10])[C:5]#[C:6][H:11])([H:7])([H:8])[H:9]>>[C:1]([C:2]([N:3]=[O:4])=[C:5]=[C:6]([H:10])[H:11])([H:7])([H:8])[H:9]"
C       -1.09529913      -1.08160665       0.25384773
C       -0.10563354      -0.38498110      -0.63704928
N       -0.53076312       0.75880988      -1.25814983
O       -1.00970446       1.57939090      -0.38004640
C        1.23073372      -0.28377046      -0.26233826
C        1.99009686       0.59382180       0.23840151
H       -1.96887387      -1.33934194      -0.34669346
H       -0.62087212      -1.95880222       0.68869895
H       -1.49304296      -0.47544077       1.06888090
H        0.53746318       2.00530295       0.33032627
H        3.06589545       0.58661761       0.30412187
11
Frame=16 idx=003064 GeodesicLength=1.5923991228424177 rxn_smarts="[C:1](/[C:2](=[N:3]\[O:4][H:10])[C:5]#[C:6][H:11])([H:7])([H:8])[H:9]>>[C:1]([C:2]([N:3]=[O:4])=[C:5]=[C:6]([H:10])[H:11])([H:7])([H:8])[H:9]"
C       -1.09332476      -1.08359480       0.25182881
C       -0.09598667      -0.38841758      -0.63476678
N       -0.53654627       0.74661271      -1.26192922
O       -1.05006701       1.56223215      -0.40171279
C        1.23417993      -0.28436477      -0.23424394
C        2.00241354       0.59198231       0.25384174
H       -1.98160965      -1.30287861      -0.34196372
H       -0.62964005      -1.97889711       0.66001471
H       -1.46733496      -0.48772462       1.08586318
H        0.53857641       2.05199841       0.32640792
H        3.07933948       0.57305192       0.29666008
