12
Frame=0 idx=003824 GeodesicLength=0.0 rxn_smarts="[C:1]([C@@:2]1([H:10])[N:3]([H:11])[C@:4]1([C:5]#[N:6])[H:12])([H:7])([H:8])[H:9]>>[C:1]1([H:7])([H:9])[C@@:2]2([H:10])[N:3]([H:11])[C@@:4]2([H:12])/[C:5]1=[N:6]/[H:8]"
C       -0.80548632       0.83508826       0.18099720
C       -0.49456378      -0.52508521       0.74263872
N       -0.37519398      -1.57001614      -0.24354262
C        0.83451907      -0.86728478       0.14442728
C        1.04333119       0.39004160      -0.58993844
N        1.65212765       1.24755450      -1.17896000
H       -0.74772527       1.62895245       0.92878533
H        0.45335358       1.51651930      -0.75445519
H       -1.74844737       0.89081537      -0.36550949
H       -0.76396387      -0.84471138       1.74227703
H       -0.71840612      -1.27573995      -1.15161884
H        1.67045518      -1.42613407       0.54489904
12
Frame=1 idx=003824 GeodesicLength=0.10619352937022171 rxn_smarts="[C:1]([C@@:2]1([H:10])[N:3]([H:11])[C@:4]1([C:5]#[N:6])[H:12])([H:7])([H:8])[H:9]>>[C:1]1([H:7])([H:9])[C@@:2]2([H:10])[N:3]([H:11])[C@@:4]2([H:12])/[C:5]1=[N:6]/[H:8]"
C       -0.80083411       0.83516847       0.18315407
C       -0.49919587      -0.53049623       0.73804181
N       -0.36849547      -1.57115496      -0.25129784
C        0.83671357      -0.86869119       0.15275478
C        1.05442515       0.39060528      -0.57405110
N        1.65093240       1.24653301      -1.17746185
H       -0.71302725       1.63284158       0.92366437
H        0.41414991       1.51889217      -0.79520568
H       -1.75943378       0.90299024      -0.33343099
H       -0.78120143      -0.85587649       1.73223860
H       -0.70118591      -1.27296305      -1.16201670
H        1.66715279      -1.42784883       0.56361052
12
Frame=2 idx=003824 GeodesicLength=0.21203758800694056 rxn_smarts="[C:1]([C@@:2]1([H:10])[N:3]([H:11])[C@:4]1([C:5]#[N:6])[H:12])([H:7])([H:8])[H:9]>>[C:1]1([H:7])([H:9])[C@@:2]2([H:10])[N:3]([H:11])[C@@:4]2([H:12])/[C:5]1=[N:6]/[H:8]"
C       -0.79617439       0.83538128       0.18485450
C       -0.50377188      -0.53563017       0.73314612
N       -0.36163124      -1.57219133      -0.25898884
C        0.83888276      -0.86997721       0.16102071
C        1.06551369       0.39116269      -0.55835978
N        1.64864669       1.24530891      -1.17701350
H       -0.67922130       1.63628928       0.91758007
H        0.37571878       1.52030015      -0.83326856
H       -1.76963966       0.91555470      -0.30071434
H       -0.79831723      -0.86653160       1.72177366
H       -0.68367127      -1.27024393      -1.17230302
H        1.66366503      -1.42942275       0.58227299
12
Frame=3 idx=003824 GeodesicLength=0.3176515989363503 rxn_smarts="[C:1]([C@@:2]1([H:10])[N:3]([H:11])[C@:4]1([C:5]#[N:6])[H:12])([H:7])([H:8])[H:9]>>[C:1]1([H:7])([H:9])[C@@:2]2([H:10])[N:3]([H:11])[C@@:4]2([H:12])/[C:5]1=[N:6]/[H:8]"
C       -0.79149367       0.83569228       0.18610917
C       -0.50828055      -0.54051854       0.72795585
N       -0.35460201      -1.57315630      -0.26660582
C        0.84102436      -0.87118452       0.16925278
C        1.07665481       0.39163727      -0.54286202
N        1.64539277       1.24367964      -1.17753475
H       -0.64631470       1.63928893       0.91061402
H        0.33776601       1.52132248      -0.86889228
H       -1.77895474       0.92847899      -0.26738050
H       -0.81531483      -0.87672115       1.71088023
H       -0.66583290      -1.26760936      -1.18246831
H        1.65995545      -1.43090970       0.60093163
12
Frame=4 idx=003824 GeodesicLength=0.42319838724094316 rxn_smarts="[C:1]([C@@:2]1([H:10])[N:3]([H:11])[C@:4]1([C:5]#[N:6])[H:12])([H:7])([H:8])[H:9]>>[C:1]1([H:7])([H:9])[C@@:2]2([H:10])[N:3]([H:11])[C@@:4]2([H:12])/[C:5]1=[N:6]/[H:8]"
C       -0.78676526       0.83608777       0.18693368
C       -0.51271395      -0.54518765       0.72247751
N       -0.34740545      -1.57407696      -0.27415430
C        0.84314534      -0.87236893       0.17749405
C        1.08792796       0.39195312      -0.52752312
N        1.64125486       1.24154025      -1.17894606
H       -0.61427587       1.64184433       0.90283179
H        0.29994874       1.52240633      -0.90236517
H       -1.78727118       0.94174719      -0.23344132
H       -0.83221610      -0.88648094       1.69956255
H       -0.64763100      -1.26506710      -1.19252698
H        1.65600190      -1.43239740       0.61965737
12
Frame=5 idx=003824 GeodesicLength=0.5289172235811855 rxn_smarts="[C:1]([C@@:2]1([H:10])[N:3]([H:11])[C@:4]1([C:5]#[N:6])[H:12])([H:7])([H:8])[H:9]>>[C:1]1([H:7])([H:9])[C@@:2]2([H:10])[N:3]([H:11])[C@@:4]2([H:12])/[C:5]1=[N:6]/[H:8]"
C       -0.78193009       0.83655805       0.18731779
C       -0.51706223      -0.54965789       0.71670141
N       -0.34001783      -1.57497222      -0.28165060
C        0.84526350      -0.87359781       0.18581447
C        1.09949076       0.39202725      -0.51223668
N        1.63609899       1.23874489      -1.18124373
H       -0.58302977       1.64396654       0.89429540
H        0.26191713       1.52400014      -0.93392584
H       -1.79446486       0.95536432      -0.19890397
H       -0.84907240      -0.89584040       1.68778411
H       -0.62895589      -1.26260376      -1.20250976
H        1.65176268      -1.43398911       0.63855740
12
Frame=6 idx=003824 GeodesicLength=0.6348570814309 rxn_smarts="[C:1]([C@@:2]1([H:10])[N:3]([H:11])[C@:4]1([C:5]#[N:6])[H:12])([H:7])([H:8])[H:9]>>[C:1]1([H:7])([H:9])[C@@:2]2([H:10])[N:3]([H:11])[C@@:4]2([H:12])/[C:5]1=[N:6]/[H:8]"
C       -0.77696193       0.83709186       0.18726458
C       -0.52132116      -0.55394459       0.71062353
N       -0.33242746      -1.57584724      -0.28911231
C        0.84738659      -0.87490357       0.19424980
C        1.11141266       0.39181541      -0.49694459
N        1.62999452       1.23523948      -1.18428653
H       -0.55249526       1.64567758       0.88504114
H        0.22330208       1.52632664      -0.96388915
H       -1.80044088       0.96932310      -0.16373644
H       -0.86591245      -0.90482350       1.67553077
H       -0.60975174      -1.26020544      -1.21243293
H        1.64721502      -1.43574973       0.65769212
12
Frame=7 idx=003824 GeodesicLength=0.7409771068486106 rxn_smarts="[C:1]([C@@:2]1([H:10])[N:3]([H:11])[C@:4]1([C:5]#[N:6])[H:12])([H:7])([H:8])[H:9]>>[C:1]1([H:7])([H:9])[C@@:2]2([H:10])[N:3]([H:11])[C@@:4]2([H:12])/[C:5]1=[N:6]/[H:8]"
C       -0.77182713       0.83768555       0.18676642
C       -0.52548236      -0.55805638       0.70423188
N       -0.32461620      -1.57670471      -0.29655387
C        0.84952101      -0.87631783       0.20283769
C        1.12378815       0.39127560      -0.48157474
N        1.62290960       1.23094611      -1.18798726
H       -0.52260504       1.64699854       0.87508138
H        0.18378500       1.52959425      -0.99246070
H       -1.80509009       0.98361561      -0.12792594
H       -0.88276515      -0.91344465       1.66277177
H       -0.58994338      -1.25785545      -1.22230608
H        1.64232558      -1.43773664       0.67711945
12
Frame=8 idx=003824 GeodesicLength=0.8474222151327063 rxn_smarts="[C:1]([C@@:2]1([H:10])[N:3]([H:11])[C@:4]1([C:5]#[N:6])[H:12])([H:7])([H:8])[H:9]>>[C:1]1([H:7])([H:9])[C@@:2]2([H:10])[N:3]([H:11])[C@@:4]2([H:12])/[C:5]1=[N:6]/[H:8]"
C       -0.76649589       0.83833791       0.18577887
C       -0.52952993      -0.56198769       0.69750278
N       -0.31655594      -1.57754839      -0.30398614
C        0.85167839      -0.87787087       0.21160743
C        1.13672916       0.39035423      -0.46607741
N        1.61479473       1.22576227      -1.19217719
H       -0.49325493       1.64795865       0.86440441
H        0.14296041       1.53399332      -1.01981543
H       -1.80829090       0.99824046      -0.09145133
H       -0.89964493      -0.92169006       1.64946183
H       -0.56944213      -1.25554170      -1.23214020
H        1.63705196      -1.44000812       0.69689238
12
Frame=9 idx=003824 GeodesicLength=0.9539476001212503 rxn_smarts="[C:1]([C@@:2]1([H:10])[N:3]([H:11])[C@:4]1([C:5]#[N:6])[H:12])([H:7])([H:8])[H:9]>>[C:1]1([H:7])([H:9])[C@@:2]2([H:10])[N:3]([H:11])[C@@:4]2([H:12])/[C:5]1=[N:6]/[H:8]"
C       -0.76098921       0.83904728       0.18431940
C       -0.53344584      -0.56573321       0.69043288
N       -0.30827551      -1.57834884      -0.31143434
C        0.85382530      -0.87952692       0.22052982
C        1.15019641       0.38906289      -0.45042424
N        1.60599882       1.21976977      -1.19643675
H       -0.46427569       1.64865011       0.85299424
H        0.10050090       1.53933081      -1.04636259
H       -1.81007517       1.01307331      -0.05422644
H       -0.91649446      -0.92956482       1.63558950
H       -0.54830204      -1.25324313      -1.24192424
H        1.63133650      -1.44251725       0.71694275
12
Frame=10 idx=003824 GeodesicLength=1.0607028768959565 rxn_smarts="[C:1]([C@@:2]1([H:10])[N:3]([H:11])[C@:4]1([C:5]#[N:6])[H:12])([H:7])([H:8])[H:9]>>[C:1]1([H:7])([H:9])[C@@:2]2([H:10])[N:3]([H:11])[C@@:4]2([H:12])/[C:5]1=[N:6]/[H:8]"
C       -0.75522694       0.83981110       0.18226919
C       -0.53722116      -0.56928655       0.68298006
N       -0.29970218      -1.57914870      -0.31888686
C        0.85600495      -0.88137032       0.22969546
C        1.16441779       0.38728576      -0.43456409
N        1.59603292       1.21272328      -1.20098446
H       -0.43569928       1.64902156       0.84080813
H        0.05611201       1.54617639      -1.07182413
H       -1.81014468       1.02818279      -0.01635163
H       -0.93340632      -0.93702275       1.62108908
H       -0.52631860      -1.25098351      -1.25167139
H        1.62515148      -1.44538905       0.73744064
12
Frame=11 idx=003824 GeodesicLength=1.16757510500428 rxn_smarts="[C:1]([C@@:2]1([H:10])[N:3]([H:11])[C@:4]1([C:5]#[N:6])[H:12])([H:7])([H:8])[H:9]>>[C:1]1([H:7])([H:9])[C@@:2]2([H:10])[N:3]([H:11])[C@@:4]2([H:12])/[C:5]1=[N:6]/[H:8]"
C       -0.74917638       0.84063290       0.17958233
C       -0.54084038      -0.57263938       0.67512369
N       -0.29082130      -1.57995321      -0.32634499
C        0.85821820      -0.88341552       0.23912650
C        1.17946358       0.38497357      -0.41846949
N        1.58487643       1.20456512      -1.20569368
H       -0.40745253       1.64908623       0.82782140
H        0.00948647       1.55468542      -1.09626309
H       -1.80838417       1.04352331       0.02213449
H       -0.95038563      -0.94404171       1.60592623
H       -0.50343884      -1.24876949      -1.26136747
H        1.61845455      -1.44864724       0.75842408
12
Frame=12 idx=003824 GeodesicLength=1.2744927898744407 rxn_smarts="[C:1]([C@@:2]1([H:10])[N:3]([H:11])[C@:4]1([C:5]#[N:6])[H:12])([H:7])([H:8])[H:9]>>[C:1]1([H:7])([H:9])[C@@:2]2([H:10])[N:3]([H:11])[C@@:4]2([H:12])/[C:5]1=[N:6]/[H:8]"
C       -0.74281363       0.84151333       0.17619034
C       -0.54428048      -0.57577604       0.66683702
N       -0.28161511      -1.58077571      -0.33380105
C        0.86046218      -0.88567396       0.24883662
C        1.19539928       0.38206982      -0.40215297
N        1.57252186       1.19522882      -1.21037901
H       -0.37945418       1.64885697       0.81399144
H       -0.03970942       1.56501567      -1.11969310
H       -1.80466836       1.05904762       0.06117917
H       -0.96742484      -0.95057934       1.59006174
H       -0.47961819      -1.24662704      -1.27098953
H        1.61120089      -1.45230012       0.77991933
12
Frame=13 idx=003824 GeodesicLength=1.3813244576448325 rxn_smarts="[C:1]([C@@:2]1([H:10])[N:3]([H:11])[C@:4]1([C:5]#[N:6])[H:12])([H:7])([H:8])[H:9]>>[C:1]1([H:7])([H:9])[C@@:2]2([H:10])[N:3]([H:11])[C@@:4]2([H:12])/[C:5]1=[N:6]/[H:8]"
C       -0.73613130       0.84246287       0.17203394
C       -0.54752683      -0.57868055       0.65810222
N       -0.27207214      -1.58162386      -0.34124655
C        0.86273224      -0.88814751       0.25883283
C        1.21225959       0.37853147      -0.38563352
N        1.55905514       1.18466892      -1.21491952
H       -0.35165783       1.64834720       0.79925347
H       -0.09178687       1.57727147      -1.14202471
H       -1.79887947       1.07469518       0.10069311
H       -0.98451848      -0.95660338       1.57347638
H       -0.45483326      -1.24457549      -1.28050700
H        1.60335922      -1.45634633       0.80193936
12
Frame=14 idx=003824 GeodesicLength=1.4880176354589483 rxn_smarts="[C:1]([C@@:2]1([H:10])[N:3]([H:11])[C@:4]1([C:5]#[N:6])[H:12])([H:7])([H:8])[H:9]>>[C:1]1([H:7])([H:9])[C@@:2]2([H:10])[N:3]([H:11])[C@@:4]2([H:12])/[C:5]1=[N:6]/[H:8]"
C       -0.72913320       0.84348032       0.16702761
C       -0.55056231      -0.58133613       0.64889478
N       -0.26218386      -1.58251407      -0.34866888
C        0.86501750      -0.89083047       0.26910784
C        1.23006246       0.37431724      -0.36896146
N        1.54463039       1.17286375      -1.21911017
H       -0.32399108       1.64758180       0.78352087
H       -0.14710618       1.59150228      -1.16315701
H       -1.79089021       1.09041206       0.14061306
H       -1.00164812      -0.96206615       1.55613459
H       -0.42907653      -1.24265658      -1.28988888
H        1.59488115      -1.46075405       0.82448764
12
Frame=15 idx=003824 GeodesicLength=1.594517826387813 rxn_smarts="[C:1]([C@@:2]1([H:10])[N:3]([H:11])[C@:4]1([C:5]#[N:6])[H:12])([H:7])([H:8])[H:9]>>[C:1]1([H:7])([H:9])[C@@:2]2([H:10])[N:3]([H:11])[C@@:4]2([H:12])/[C:5]1=[N:6]/[H:8]"
C       -0.72183744       0.84457514       0.16109052
C       -0.55337658      -0.58372244       0.63919698
N       -0.25194688      -1.58345600      -0.35605535
C        0.86730295      -0.89370885       0.27965152
C        1.24879631       0.36939597      -0.35218999
N        1.52949088       1.15979817      -1.22278639
H       -0.29641370       1.64658639       0.76668393
H       -0.20602247       1.60771702      -1.18289570
H       -1.78057127       1.10613116       0.18083232
H       -1.01879711      -0.96692578       1.53802244
H       -0.40236374      -1.24090340      -1.29910350
H        1.58573905      -1.46548737       0.84755324
12
Frame=16 idx=003824 GeodesicLength=1.7008235761171493 rxn_smarts="[C:1]([C@@:2]1([H:10])[N:3]([H:11])[C@:4]1([C:5]#[N:6])[H:12])([H:7])([H:8])[H:9]>>[C:1]1([H:7])([H:9])[C@@:2]2([H:10])[N:3]([H:11])[C@@:4]2([H:12])/[C:5]1=[N:6]/[H:8]"
C       -0.71427315       0.84574931       0.15411927
C       -0.55596385      -0.58582034       0.62898189
N       -0.24135863      -1.58446389      -0.36339628
C        0.86957331      -0.89676044       0.29044686
C        1.26844127       0.36374159      -0.33538283
N        1.51393854       1.14546067      -1.22576599
H       -0.26887938       1.64539504       0.74859775
H       -0.26892592       1.62588068      -1.20098536
H       -1.76777728       1.12180153       0.22126881
H       -1.03595831      -0.97113759       1.51911067
H       -0.37471290      -1.23936291      -1.30812577
H        1.57589631      -1.47048365       0.87113098
