16
Frame=0 idx=001874 GeodesicLength=0.0 rxn_smarts="[C:1]([C@@:2]1([H:10])[C:3]([H:11])([H:12])[C@:4]1([C:5]([O:6][H:16])([H:14])[H:15])[H:13])([H:7])([H:8])[H:9]>>[C:1]([C@@:2]1([H:10])[C:3]([H:11])([H:12])[C@:4]1([C:5](=[O:6])[H:14])[H:13])([H:7])([H:8])[H:9].[H:15][H:16]"
C       -1.60710802      -0.46301137       0.47389753
C       -0.89612445       0.48225447      -0.46069728
C        0.07033287       1.51567337       0.05364568
C        0.56048361       0.36401823      -0.77315450
C        1.45356389      -0.72230736      -0.24843292
O        1.21113751      -1.98305061      -0.55519860
H       -1.82715231      -1.40869246      -0.02291314
H       -1.01738972      -0.68347028       1.36556301
H       -2.54581898      -0.02350403       0.81629357
H       -1.50111297       0.79642931      -1.30403262
H        0.07616119       2.50514268      -0.38344039
H        0.28892224       1.49691800       1.11605847
H        0.85455202       0.58079519      -1.79624472
H        2.50799543      -0.39750980      -0.18958266
H        1.24413578      -0.59427298       1.15836528
H        1.12742192      -1.46541232       0.74987329
16
Frame=1 idx=001874 GeodesicLength=0.1059774356146984 rxn_smarts="[C:1]([C@@:2]1([H:10])[C:3]([H:11])([H:12])[C@:4]1([C:5]([O:6][H:16])([H:14])[H:15])[H:13])([H:7])([H:8])[H:9]>>[C:1]([C@@:2]1([H:10])[C:3]([H:11])([H:12])[C@:4]1([C:5](=[O:6])[H:14])[H:13])([H:7])([H:8])[H:9].[H:15][H:16]"
C       -1.60940291      -0.46278654       0.46884919
C       -0.89778441       0.48372748      -0.46370903
C        0.06763588       1.51537975       0.05319359
C        0.56011483       0.36669129      -0.77686013
C        1.45523897      -0.71470421      -0.24831765
O        1.20595386      -1.97729643      -0.53884724
H       -1.83562412      -1.40560702      -0.03085218
H       -1.01798671      -0.68852930       1.35785314
H       -2.54559737      -0.02132212       0.81572908
H       -1.50240180       0.79989142      -1.30661815
H        0.07306409       2.50614235      -0.38094421
H        0.28844853       1.49214011       1.11498627
H        0.85151291       0.58708389      -1.79985569
H        2.51305516      -0.39730405      -0.22128410
H        1.25784916      -0.60058110       1.18148337
H        1.13592395      -1.48292553       0.77519374
16
Frame=2 idx=001874 GeodesicLength=0.21170604058122694 rxn_smarts="[C:1]([C@@:2]1([H:10])[C:3]([H:11])([H:12])[C@:4]1([C:5]([O:6][H:16])([H:14])[H:15])[H:13])([H:7])([H:8])[H:9]>>[C:1]([C@@:2]1([H:10])[C:3]([H:11])([H:12])[C@:4]1([C:5](=[O:6])[H:14])[H:13])([H:7])([H:8])[H:9].[H:15][H:16]"
C       -1.61159454      -0.46256759       0.46371767
C       -0.89945192       0.48528354      -0.46679385
C        0.06493773       1.51514859       0.05268977
C        0.55971896       0.36952524      -0.78075665
C        1.45714040      -0.70666426      -0.24825499
O        1.20105035      -1.97105711      -0.52186472
H       -1.84390767      -1.40250670      -0.03884476
H       -1.01846573      -0.69350808       1.35003503
H       -2.54529260      -0.01927459       0.81511033
H       -1.50376580       0.80347247      -1.30920829
H        0.06988952       2.50723330      -0.37841294
H        0.28804770       1.48733847       1.11382274
H        0.84837265       0.59354475      -1.80365184
H        2.51754613      -0.39739031      -0.25360722
H        1.27159310      -0.60737208       1.20493958
H        1.14418173      -1.50120563       0.80108014
16
Frame=3 idx=001874 GeodesicLength=0.31729580292717985 rxn_smarts="[C:1]([C@@:2]1([H:10])[C:3]([H:11])([H:12])[C@:4]1([C:5]([O:6][H:16])([H:14])[H:15])[H:13])([H:7])([H:8])[H:9]>>[C:1]([C@@:2]1([H:10])[C:3]([H:11])([H:12])[C@:4]1([C:5](=[O:6])[H:14])[H:13])([H:7])([H:8])[H:9].[H:15][H:16]"
C       -1.61367076      -0.46235512       0.45850280
C       -0.90112149       0.48692438      -0.46995335
C        0.06223901       1.51498772       0.05212893
C        0.55929929       0.37253349      -0.78485401
C        1.45930596      -0.69814832      -0.24828036
O        1.19647386      -1.96428827      -0.50418918
H       -1.85197885      -1.39940054      -0.04688423
H       -1.01881706      -0.69838970       1.34211508
H       -2.54489902      -0.01736966       0.81442958
H       -1.50520649       0.80717231      -1.31180030
H        0.06662856       2.50842343      -0.37584973
H        0.28772899       1.48251908       1.11255925
H        0.84511723       0.60019812      -1.80764642
H        2.52145580      -0.39775192      -0.28660502
H        1.28535152      -0.61470925       1.22873172
H        1.15209347      -1.52034574       0.82759523
16
Frame=4 idx=001874 GeodesicLength=0.4228379844652167 rxn_smarts="[C:1]([C@@:2]1([H:10])[C:3]([H:11])([H:12])[C@:4]1([C:5]([O:6][H:16])([H:14])[H:15])[H:13])([H:7])([H:8])[H:9]>>[C:1]([C@@:2]1([H:10])[C:3]([H:11])([H:12])[C@:4]1([C:5](=[O:6])[H:14])[H:13])([H:7])([H:8])[H:9].[H:15][H:16]"
C       -1.61561764      -0.46215075       0.45320355
C       -0.90278677       0.48865232      -0.47318914
C        0.05953984       1.51490707       0.05150654
C        0.55886029       0.37573222      -0.78916185
C        1.46177685      -0.68911154      -0.24843069
O        1.19227994      -1.95693820      -0.48574726
H       -1.85980787      -1.39630021      -0.05496462
H       -1.01902970      -0.70315464       1.33410086
H       -2.54441225      -0.01561889       0.81367592
H       -1.50672475       0.81099080      -1.31439149
H        0.06327057       2.50972247      -0.37325586
H        0.28750047       1.47769010       1.11118764
H        0.84173237       0.60706699      -1.81185210
H        2.52476383      -0.39838342      -0.32035054
H        1.29910822      -0.62266264       1.25285544
H        1.15954659      -1.54044168       0.85481360
16
Frame=5 idx=001874 GeodesicLength=0.5284086194131636 rxn_smarts="[C:1]([C@@:2]1([H:10])[C:3]([H:11])([H:12])[C@:4]1([C:5]([O:6][H:16])([H:14])[H:15])[H:13])([H:7])([H:8])[H:9]>>[C:1]([C@@:2]1([H:10])[C:3]([H:11])([H:12])[C@:4]1([C:5](=[O:6])[H:14])[H:13])([H:7])([H:8])[H:9].[H:15][H:16]"
C       -1.61741703      -0.46195581       0.44782225
C       -0.90444092       0.49046945      -0.47650254
C        0.05684076       1.51491756       0.05081416
C        0.55840485       0.37913975      -0.79369545
C        1.46459885      -0.67950081      -0.24875930
O        1.18852401      -1.94895204      -0.46644976
H       -1.86735913      -1.39321796      -0.06307260
H       -1.01908853      -0.70777916       1.32600228
H       -2.54382235      -0.01403621       0.81284191
H       -1.50832455       0.81492687      -1.31697678
H        0.05980221       2.51114108      -0.37063810
H        0.28737552       1.47286098       1.10969499
H        0.83819701       0.61417691      -1.81628909
H        2.52745137      -0.39926957      -0.35487533
H        1.31284441      -0.63131335       1.27729474
H        1.16641352      -1.56160769       0.88278865
16
Frame=6 idx=001874 GeodesicLength=0.634089132448707 rxn_smarts="[C:1]([C@@:2]1([H:10])[C:3]([H:11])([H:12])[C@:4]1([C:5]([O:6][H:16])([H:14])[H:15])[H:13])([H:7])([H:8])[H:9]>>[C:1]([C@@:2]1([H:10])[C:3]([H:11])([H:12])[C@:4]1([C:5](=[O:6])[H:14])[H:13])([H:7])([H:8])[H:9].[H:15][H:16]"
C       -1.61904949      -0.46177378       0.44235721
C       -0.90607755       0.49237936      -0.47989646
C        0.05414259       1.51503090       0.05004476
C        0.55793584       0.38277756      -0.79847199
C        1.46781564      -0.66926649      -0.24931787
O        1.18528359      -1.94025354      -0.44619833
H       -1.87459320      -1.39017047      -0.07120310
H       -1.01897612      -0.71224076       1.31782957
H       -2.54312260      -0.01263732       0.81191444
H       -1.51001136       0.81898259      -1.31955117
H        0.05620934       2.51269158      -0.36799687
H        0.28736928       1.46803927       1.10806929
H        0.83449148       0.62155904      -1.82097731
H        2.52948674      -0.40041489      -0.39026498
H        1.32653861      -0.64074923       1.30204834
H        1.17255721      -1.58395382       0.91161448
16
Frame=7 idx=001874 GeodesicLength=0.7398746099016216 rxn_smarts="[C:1]([C@@:2]1([H:10])[C:3]([H:11])([H:12])[C@:4]1([C:5]([O:6][H:16])([H:14])[H:15])[H:13])([H:7])([H:8])[H:9]>>[C:1]([C@@:2]1([H:10])[C:3]([H:11])([H:12])[C@:4]1([C:5](=[O:6])[H:14])[H:13])([H:7])([H:8])[H:9].[H:15][H:16]"
C       -1.62049256      -0.46160729       0.43681055
C       -0.90768905       0.49438518      -0.48337266
C        0.05144285       1.51526323       0.04918934
C        0.55745731       0.38667055      -0.80350563
C        1.47147449      -0.65834455      -0.25015190
O        1.18263523      -1.93076189      -0.42489012
H       -1.88146393      -1.38717558      -0.07934424
H       -1.01867223      -0.71651121       1.30959718
H       -2.54230480      -0.01144032       0.81088233
H       -1.51178866       0.82315364      -1.32211090
H        0.05247130       2.51438932      -0.36533971
H        0.28749137       1.46324264       1.10629675
H        0.83059837       0.62924325      -1.82593320
H        2.53082909      -0.40184048      -0.42658107
H        1.34017065      -0.65106884       1.32709766
H        1.17784056      -1.60759766       0.94135562
16
Frame=8 idx=001874 GeodesicLength=0.8458025823677188 rxn_smarts="[C:1]([C@@:2]1([H:10])[C:3]([H:11])([H:12])[C@:4]1([C:5]([O:6][H:16])([H:14])[H:15])[H:13])([H:7])([H:8])[H:9]>>[C:1]([C@@:2]1([H:10])[C:3]([H:11])([H:12])[C@:4]1([C:5](=[O:6])[H:14])[H:13])([H:7])([H:8])[H:9].[H:15][H:16]"
C       -1.62172091      -0.46145995       0.43118179
C       -0.90926836       0.49649162      -0.48693447
C        0.04874072       1.51563018       0.04823740
C        0.55697062       0.39084600      -0.80881680
C        1.47561771      -0.64667351      -0.25132462
O        1.18066281      -1.92037804      -0.40240549
H       -1.88791930      -1.38425253      -0.08748682
H       -1.01815497      -0.72056396       1.30131903
H       -2.54135764      -0.01046648       0.80973066
H       -1.51366414       0.82743960      -1.32465049
H        0.04856790       2.51624780      -0.36267167
H        0.28775841       1.45848482       1.10436080
H        0.82649359       0.63726664      -1.83118025
H        2.53142750      -0.40357675      -0.46388940
H        1.35371635      -0.66236762       1.35244774
H        1.18212971      -1.63266783       0.97208260
16
Frame=9 idx=001874 GeodesicLength=0.9522029034995948 rxn_smarts="[C:1]([C@@:2]1([H:10])[C:3]([H:11])([H:12])[C@:4]1([C:5]([O:6][H:16])([H:14])[H:15])[H:13])([H:7])([H:8])[H:9]>>[C:1]([C@@:2]1([H:10])[C:3]([H:11])([H:12])[C@:4]1([C:5](=[O:6])[H:14])[H:13])([H:7])([H:8])[H:9].[H:15][H:16]"
C       -1.62268972      -0.46133778       0.42548249
C       -0.91080884       0.49870215      -0.49058563
C        0.04604149       1.51615378       0.04715955
C        0.55646752       0.39534331      -0.81446803
C        1.48031069      -0.63414644      -0.25299427
O        1.17954741      -1.90883562      -0.37840463
H       -1.89386608      -1.38143825      -0.09559701
H       -1.01737323      -0.72433492       1.29302806
H       -2.54026478      -0.00975208       0.80845569
H       -1.51566696       0.83184257      -1.32714540
H        0.04447026       2.51829695      -0.36000845
H        0.28822843       1.45377449       1.10221439
H        0.82211244       0.64567255      -1.83678914
H        2.53130895      -0.40560051      -0.50224052
H        1.36708783      -0.67490725       1.37806239
H        1.18509460      -1.65943295       1.00383051
16
Frame=10 idx=001874 GeodesicLength=1.0586630116433333 rxn_smarts="[C:1]([C@@:2]1([H:10])[C:3]([H:11])([H:12])[C@:4]1([C:5]([O:6][H:16])([H:14])[H:15])[H:13])([H:7])([H:8])[H:9]>>[C:1]([C@@:2]1([H:10])[C:3]([H:11])([H:12])[C@:4]1([C:5](=[O:6])[H:14])[H:13])([H:7])([H:8])[H:9].[H:15][H:16]"
C       -1.62338483      -0.46124376       0.41970992
C       -0.91229938       0.50101756      -0.49432624
C        0.04333767       1.51684884       0.04595771
C        0.55596220       0.40017875      -0.82043740
C        1.48558128      -0.62073369      -0.25513218
O        1.17934952      -1.89612193      -0.35292717
H       -1.89928210      -1.37874400      -0.10367692
H       -1.01631991      -0.72782320       1.28472876
H       -2.53901704      -0.00930471       0.80704138
H       -1.51778194       0.83634638      -1.32960673
H        0.04016094       2.52054092      -0.35735844
H        0.28887877       1.44914543       1.09986200
H        0.81747104       0.65448601      -1.84273420
H        2.53032255      -0.40802704      -0.54173014
H        1.38027505      -0.68868554       1.40401033
H        1.18674618      -1.68788002       1.03661932
16
Frame=11 idx=001874 GeodesicLength=1.1651085996408796 rxn_smarts="[C:1]([C@@:2]1([H:10])[C:3]([H:11])([H:12])[C@:4]1([C:5]([O:6][H:16])([H:14])[H:15])[H:13])([H:7])([H:8])[H:9]>>[C:1]([C@@:2]1([H:10])[C:3]([H:11])([H:12])[C@:4]1([C:5](=[O:6])[H:14])[H:13])([H:7])([H:8])[H:9].[H:15][H:16]"
C       -1.62377359      -0.46118344       0.41387517
C       -0.91373124       0.50343686      -0.49815732
C        0.04062972       1.51773413       0.04461210
C        0.55545838       0.40537602      -0.82674663
C        1.49147555      -0.60637650      -0.25780239
O        1.18017684      -1.88210840      -0.32585167
H       -1.90411103      -1.37619799      -0.11169995
H       -1.01495453      -0.73099803       1.27644421
H       -2.53759613      -0.00914315       0.80548862
H       -1.52001817       0.84093786      -1.33202763
H        0.03561721       2.52299603      -0.35474526
H        0.28973262       1.44462289       1.09727606
H        0.81254823       0.66373683      -1.84904100
H        2.52840631      -0.41088259      -0.58237919
H        1.39320765      -0.70381932       1.43033395
H        1.18693220      -1.71813119       1.07042094
16
Frame=12 idx=001874 GeodesicLength=1.2715082913939828 rxn_smarts="[C:1]([C@@:2]1([H:10])[C:3]([H:11])([H:12])[C@:4]1([C:5]([O:6][H:16])([H:14])[H:15])[H:13])([H:7])([H:8])[H:9]>>[C:1]([C@@:2]1([H:10])[C:3]([H:11])([H:12])[C@:4]1([C:5](=[O:6])[H:14])[H:13])([H:7])([H:8])[H:9].[H:15][H:16]"
C       -1.62382136      -0.46116150       0.40798727
C       -0.91509406       0.50595942      -0.50208115
C        0.03791656       1.51882982       0.04310260
C        0.55495919       0.41096137      -0.83341690
C        1.49803193      -0.59100966      -0.26107100
O        1.18216841      -1.86661848      -0.29703186
H       -1.90829359      -1.37382565      -0.11964467
H       -1.01323931      -0.73382920       1.26819512
H       -2.53598228      -0.00928691       0.80379553
H       -1.52238309       0.84560178      -1.33440253
H        0.03081427       2.52567797      -0.35219254
H        0.29081058       1.44023617       1.09442814
H        0.80732140       0.67345370      -1.85573183
H        2.52546488      -0.41423334      -0.62423752
H        1.40580678      -0.72044476       1.45710608
H        1.18551967      -1.75031074       1.10519525
16
Frame=13 idx=001874 GeodesicLength=1.3777552798195842 rxn_smarts="[C:1]([C@@:2]1([H:10])[C:3]([H:11])([H:12])[C@:4]1([C:5]([O:6][H:16])([H:14])[H:15])[H:13])([H:7])([H:8])[H:9]>>[C:1]([C@@:2]1([H:10])[C:3]([H:11])([H:12])[C@:4]1([C:5](=[O:6])[H:14])[H:13])([H:7])([H:8])[H:9].[H:15][H:16]"
C       -1.62349217      -0.46118149       0.40206132
C       -0.91637716       0.50858224      -0.50609872
C        0.03519303       1.52016119       0.04140567
C        0.55447069       0.41695947      -0.84045952
C        1.50528608      -0.57456592      -0.26497834
O        1.18544301      -1.84948541      -0.26634775
H       -1.91177078      -1.37165349      -0.12747982
H       -1.01113053      -0.73628655       1.26000885
H       -2.53415123      -0.00975151       0.80196709
H       -1.52488047       0.85031079      -1.33673099
H        0.02572239       2.52860349      -0.34973692
H        0.29212447       1.43602951       1.09128817
H        0.80177896       0.68365830      -1.86281923
H        2.52138756      -0.41817088      -0.66730300
H        1.41797851      -0.73868073       1.48441084
H        1.18241765      -1.78452900       1.14081235
16
Frame=14 idx=001874 GeodesicLength=1.4838430983124187 rxn_smarts="[C:1]([C@@:2]1([H:10])[C:3]([H:11])([H:12])[C@:4]1([C:5]([O:6][H:16])([H:14])[H:15])[H:13])([H:7])([H:8])[H:9]>>[C:1]([C@@:2]1([H:10])[C:3]([H:11])([H:12])[C@:4]1([C:5](=[O:6])[H:14])[H:13])([H:7])([H:8])[H:9].[H:15][H:16]"
C       -1.62274643      -0.46124932       0.39611254
C       -0.91756926       0.51130193      -0.51021060
C        0.03245603       1.52175258       0.03949609
C        0.55399802       0.42339535      -0.84789078
C        1.51326595      -0.55699014      -0.26958625
O        1.19015491      -1.83048358      -0.23365820
H       -1.91448463      -1.36970737      -0.13517719
H       -1.00857815      -0.73834921       1.25190631
H       -2.53207223      -0.01055468       0.80001481
H       -1.52751653       0.85503853      -1.33900923
H        0.02031220       2.53179009      -0.34741549
H        0.29369225       1.43204476       1.08782334
H        0.79590493       0.69437533      -1.87032000
H        2.51602986      -0.42285454      -0.71156807
H        1.42958449      -0.75862067       1.51242101
H        1.17756858      -1.82088905       1.17706173
16
Frame=15 idx=001874 GeodesicLength=1.589753523692416 rxn_smarts="[C:1]([C@@:2]1([H:10])[C:3]([H:11])([H:12])[C@:4]1([C:5]([O:6][H:16])([H:14])[H:15])[H:13])([H:7])([H:8])[H:9]>>[C:1]([C@@:2]1([H:10])[C:3]([H:11])([H:12])[C@:4]1([C:5](=[O:6])[H:14])[H:13])([H:7])([H:8])[H:9].[H:15][H:16]"
C       -1.62154421      -0.46136888       0.39015922
C       -0.91865827       0.51411303      -0.51441721
C        0.02970109       1.52362854       0.03734581
C        0.55354654       0.43028822      -0.85571947
C        1.52198537      -0.53823684      -0.27494182
O        1.19644097      -1.80938015      -0.19884278
H       -1.91638523      -1.36800725      -0.14270617
H       -1.00553083      -0.74000146       1.24390789
H       -2.52971053      -0.01170739       0.79795686
H       -1.53029283       0.85975147      -1.34123788
H        0.01455644       2.53525151      -0.34527478
H        0.29552733       1.42833008       1.08399875
H        0.78969136       0.70561768      -1.87824249
H        2.50921270      -0.42847166      -0.75696486
H        1.44046846      -0.78033166       1.54134911
H        1.17099165      -1.85947524       1.21362981
16
Frame=16 idx=001874 GeodesicLength=1.695513481528117 rxn_smarts="[C:1]([C@@:2]1([H:10])[C:3]([H:11])([H:12])[C@:4]1([C:5]([O:6][H:16])([H:14])[H:15])[H:13])([H:7])([H:8])[H:9]>>[C:1]([C@@:2]1([H:10])[C:3]([H:11])([H:12])[C@:4]1([C:5](=[O:6])[H:14])[H:13])([H:7])([H:8])[H:9].[H:15][H:16]"
C       -1.61984583      -0.46154628       0.38421776
C       -0.91963179       0.51701104      -0.51871820
C        0.02692350       1.52581603       0.03492952
C        0.55312422       0.43765731      -0.86394955
C        1.53144941      -0.51827313      -0.28109072
O        1.20444031      -1.78591406      -0.16179086
H       -1.91742317      -1.36657414      -0.15004300
H       -1.00193249      -0.74123485       1.23602999
H       -2.52703165      -0.01322359       0.79581412
H       -1.53320768       0.86441475      -1.34341933
H        0.00843041       2.53900512      -0.34335862
H        0.29763981       1.42493716       1.07978282
H        0.78313786       0.71739775      -1.88658802
H        2.50070907      -0.43529397      -0.80340862
H        1.45043307      -0.80384116       1.57148531
H        1.16278494      -1.90033796       1.25010742
