13
Frame=0 idx=009067 GeodesicLength=0.0 rxn_smarts="[O:1]=[C:2]1[C:3]([H:8])([H:9])[C:4]([H:10])([H:11])[C:5](=[O:6])[C:7]1([H:12])[H:13]>>[O:1]=[C:2]([C:3]1([H:8])[C:4]([H:10])([H:11])[C:5](=[O:6])[C:7]1([H:12])[H:13])[H:9]"
O        0.36035360      -2.30210018      -0.94326555
C       -0.00786148      -1.12123393      -0.71297571
C       -0.97200355      -0.66467127       0.25671593
C       -0.93784423       0.78195781       0.57223833
C        0.46725615       1.18908602       0.12479708
O        0.87723973       2.30118457      -0.02574710
C        1.20122747      -0.09772658      -0.13635462
H       -1.53914626      -1.36986964       0.86153606
H       -0.24755562      -0.45036059      -1.60619726
H       -1.05577340       0.95848845       1.64684990
H       -1.71136783       1.37614625       0.07854790
H        1.58952973      -0.54714114       0.77932788
H        1.97594569      -0.05375972      -0.89547290
13
Frame=1 idx=009067 GeodesicLength=0.09929444534492436 rxn_smarts="[O:1]=[C:2]1[C:3]([H:8])([H:9])[C:4]([H:10])([H:11])[C:5](=[O:6])[C:7]1([H:12])[H:13]>>[O:1]=[C:2]([C:3]1([H:8])[C:4]([H:10])([H:11])[C:5](=[O:6])[C:7]1([H:12])[H:13])[H:9]"
O        0.35189558      -2.31835258      -0.95564557
C       -0.00112278      -1.13900863      -0.72035598
C       -0.95605987      -0.66281746       0.25007575
C       -0.93842287       0.78702423       0.56169428
C        0.47265317       1.19402786       0.13686937
O        0.89226637       2.30533252       0.00896390
C        1.19795854      -0.09751194      -0.12733335
H       -1.50242238      -1.36828032       0.87358112
H       -0.30703472      -0.45269786      -1.59969300
H       -1.07720691       0.96772947       1.63285875
H       -1.70323243       1.37528321       0.04813460
H        1.60297575      -0.54328230       0.78284953
H        1.96775255      -0.04744620      -0.89199941
13
Frame=2 idx=009067 GeodesicLength=0.1987013350695624 rxn_smarts="[O:1]=[C:2]1[C:3]([H:8])([H:9])[C:4]([H:10])([H:11])[C:5](=[O:6])[C:7]1([H:12])[H:13]>>[O:1]=[C:2]([C:3]1([H:8])[C:4]([H:10])([H:11])[C:5](=[O:6])[C:7]1([H:12])[H:13])[H:9]"
O        0.34284771      -2.33431138      -0.96699554
C        0.00546172      -1.15592801      -0.72874600
C       -0.93975135      -0.66089036       0.24329320
C       -0.93874740       0.79202573       0.55109409
C        0.47790646       1.19910571       0.14883579
O        0.90673744       2.30930406       0.04440508
C        1.19485084      -0.09703819      -0.11831897
H       -1.46608941      -1.36609457       0.88422824
H       -0.36692391      -0.45735025      -1.59213641
H       -1.09817892       0.97638771       1.61849654
H       -1.69443867       1.37454205       0.01824775
H        1.61665567      -0.53900301       0.78606386
H        1.95966982      -0.04074949      -0.88846764
13
Frame=3 idx=009067 GeodesicLength=0.2981245000888277 rxn_smarts="[O:1]=[C:2]1[C:3]([H:8])([H:9])[C:4]([H:10])([H:11])[C:5](=[O:6])[C:7]1([H:12])[H:13]>>[O:1]=[C:2]([C:3]1([H:8])[C:4]([H:10])([H:11])[C:5](=[O:6])[C:7]1([H:12])[H:13])[H:9]"
O        0.33323113      -2.34992362      -0.97739575
C        0.01185812      -1.17198795      -0.73811196
C       -0.92311424      -0.65886695       0.23637650
C       -0.93882272       0.79698235       0.54041166
C        0.48306334       1.20430359       0.16080674
O        0.92064735       2.31305495       0.08055565
C        1.19191986      -0.09632496      -0.10930418
H       -1.43012747      -1.36337988       0.89357974
H       -0.42718916      -0.46431333      -1.58349409
H       -1.11876496       0.98450767       1.60373703
H       -1.68496312       1.37396990      -0.01119976
H        1.63059208      -0.53435375       0.78894804
H        1.95166979      -0.03366801      -0.88490964
13
Frame=4 idx=009067 GeodesicLength=0.3974628674822559 rxn_smarts="[O:1]=[C:2]1[C:3]([H:8])([H:9])[C:4]([H:10])([H:11])[C:5](=[O:6])[C:7]1([H:12])[H:13]>>[O:1]=[C:2]([C:3]1([H:8])[C:4]([H:10])([H:11])[C:5](=[O:6])[C:7]1([H:12])[H:13])[H:9]"
O        0.32308015      -2.36513684      -0.98692036
C        0.01803064      -1.18719135      -0.74842909
C       -0.90618633      -0.65672333       0.22931747
C       -0.93865202       0.80191645       0.52960124
C        0.48817003       1.20959892       0.17291091
O        0.93400508       2.31653793       0.11745883
C        1.18918120      -0.09538781      -0.10029301
H       -1.39448627      -1.36019502       0.90175490
H       -0.48784685      -0.47360444      -1.57366321
H       -1.13906651       0.99213996       1.58852047
H       -1.67475236       1.37361735      -0.04033956
H        1.64481691      -0.52938955       0.79145740
H        1.94370633      -0.02618227      -0.88137600
13
Frame=5 idx=009067 GeodesicLength=0.49703020971899575 rxn_smarts="[O:1]=[C:2]1[C:3]([H:8])([H:9])[C:4]([H:10])([H:11])[C:5](=[O:6])[C:7]1([H:12])[H:13]>>[O:1]=[C:2]([C:3]1([H:8])[C:4]([H:10])([H:11])[C:5](=[O:6])[C:7]1([H:12])[H:13])[H:9]"
O        0.31251131      -2.37995800      -0.99559571
C        0.02399168      -1.20163356      -0.75963901
C       -0.88900257      -0.65445094       0.22205130
C       -0.93822867       0.80683878       0.51862097
C        0.49327922       1.21494941       0.18525642
O        0.94681029       2.31969223       0.15508729
C        1.18665888      -0.09424307      -0.09130152
H       -1.35920064      -1.35654146       0.90876276
H       -0.54902014      -0.48506315      -1.56242104
H       -1.15915174       0.99929692       1.57279381
H       -1.66375433       1.37351602      -0.06926113
H        1.65935873      -0.52412186       0.79355158
H        1.93574797      -0.01828132      -0.87790574
13
Frame=6 idx=009067 GeodesicLength=0.5965055574806872 rxn_smarts="[O:1]=[C:2]1[C:3]([H:8])([H:9])[C:4]([H:10])([H:11])[C:5](=[O:6])[C:7]1([H:12])[H:13]>>[O:1]=[C:2]([C:3]1([H:8])[C:4]([H:10])([H:11])[C:5](=[O:6])[C:7]1([H:12])[H:13])[H:9]"
O        0.30152135      -2.39428683      -1.00355161
C        0.02967877      -1.21526908      -0.77172908
C       -0.87159099      -0.65202711       0.21461650
C       -0.93755439       0.81177693       0.50741986
C        0.49841604       1.22033285       0.19798198
O        0.95907182       2.32248445       0.19353031
C        1.18435829      -0.09290372      -0.08233009
H       -1.32420492      -1.35248084       0.91473749
H       -0.61066518      -0.49884220      -1.54963708
H       -1.17912899       1.00605977       1.55646737
H       -1.65188733       1.37370820      -0.09812281
H        1.67425899      -0.51862082       0.79517272
H        1.92772653      -0.00993162      -0.87455557
13
Frame=7 idx=009067 GeodesicLength=0.6958013663479568 rxn_smarts="[O:1]=[C:2]1[C:3]([H:8])([H:9])[C:4]([H:10])([H:11])[C:5](=[O:6])[C:7]1([H:12])[H:13]>>[O:1]=[C:2]([C:3]1([H:8])[C:4]([H:10])([H:11])[C:5](=[O:6])[C:7]1([H:12])[H:13])[H:9]"
O        0.29015299      -2.40805878      -1.01088797
C        0.03504126      -1.22811410      -0.78466847
C       -0.85398408      -0.64943958       0.20701234
C       -0.93662671       0.81674743       0.49595912
C        0.50359955       1.22571640       0.21120136
O        0.97077617       2.32487669       0.23279604
C        1.18228845      -0.09138662      -0.07338389
H       -1.28949550      -1.34803483       0.91973145
H       -0.67275831      -0.51495472      -1.53509488
H       -1.19906715       1.01247353       1.53946569
H       -1.63907714       1.37421837      -0.12703715
H        1.68954753      -0.51292696       0.79627778
H        1.91960293      -0.00111684      -0.87137140
13
Frame=8 idx=009067 GeodesicLength=0.7949131779223139 rxn_smarts="[O:1]=[C:2]1[C:3]([H:8])([H:9])[C:4]([H:10])([H:11])[C:5](=[O:6])[C:7]1([H:12])[H:13]>>[O:1]=[C:2]([C:3]1([H:8])[C:4]([H:10])([H:11])[C:5](=[O:6])[C:7]1([H:12])[H:13])[H:9]"
O        0.27847267      -2.42121738      -1.01770512
C        0.04003558      -1.24018991      -0.79843262
C       -0.83621544      -0.64667534       0.19921634
C       -0.93543536       0.82177420       0.48416991
C        0.50884688       1.23105028       0.22505728
O        0.98192277       2.32681205       0.27297006
C        1.18045712      -0.08970286      -0.06447938
H       -1.25504434      -1.34322670       0.92381984
H       -0.73533695      -0.53342889      -1.51848663
H       -1.21906097       1.01860090       1.52165896
H       -1.62519959       1.37507575      -0.15616976
H        1.70526166      -0.50708142       0.79679060
H        1.91129597       0.00820934      -0.86840949
13
Frame=9 idx=009067 GeodesicLength=0.8944665727781286 rxn_smarts="[O:1]=[C:2]1[C:3]([H:8])([H:9])[C:4]([H:10])([H:11])[C:5](=[O:6])[C:7]1([H:12])[H:13]>>[O:1]=[C:2]([C:3]1([H:8])[C:4]([H:10])([H:11])[C:5](=[O:6])[C:7]1([H:12])[H:13])[H:9]"
O        0.26662196      -2.43378701      -1.02408631
C        0.04470073      -1.25161195      -0.81299243
C       -0.81832208      -0.64373785       0.19111539
C       -0.93397193       0.82686512       0.47200088
C        0.51417781       1.23627046       0.23960651
O        0.99249375       2.32823334       0.31399110
C        1.17888878      -0.08787469      -0.05562365
H       -1.22086586      -1.33801107       0.92697380
H       -0.79859376      -0.55401544      -1.49938465
H       -1.23916582       1.02444411       1.50297089
H       -1.61018703       1.37626749      -0.18562136
H        1.72139495      -0.50109117       0.79669954
H        1.90282850       0.01804865      -0.86564971
13
Frame=10 idx=009067 GeodesicLength=0.9938060328895251 rxn_smarts="[O:1]=[C:2]1[C:3]([H:8])([H:9])[C:4]([H:10])([H:11])[C:5](=[O:6])[C:7]1([H:12])[H:13]>>[O:1]=[C:2]([C:3]1([H:8])[C:4]([H:10])([H:11])[C:5](=[O:6])[C:7]1([H:12])[H:13])[H:9]"
O        0.25457307      -2.44562144      -1.03020100
C        0.04888670      -1.26229804      -0.82834372
C       -0.80033328      -0.64060685       0.18279790
C       -0.93222840       0.83205574       0.45938521
C        0.51957240       1.24133887       0.25501735
O        1.00247781       2.32909496       0.35603293
C        1.17756037      -0.08590741      -0.04684001
H       -1.18693368      -1.33244837       0.92931370
H       -0.86227336      -0.57700141      -1.47750121
H       -1.25947507       1.03012589       1.48322958
H       -1.59386706       1.37782160      -0.21557890
H        1.73799731      -0.49501579       0.79587939
H        1.89404318       0.02846226      -0.86319123
13
Frame=11 idx=009067 GeodesicLength=1.0929320298106888 rxn_smarts="[O:1]=[C:2]1[C:3]([H:8])([H:9])[C:4]([H:10])([H:11])[C:5](=[O:6])[C:7]1([H:12])[H:13]>>[O:1]=[C:2]([C:3]1([H:8])[C:4]([H:10])([H:11])[C:5](=[O:6])[C:7]1([H:12])[H:13])[H:9]"
O        0.24235993      -2.45667110      -1.03619819
C        0.05252153      -1.27226744      -0.84446819
C       -0.78229449      -0.63727923       0.17424187
C       -0.93019618       0.83736491       0.44627236
C        0.52500483       1.24620085       0.27136729
O        1.01183315       2.32935115       0.39908425
C        1.17646600      -0.08382071      -0.03813335
H       -1.15324463      -1.32654164       0.93086429
H       -0.92624815      -0.60233580      -1.45245525
H       -1.28003162       1.03569734       1.46232128
H       -1.57612995       1.37971879      -0.24614050
H        1.75506725      -0.48887601       0.79429246
H        1.88489233       0.03945888      -0.86104833
13
Frame=12 idx=009067 GeodesicLength=1.1919158236451854 rxn_smarts="[O:1]=[C:2]1[C:3]([H:8])([H:9])[C:4]([H:10])([H:11])[C:5](=[O:6])[C:7]1([H:12])[H:13]>>[O:1]=[C:2]([C:3]1([H:8])[C:4]([H:10])([H:11])[C:5](=[O:6])[C:7]1([H:12])[H:13])[H:9]"
O        0.23001889      -2.46689197      -1.04222738
C        0.05553263      -1.28154423      -0.86135894
C       -0.76425984      -0.63375422       0.16540642
C       -0.92786012       0.84281399       0.43259319
C        0.53043184       1.25078044       0.28873691
O        1.02050231       2.32892698       0.44319517
C        1.17559259      -0.08163253      -0.02951888
H       -1.11978075      -1.32029968       0.93167826
H       -0.99037431      -0.62994119      -1.42377785
H       -1.30086721       1.04122477       1.44007841
H       -1.55682855       1.38193296      -0.27744460
H        1.77259939      -0.48268548       0.79187458
H        1.87529312       0.05107016      -0.85923528
13
Frame=13 idx=009067 GeodesicLength=1.291339197629586 rxn_smarts="[O:1]=[C:2]1[C:3]([H:8])([H:9])[C:4]([H:10])([H:11])[C:5](=[O:6])[C:7]1([H:12])[H:13]>>[O:1]=[C:2]([C:3]1([H:8])[C:4]([H:10])([H:11])[C:5](=[O:6])[C:7]1([H:12])[H:13])[H:9]"
O        0.21759464      -2.47630759      -1.04846442
C        0.05792894      -1.29020204      -0.87903654
C       -0.74627713      -0.63005247       0.15618426
C       -0.92521751       0.84840191       0.41830567
C        0.53580388       1.25499033       0.30712411
O        1.02841047       2.32776918       0.48824384
C        1.17493984      -0.07937214      -0.02098756
H       -1.08651266      -1.31369643       0.93176017
H       -1.05461405      -0.65945872      -1.39093204
H       -1.32199544       1.04673916       1.41641786
H       -1.53589065       1.38435084      -0.30959726
H        1.79052680      -0.47644642       0.78864758
H        1.86530287       0.06328438      -0.85766566
13
Frame=14 idx=009067 GeodesicLength=1.3905332007934241 rxn_smarts="[O:1]=[C:2]1[C:3]([H:8])([H:9])[C:4]([H:10])([H:11])[C:5](=[O:6])[C:7]1([H:12])[H:13]>>[O:1]=[C:2]([C:3]1([H:8])[C:4]([H:10])([H:11])[C:5](=[O:6])[C:7]1([H:12])[H:13])[H:9]"
O        0.20497357      -2.48483420      -1.05508039
C        0.05953302      -1.29819552      -0.89747082
C       -0.72841976      -0.62616927       0.14663695
C       -0.92226039       0.85415415       0.40337583
C        0.54103217       1.25879639       0.32653459
O        1.03547245       2.32583070       0.53426401
C        1.17445367      -0.07705592      -0.01255459
H       -1.05348098      -1.30678657       0.93115276
H       -1.11831339      -0.69094315      -1.35363217
H       -1.34336742       1.05231939       1.39120981
H       -1.51321824       1.38694381      -0.34260317
H        1.80882460      -0.47013867       0.78455037
H        1.85477070       0.07607886      -0.85638318
13
Frame=15 idx=009067 GeodesicLength=1.4895913291415683 rxn_smarts="[O:1]=[C:2]1[C:3]([H:8])([H:9])[C:4]([H:10])([H:11])[C:5](=[O:6])[C:7]1([H:12])[H:13]>>[O:1]=[C:2]([C:3]1([H:8])[C:4]([H:10])([H:11])[C:5](=[O:6])[C:7]1([H:12])[H:13])[H:9]"
O        0.19205586      -2.49248820      -1.06223673
C        0.06029879      -1.30556354      -0.91663883
C       -0.71074859      -0.62213001       0.13672344
C       -0.91899274       0.86006826       0.38777501
C        0.54602205       1.26213820       0.34688772
O        1.04158021       2.32305456       0.58116823
C        1.17410400      -0.07470950      -0.00421385
H       -1.02066743      -1.29958712       0.92989383
H       -1.18104484      -0.72407260      -1.31155721
H       -1.36492435       1.05799505       1.36438184
H       -1.48878255       1.38960703      -0.37646284
H        1.82741982      -0.46371793       0.77960832
H        1.84367975       0.08940582      -0.85532896
13
Frame=16 idx=009067 GeodesicLength=1.5886226193594297 rxn_smarts="[O:1]=[C:2]1[C:3]([H:8])([H:9])[C:4]([H:10])([H:11])[C:5](=[O:6])[C:7]1([H:12])[H:13]>>[O:1]=[C:2]([C:3]1([H:8])[C:4]([H:10])([H:11])[C:5](=[O:6])[C:7]1([H:12])[H:13])[H:9]"
O        0.17871055      -2.49932388      -1.07009578
C        0.06020173      -1.31237966      -0.93652302
C       -0.69334829      -0.61797417       0.12635084
C       -0.91543908       0.86610702       0.37156671
C        0.55066711       1.26498792       0.36801436
O        1.04660967       2.31949294       0.62855510
C        1.17384837      -0.07238762       0.00408106
H       -0.98811330      -1.29212611       0.92793172
H       -1.24216457      -0.75826702      -1.26450160
H       -1.38651535       1.06371882       1.33605633
H       -1.46272719       1.39217629      -0.41103864
H        1.84615839      -0.45714195       0.77396656
H        1.83211196       0.10311743      -0.85436366
