11
Frame=0 idx=001616 GeodesicLength=0.0 rxn_smarts="[N:1]([C:2](=[O:3])[C:4]([C:5](=[O:6])[H:11])([H:9])[H:10])([H:7])[H:8]>>[N:1]([C:2](=[O:3])[O:6][C:5](=[C:4]([H:9])[H:10])[H:11])([H:7])[H:8]"
N       -1.56319153      -0.65296933      -0.07196646
C       -0.78078474       0.44804178      -0.29159808
O       -1.11047628       1.55840041      -0.51206933
C        0.89328240       0.21119548       0.91833941
C        1.42250681       0.12714917      -0.36243047
O        0.59156188      -0.10971130      -1.29426396
H       -1.15892664      -1.53491976      -0.33661062
H       -2.51569598      -0.51607783      -0.37428603
H        0.36055157      -0.65282725       1.29248105
H        1.40470482       0.78557509       1.68299548
H        2.45646774       0.33614359      -0.65059100
11
Frame=1 idx=001616 GeodesicLength=0.06190073287946911 rxn_smarts="[N:1]([C:2](=[O:3])[C:4]([C:5](=[O:6])[H:11])([H:9])[H:10])([H:7])[H:8]>>[N:1]([C:2](=[O:3])[O:6][C:5](=[C:4]([H:9])[H:10])[H:11])([H:7])[H:8]"
N       -1.58401004      -0.64079743      -0.07494698
C       -0.77075699       0.43530221      -0.30160899
O       -1.07824679       1.55044918      -0.54020119
C        0.90107585       0.18993695       0.92402248
C        1.43528691       0.11278883      -0.35681223
O        0.61324401      -0.16888530      -1.28544788
H       -1.20413463      -1.54034825      -0.31451462
H       -2.53337237      -0.48527908      -0.37719215
H        0.38481643      -0.68416605       1.29849425
H        1.40762719       0.77275832       1.68556122
H        2.42847043       0.45824062      -0.65735390
11
Frame=2 idx=001616 GeodesicLength=0.12420343975394585 rxn_smarts="[N:1]([C:2](=[O:3])[C:4]([C:5](=[O:6])[H:11])([H:9])[H:10])([H:7])[H:8]>>[N:1]([C:2](=[O:3])[O:6][C:5](=[C:4]([H:9])[H:10])[H:11])([H:7])[H:8]"
N       -1.60238767      -0.62881313      -0.07959300
C       -0.76083501       0.42318854      -0.31086032
O       -1.04805307       1.54218253      -0.56611426
C        0.90947675       0.17064983       0.92993039
C        1.44853826       0.10264987      -0.35115228
O        0.63571770      -0.22363530      -1.27480687
H       -1.24565922      -1.54381215      -0.29370813
H       -2.54818394      -0.45604485      -0.38267040
H        0.41186779      -0.71435194       1.30442749
H        1.41089867       0.76166214       1.68842163
H        2.38861973       0.56632448      -0.66387426
11
Frame=3 idx=001616 GeodesicLength=0.18701779858181847 rxn_smarts="[N:1]([C:2](=[O:3])[C:4]([C:5](=[O:6])[H:11])([H:9])[H:10])([H:7])[H:8]>>[N:1]([C:2](=[O:3])[O:6][C:5](=[C:4]([H:9])[H:10])[H:11])([H:7])[H:8]"
N       -1.61907289      -0.61738772      -0.08591487
C       -0.75158847       0.41186532      -0.31919308
O       -1.02041454       1.53420339      -0.58891077
C        0.91818548       0.15350204       0.93579491
C        1.46148164       0.09637121      -0.34601953
O        0.65841000      -0.27311329      -1.26354189
H       -1.28398854      -1.54594440      -0.27389414
H       -2.56104087      -0.42897595      -0.39050415
H        0.44138575      -0.74315082       1.31021328
H        1.41457617       0.75283475       1.69105099
H        2.34206626       0.65979547      -0.66908074
11
Frame=4 idx=001616 GeodesicLength=0.250150235565084 rxn_smarts="[N:1]([C:2](=[O:3])[C:4]([C:5](=[O:6])[H:11])([H:9])[H:10])([H:7])[H:8]>>[N:1]([C:2](=[O:3])[O:6][C:5](=[C:4]([H:9])[H:10])[H:11])([H:7])[H:8]"
N       -1.63452382      -0.60644231      -0.09369306
C       -0.74319049       0.40127072      -0.32647163
O       -0.99535874       1.52655977      -0.60871167
C        0.92716185       0.13811168       0.94178187
C        1.47390988       0.09308156      -0.34110605
O        0.68106977      -0.31792961      -1.25159522
H       -1.31965280      -1.54672197      -0.25496851
H       -2.57233220      -0.40386992      -0.40101632
H        0.47317239      -0.77051433       1.31625125
H        1.41861339       0.74583114       1.69352197
H        2.29113078       0.74062327      -0.67399264
11
Frame=5 idx=001616 GeodesicLength=0.3134966911436661 rxn_smarts="[N:1]([C:2](=[O:3])[C:4]([C:5](=[O:6])[H:11])([H:9])[H:10])([H:7])[H:8]>>[N:1]([C:2](=[O:3])[O:6][C:5](=[C:4]([H:9])[H:10])[H:11])([H:7])[H:8]"
N       -1.64907498      -0.59600339      -0.10285761
C       -0.73566146       0.39130628      -0.33292667
O       -0.97263389       1.51938747      -0.62575050
C        0.93625242       0.12413622       0.94765154
C        1.48564468       0.09197846      -0.33662943
O        0.70362874      -0.35851484      -1.23951818
H       -1.35328305      -1.54647487      -0.23656202
H       -2.58257295      -0.38045868      -0.41342665
H        0.50707640      -0.79661488       1.32234846
H        1.42273349       0.74061666       1.69546850
H        2.23789060       0.81064157      -0.67779743
11
Frame=6 idx=001616 GeodesicLength=0.3770483415662945 rxn_smarts="[N:1]([C:2](=[O:3])[C:4]([C:5](=[O:6])[H:11])([H:9])[H:10])([H:7])[H:8]>>[N:1]([C:2](=[O:3])[O:6][C:5](=[C:4]([H:9])[H:10])[H:11])([H:7])[H:8]"
N       -1.66303894      -0.58603614      -0.11328438
C       -0.72902446       0.38190617      -0.33846850
O       -0.95204734       1.51271973      -0.64010277
C        0.94547344       0.11134506       0.95351776
C        1.49665983       0.09263366      -0.33245556
O        0.72595137      -0.39544896      -1.22731612
H       -1.38540364      -1.54524581      -0.21853099
H       -2.59197991      -0.35863704      -0.42802306
H        0.54305519      -0.82147180       1.32871663
H        1.42697041       0.73688791       1.69703653
H        2.18338405       0.87134720      -0.68108954
11
Frame=7 idx=001616 GeodesicLength=0.440755640573853 rxn_smarts="[N:1]([C:2](=[O:3])[C:4]([C:5](=[O:6])[H:11])([H:9])[H:10])([H:7])[H:8]>>[N:1]([C:2](=[O:3])[O:6][C:5](=[C:4]([H:9])[H:10])[H:11])([H:7])[H:8]"
N       -1.67660394      -0.57650068      -0.12493040
C       -0.72326109       0.37299179      -0.34316297
O       -0.93340723       1.50656520      -0.65195697
C        0.95479153       0.09949169       0.95933205
C        1.50692807       0.09466743      -0.32858919
O        0.74800471      -0.42919223      -1.21510557
H       -1.41645843      -1.54310158      -0.20055326
H       -2.60074712      -0.33822540      -0.44470116
H        0.58114842      -0.84518989       1.33529596
H        1.43119287       0.73444339       1.69817391
H        2.12841222       0.92405027      -0.68380238
11
Frame=8 idx=001616 GeodesicLength=0.5046381249342651 rxn_smarts="[N:1]([C:2](=[O:3])[C:4]([C:5](=[O:6])[H:11])([H:9])[H:10])([H:7])[H:8]>>[N:1]([C:2](=[O:3])[O:6][C:5](=[C:4]([H:9])[H:10])[H:11])([H:7])[H:8]"
N       -1.68989874      -0.56738302      -0.13775749
C       -0.71833145       0.36447476      -0.34710162
O       -0.91652337       1.50089746      -0.66155495
C        0.96418558       0.08835508       0.96507311
C        1.51647909       0.09776694      -0.32502695
O        0.76980706      -0.46016210      -1.20299962
H       -1.44685049      -1.54007174      -0.18245491
H       -2.60903550      -0.31903021      -0.46323880
H        0.62142209      -0.86785964       1.34205116
H        1.43524576       0.73312874       1.69887572
H        2.07349997       0.96988372      -0.68586564
11
Frame=9 idx=001616 GeodesicLength=0.5686204816586975 rxn_smarts="[N:1]([C:2](=[O:3])[C:4]([C:5](=[O:6])[H:11])([H:9])[H:10])([H:7])[H:8]>>[N:1]([C:2](=[O:3])[O:6][C:5](=[C:4]([H:9])[H:10])[H:11])([H:7])[H:8]"
N       -1.70299174      -0.55868292      -0.15176606
C       -0.71420662       0.35625955      -0.35038815
O       -0.90126437       1.49563890      -0.66912438
C        0.97362891       0.07774646       0.97069853
C        1.52532495       0.10170385      -0.32175454
O        0.79138691      -0.48866232      -1.19108635
H       -1.47691063      -1.53613424      -0.16407426
H       -2.61697405      -0.30087695      -0.48335963
H        0.66397843      -0.88952326       1.34887522
H        1.43892479       0.73282095       1.69910428
H        2.01910343       1.00970996      -0.68712465
11
Frame=10 idx=001616 GeodesicLength=0.6326906148729419 rxn_smarts="[N:1]([C:2](=[O:3])[C:4]([C:5](=[O:6])[H:11])([H:9])[H:10])([H:7])[H:8]>>[N:1]([C:2](=[O:3])[O:6][C:5](=[C:4]([H:9])[H:10])[H:11])([H:7])[H:8]"
N       -1.71596050      -0.55043466      -0.16697205
C       -0.71087880       0.34828870      -0.35300491
O       -0.88752669       1.49078926      -0.67468015
C        0.98312233       0.06754826       0.97624676
C        1.53347050       0.10632356      -0.31873328
O        0.81272225      -0.51499458      -1.17938353
H       -1.50695425      -1.53125772      -0.14534700
H       -2.62460922      -0.28370706      -0.50511895
H        0.70889158      -0.91012279       1.35583222
H        1.44220736       0.73335742       1.69893463
H        1.96551544       1.04420961      -0.68777373
11
Frame=11 idx=001616 GeodesicLength=0.6968102593441693 rxn_smarts="[N:1]([C:2](=[O:3])[C:4]([C:5](=[O:6])[H:11])([H:9])[H:10])([H:7])[H:8]>>[N:1]([C:2](=[O:3])[O:6][C:5](=[C:4]([H:9])[H:10])[H:11])([H:7])[H:8]"
N       -1.72882441      -0.54267139      -0.18345866
C       -0.70831769       0.34048017      -0.35501902
O       -0.87520722       1.48629153      -0.67832685
C        0.99266097       0.05760100       0.98170030
C        1.54093559       0.11147856      -0.31594797
O        0.83384887      -0.53939748      -1.16794525
H       -1.53728043      -1.52536123      -0.12604268
H       -2.63198900      -0.26741171      -0.52841856
H        0.75627521      -0.92963469       1.36284439
H        1.44494829       0.73459972       1.69837592
H        1.91294982       1.07402550      -0.68776162
11
Frame=12 idx=001616 GeodesicLength=0.7609679218911749 rxn_smarts="[N:1]([C:2](=[O:3])[C:4]([C:5](=[O:6])[H:11])([H:9])[H:10])([H:7])[H:8]>>[N:1]([C:2](=[O:3])[O:6][C:5](=[C:4]([H:9])[H:10])[H:11])([H:7])[H:8]"
N       -1.74156407      -0.53545876      -0.20132266
C       -0.70648120       0.33273858      -0.35650555
O       -0.86420511       1.48206822      -0.68017765
C        1.00224036       0.04776119       0.98705750
C        1.54776087       0.11703959      -0.31336624
O        0.85483491      -0.56210798      -1.15679767
H       -1.56817327      -1.51833454      -0.10609176
H       -2.63915341      -0.25185307      -0.55304701
H        0.80624446      -0.94799046       1.36987035
H        1.44699344       0.73642291       1.69745836
H        1.86150303       1.09971434      -0.68707766
11
Frame=13 idx=001616 GeodesicLength=0.8251387801439103 rxn_smarts="[N:1]([C:2](=[O:3])[C:4]([C:5](=[O:6])[H:11])([H:9])[H:10])([H:7])[H:8]>>[N:1]([C:2](=[O:3])[O:6][C:5](=[C:4]([H:9])[H:10])[H:11])([H:7])[H:8]"
N       -1.75411466      -0.52890625      -0.22069914
C       -0.70531745       0.32494808      -0.35757365
O       -0.85442629       1.47801156      -0.68037801
C        1.01184740       0.03790101       0.99231884
C        1.55399760       0.12289664      -0.31094417
O        0.87578688      -0.58333666      -1.14596285
H       -1.59989711      -1.51006514      -0.08556722
H       -2.64616857      -0.23684538      -0.57858797
H        0.85889410      -0.96507034       1.37686976
H        1.44814614       0.73872720       1.69621590
H        1.81125195       1.12173928      -0.68569151
11
Frame=14 idx=001616 GeodesicLength=0.8892979886501905 rxn_smarts="[N:1]([C:2](=[O:3])[C:4]([C:5](=[O:6])[H:11])([H:9])[H:10])([H:7])[H:8]>>[N:1]([C:2](=[O:3])[O:6][C:5](=[C:4]([H:9])[H:10])[H:11])([H:7])[H:8]"
N       -1.76637769      -0.52317176      -0.24183433
C       -0.70477263       0.31698324      -0.35833816
O       -0.84579520       1.47401560      -0.67900610
C        1.02147595       0.02789100       0.99747967
C        1.55969808       0.12896740      -0.30864108
O        0.89682891      -0.60325700      -1.13546756
H       -1.63271067      -1.50038729      -0.06444711
H       -2.65309825      -0.22220900      -0.60464221
H        0.91429749      -0.98071606       1.38380453
H        1.44821197       0.74138758       1.69469114
H        1.76224204       1.14049628      -0.68359880
11
Frame=15 idx=001616 GeodesicLength=0.9534200534973793 rxn_smarts="[N:1]([C:2](=[O:3])[C:4]([C:5](=[O:6])[H:11])([H:9])[H:10])([H:7])[H:8]>>[N:1]([C:2](=[O:3])[O:6][C:5](=[C:4]([H:9])[H:10])[H:11])([H:7])[H:8]"
N       -1.77818450      -0.51849421      -0.26509957
C       -0.70476708       0.30867647      -0.35899382
O       -0.83822918       1.46992335      -0.67622132
C        1.03109928       0.01760746       1.00253311
C        1.56494154       0.13518588      -0.30639738
O        0.91816625      -0.62202866      -1.12534032
H       -1.66685223      -1.48911404      -0.04284172
H       -2.66007425      -0.20765690      -0.63044898
H        0.97248350      -0.99472554       1.39063367
H        1.44691524       0.74429238       1.69293788
H        1.71450142       1.15633381      -0.68076155
11
Frame=16 idx=001616 GeodesicLength=1.0174849614264303 rxn_smarts="[N:1]([C:2](=[O:3])[C:4]([C:5](=[O:6])[H:11])([H:9])[H:10])([H:7])[H:8]>>[N:1]([C:2](=[O:3])[O:6][C:5](=[C:4]([H:9])[H:10])[H:11])([H:7])[H:8]"
N       -1.78930525      -0.51519847      -0.29101218
C       -0.70520126       0.29981603      -0.35981024
O       -0.83164311       1.46553101      -0.67223331
C        1.04066561       0.00693146       1.00747106
C        1.56982817       0.14150091      -0.30413197
O        0.94007903      -0.63980382      -1.11559841
H       -1.70251566      -1.47600410      -0.02100852
H       -2.66729087      -0.19280224      -0.65489447
H        1.03344239      -1.00684102       1.39734674
H        1.44390662       0.74732832       1.69102027
H        1.66803433       1.16954191      -0.67714896
