12
Frame=0 idx=000989 GeodesicLength=0.0 rxn_smarts="[C:1]1([H:7])([H:8])[O:2][C:3]12[C:4]([H:9])([H:10])[O:5][C:6]2([H:11])[H:12]>>[C-:1](=[O+:2][C:3]1([H:8])[C:4]([H:9])([H:10])[O:5][C:6]1([H:11])[H:12])[H:7]"
C        2.17385771      -0.02115627       0.11344819
O        1.19680739      -0.32463823       1.07047631
C        0.30636833       0.10687882       0.08353104
C       -0.86246807       0.99811535       0.49495380
O       -1.76274385       0.14260304      -0.22303883
C       -0.74436071      -0.83133019      -0.49960377
H        2.19022257      -0.91398213      -0.56626530
H        0.96101966       0.65474610      -0.69482676
H       -0.87701829       2.02435097       0.12593983
H       -1.03262485       0.97635159       1.57461546
H       -0.86743895      -1.74739104       0.08477927
H       -0.68162098      -1.06454801      -1.56400924
12
Frame=1 idx=000989 GeodesicLength=0.06359546053419537 rxn_smarts="[C:1]1([H:7])([H:8])[O:2][C:3]12[C:4]([H:9])([H:10])[O:5][C:6]2([H:11])[H:12]>>[C-:1](=[O+:2][C:3]1([H:8])[C:4]([H:9])([H:10])[O:5][C:6]1([H:11])[H:12])[H:7]"
C        2.16599806      -0.02126714       0.10766095
O        1.19488974      -0.32656706       1.06552350
C        0.30420561       0.10830725       0.07836306
C       -0.86437478       0.99680542       0.49592524
O       -1.76813341       0.13978449      -0.21599007
C       -0.74860919      -0.83088664      -0.49966582
H        2.21297200      -0.92598251      -0.55190829
H        0.97487879       0.67052692      -0.69949007
H       -0.88246128       2.02251820       0.12528137
H       -1.03016466       0.97769062       1.57635877
H       -0.86808320      -1.74870172       0.08278833
H       -0.69111768      -1.06222782      -1.56484696
12
Frame=2 idx=000989 GeodesicLength=0.12718443494136772 rxn_smarts="[C:1]1([H:7])([H:8])[O:2][C:3]12[C:4]([H:9])([H:10])[O:5][C:6]2([H:11])[H:12]>>[C-:1](=[O+:2][C:3]1([H:8])[C:4]([H:9])([H:10])[O:5][C:6]1([H:11])[H:12])[H:7]"
C        2.15800655      -0.02183749       0.10126857
O        1.19299646      -0.32845682       1.06027570
C        0.30191977       0.10967787       0.07303029
C       -0.86629633       0.99543842       0.49686669
O       -1.77359051       0.13691872      -0.20880895
C       -0.75303745      -0.83047335      -0.49974021
H        2.23634326      -0.93774940      -0.53672860
H        0.98897311       0.68681180      -0.70391497
H       -0.88793093       2.02059777       0.12459882
H       -1.02759479       0.97899402       1.57805102
H       -0.86886893      -1.75002150       0.08076545
H       -0.70092021      -1.05990002      -1.56566381
12
Frame=3 idx=000989 GeodesicLength=0.19077771031972612 rxn_smarts="[C:1]1([H:7])([H:8])[O:2][C:3]12[C:4]([H:9])([H:10])[O:5][C:6]2([H:11])[H:12]>>[C-:1](=[O+:2][C:3]1([H:8])[C:4]([H:9])([H:10])[O:5][C:6]1([H:11])[H:12])[H:7]"
C        2.14988110      -0.02290602       0.09425089
O        1.19114869      -0.33034564       1.05474260
C        0.29950330       0.11097640       0.06752782
C       -0.86823639       0.99404004       0.49778325
O       -1.77913223       0.13401980      -0.20150412
C       -0.75766522      -0.83011676      -0.49984111
H        2.26039764      -0.94921977      -0.52070496
H        1.00331433       0.70361687      -0.70807836
H       -0.89343907       2.01863725       0.12388691
H       -1.02489853       0.98029573       1.57972141
H       -0.86980727      -1.75139209       0.07871196
H       -0.71106636      -1.05760582      -1.56649629
12
Frame=4 idx=000989 GeodesicLength=0.2543669049774293 rxn_smarts="[C:1]1([H:7])([H:8])[O:2][C:3]12[C:4]([H:9])([H:10])[O:5][C:6]2([H:11])[H:12]>>[C-:1](=[O+:2][C:3]1([H:8])[C:4]([H:9])([H:10])[O:5][C:6]1([H:11])[H:12])[H:7]"
C        2.14160163      -0.02450623       0.08655441
O        1.18934347      -0.33224452       1.04889028
C        0.29694674       0.11218986       0.06184031
C       -0.87018702       0.99260011       0.49866699
O       -1.78476176       0.13108991      -0.19406505
C       -0.76251322      -0.82981594      -0.49996517
H        2.28517929      -0.96031429      -0.50377597
H        1.01793291       0.72094329      -0.71193656
H       -0.89896849       2.01661865       0.12313948
H       -1.02206043       0.98158722       1.58135331
H       -0.87092541      -1.75280466       0.07662864
H       -0.72158771      -1.05534341      -1.56733067
12
Frame=5 idx=000989 GeodesicLength=0.3179572772531031 rxn_smarts="[C:1]1([H:7])([H:8])[O:2][C:3]12[C:4]([H:9])([H:10])[O:5][C:6]2([H:11])[H:12]>>[C-:1](=[O+:2][C:3]1([H:8])[C:4]([H:9])([H:10])[O:5][C:6]1([H:11])[H:12])[H:7]"
C        2.13314570      -0.02667673       0.07813340
O        1.18757798      -0.33418341       1.04269316
C        0.29423820       0.11329973       0.05595378
C       -0.87214055       0.99111721       0.49951224
O       -1.79048437       0.12813939      -0.18648829
C       -0.76760688      -0.82957823      -0.50011169
H        2.31075341      -0.97092533      -0.48589151
H        1.03285985       0.73878533      -0.71545028
H       -0.90450066       2.01454133       0.12234962
H       -1.01906277       0.98286911       1.58294133
H       -0.87225791      -1.75426256       0.07452204
H       -0.73252200      -1.05312582      -1.56816379
12
Frame=6 idx=000989 GeodesicLength=0.3815404592318953 rxn_smarts="[C:1]1([H:7])([H:8])[O:2][C:3]12[C:4]([H:9])([H:10])[O:5][C:6]2([H:11])[H:12]>>[C-:1](=[O+:2][C:3]1([H:8])[C:4]([H:9])([H:10])[O:5][C:6]1([H:11])[H:12])[H:7]"
C        2.12449005      -0.02946371       0.06892965
O        1.18585417      -0.33618543       1.03611734
C        0.29136574       0.11428779       0.04984939
C       -0.87408814       0.98958765       0.50031242
O       -1.79630797       0.12517772      -0.17876753
C       -0.77297492      -0.82940933      -0.50028147
H        2.33718566      -0.98093763      -0.46698039
H        1.04813021       0.75713339      -0.71857081
H       -0.91001722       2.01240067       0.12151247
H       -1.01588311       0.98413861       1.58447644
H       -0.87383954      -1.75576703       0.07239428
H       -0.74391494      -1.05096270      -1.56899180
12
Frame=7 idx=000989 GeodesicLength=0.44512131759798634 rxn_smarts="[C:1]1([H:7])([H:8])[O:2][C:3]12[C:4]([H:9])([H:10])[O:5][C:6]2([H:11])[H:12]>>[C-:1](=[O+:2][C:3]1([H:8])[C:4]([H:9])([H:10])[O:5][C:6]1([H:11])[H:12])[H:7]"
C        2.11560660      -0.03292064       0.05888890
O        1.18416896      -0.33829345       1.02913370
C        0.28831440       0.11512958       0.04350799
C       -0.87602002       0.98801491       0.50106277
O       -1.80224222       0.12222009      -0.17089651
C       -0.77865144      -0.82932192      -0.50047737
H        2.36456458      -0.99020070      -0.44697743
H        1.06378425       0.77596803      -0.72125161
H       -0.91549575       2.01020576       0.12061954
H       -1.01249623       0.98540298       1.58595932
H       -0.87571403      -1.75733149       0.07025074
H       -0.75581910      -1.04887315      -1.56982003
12
Frame=8 idx=000989 GeodesicLength=0.5087033482461719 rxn_smarts="[C:1]1([H:7])([H:8])[O:2][C:3]12[C:4]([H:9])([H:10])[O:5][C:6]2([H:11])[H:12]>>[C-:1](=[O+:2][C:3]1([H:8])[C:4]([H:9])([H:10])[O:5][C:6]1([H:11])[H:12])[H:7]"
C        2.10648146      -0.03710959       0.04797187
O        1.18252236      -0.34057310       1.02169902
C        0.28506797       0.11578666       0.03691342
C       -0.87792608       0.98639542       0.50175103
O       -1.80831439       0.11929112      -0.16287512
C       -0.78469245      -0.82932525      -0.50069511
H        2.39302894      -0.99848783      -0.42583163
H        1.07988123       0.79523719      -0.72342994
H       -0.92090081       2.00794840       0.11966240
H       -1.00887577       0.98666758       1.58736669
H       -0.87796189      -1.75895031       0.06809715
H       -0.76831056      -1.04688028      -1.57062976
12
Frame=9 idx=000989 GeodesicLength=0.5722615604141005 rxn_smarts="[C:1]1([H:7])([H:8])[O:2][C:3]12[C:4]([H:9])([H:10])[O:5][C:6]2([H:11])[H:12]>>[C-:1](=[O+:2][C:3]1([H:8])[C:4]([H:9])([H:10])[O:5][C:6]1([H:11])[H:12])[H:7]"
C        2.09710850      -0.04213155       0.03608703
O        1.18098845      -0.34306455       1.01382388
C        0.28160768       0.11624107       0.03002652
C       -0.87982701       0.98479704       0.50240531
O       -1.81458342       0.11641964      -0.15468646
C       -0.79114297      -0.82946765      -0.50099321
H        2.42276833      -1.00572872      -0.40336850
H        1.09642933       0.81493045      -0.72508411
H       -0.92630820       2.00575044       0.11865013
H       -1.00496520       0.98801972       1.58879910
H       -0.88055992      -1.76072704       0.06589330
H       -0.78151557      -1.04503887      -1.57155300
12
Frame=10 idx=000989 GeodesicLength=0.6356764433563921 rxn_smarts="[C:1]1([H:7])([H:8])[O:2][C:3]12[C:4]([H:9])([H:10])[O:5][C:6]2([H:11])[H:12]>>[C-:1](=[O+:2][C:3]1([H:8])[C:4]([H:9])([H:10])[O:5][C:6]1([H:11])[H:12])[H:7]"
C        2.08736642      -0.04807212       0.02355384
O        1.17922111      -0.34605799       1.00549775
C        0.27795910       0.11638431       0.02297697
C       -0.88157477       0.98303782       0.50285745
O       -1.82079698       0.11362131      -0.14645916
C       -0.79792510      -0.82968736      -0.50113962
H        2.45298144      -1.01094575      -0.38058317
H        1.11375045       0.83494930      -0.72575096
H       -0.93129459       2.00325675       0.11732412
H       -1.00086708       0.98931738       1.58991442
H       -0.88378321      -1.76238841       0.06395177
H       -0.79503680      -1.04341526      -1.57214342
12
Frame=11 idx=000989 GeodesicLength=0.6992563453381393 rxn_smarts="[C:1]1([H:7])([H:8])[O:2][C:3]12[C:4]([H:9])([H:10])[O:5][C:6]2([H:11])[H:12]>>[C-:1](=[O+:2][C:3]1([H:8])[C:4]([H:9])([H:10])[O:5][C:6]1([H:11])[H:12])[H:7]"
C        2.07718191      -0.05494595       0.00960572
O        1.17751085      -0.34926326       0.99638565
C        0.27400838       0.11624584       0.01545110
C       -0.88321768       0.98119425       0.50326022
O       -1.82726517       0.11086851      -0.13785926
C       -0.80533752      -0.82999513      -0.50139060
H        2.48518462      -1.01459407      -0.35546459
H        1.13158906       0.85516031      -0.72597175
H       -0.93611118       2.00068297       0.11601657
H       -0.99625031       0.99053255       1.59095354
H       -0.88757700      -1.76416725       0.06181607
H       -0.80971596      -1.04171876      -1.57280267
12
Frame=12 idx=000989 GeodesicLength=0.7628277482544311 rxn_smarts="[C:1]1([H:7])([H:8])[O:2][C:3]12[C:4]([H:9])([H:10])[O:5][C:6]2([H:11])[H:12]>>[C-:1](=[O+:2][C:3]1([H:8])[C:4]([H:9])([H:10])[O:5][C:6]1([H:11])[H:12])[H:7]"
C        2.06660946      -0.06299201      -0.00541301
O        1.17576910      -0.35309916       0.98671529
C        0.26977799       0.11570823       0.00757563
C       -0.88477519       0.97936873       0.50357597
O       -1.83394531       0.10830524      -0.12906712
C       -0.81333395      -0.83048808      -0.50168275
H        2.51901909      -1.01593653      -0.32900635
H        1.15018704       0.87548001      -0.72541052
H       -0.94069501       1.99816511       0.11453228
H       -0.99125958       0.99187058       1.59197283
H       -0.89206057      -1.76612267       0.05972899
H       -0.82529307      -1.04025945      -1.57352123
12
Frame=13 idx=000989 GeodesicLength=0.8263108218782064 rxn_smarts="[C:1]1([H:7])([H:8])[O:2][C:3]12[C:4]([H:9])([H:10])[O:5][C:6]2([H:11])[H:12]>>[C-:1](=[O+:2][C:3]1([H:8])[C:4]([H:9])([H:10])[O:5][C:6]1([H:11])[H:12])[H:7]"
C        2.05554050      -0.07232251      -0.02160256
O        1.17394894      -0.35758970       0.97628148
C        0.26524308       0.11469971      -0.00070243
C       -0.88611059       0.97741538       0.50372297
O       -1.84081287       0.10590382      -0.12004903
C       -0.82204661      -0.83110691      -0.50198051
H        2.55448871      -1.01426007      -0.30089782
H        1.16967914       0.89567346      -0.72387922
H       -0.94481510       1.99544598       0.11285076
H       -0.98568771       0.99318036       1.59274207
H       -0.89743201      -1.76810291       0.05763584
H       -0.84199548      -1.03893662      -1.57412156
12
Frame=14 idx=000989 GeodesicLength=0.8897656438669648 rxn_smarts="[C:1]1([H:7])([H:8])[O:2][C:3]12[C:4]([H:9])([H:10])[O:5][C:6]2([H:11])[H:12]>>[C-:1](=[O+:2][C:3]1([H:8])[C:4]([H:9])([H:10])[O:5][C:6]1([H:11])[H:12])[H:7]"
C        2.04392175      -0.08316735      -0.03904182
O        1.17199452      -0.36300460       0.96505906
C        0.26036633       0.11310521      -0.00942437
C       -0.88720399       0.97538821       0.50371410
O       -1.84790863       0.10377604      -0.11078828
C       -0.83157940      -0.83190419      -0.50230260
H        2.59189545      -1.00885769      -0.27103748
H        1.19020704       0.91551784      -0.72135844
H       -0.94838128       1.99264449       0.11095106
H       -0.97950315       0.99451874       1.59333679
H       -0.90386448      -1.77020395       0.05556679
H       -0.85994416      -1.03781275      -1.57467481
12
Frame=15 idx=000989 GeodesicLength=0.9532243015615377 rxn_smarts="[C:1]1([H:7])([H:8])[O:2][C:3]12[C:4]([H:9])([H:10])[O:5][C:6]2([H:11])[H:12]>>[C-:1](=[O+:2][C:3]1([H:8])[C:4]([H:9])([H:10])[O:5][C:6]1([H:11])[H:12])[H:7]"
C        2.03167585      -0.09581894      -0.05781533
O        1.16980860      -0.36969586       0.95298394
C        0.25510393       0.11076568      -0.01863581
C       -0.88800113       0.97330540       0.50354785
O       -1.85525997       0.10207162      -0.10128191
C       -0.84206871      -0.83291091      -0.50265067
H        2.63156431      -0.99870869      -0.23928529
H        1.21194174       0.93467425      -0.71783417
H       -0.95121177       1.98982595       0.10881177
H       -0.97265392       0.99588787       1.59379403
H       -0.91162096      -1.77246910       0.05357418
H       -0.87927796      -1.03692726      -1.57520861
12
Frame=16 idx=000989 GeodesicLength=1.0165880278210162 rxn_smarts="[C:1]1([H:7])([H:8])[O:2][C:3]12[C:4]([H:9])([H:10])[O:5][C:6]2([H:11])[H:12]>>[C-:1](=[O+:2][C:3]1([H:8])[C:4]([H:9])([H:10])[O:5][C:6]1([H:11])[H:12])[H:7]"
C        2.01864300      -0.11061656      -0.07801543
O        1.16732596      -0.37788996       0.93984858
C        0.24941248       0.10749855      -0.02840493
C       -0.88827989       0.97103137       0.50315278
O       -1.86284799       0.10082706      -0.09149562
C       -0.85375077      -0.83409889      -0.50303800
H        2.67358671      -0.98229428      -0.20513756
H        1.23507010       0.95259898      -0.71316339
H       -0.95293663       1.98676039       0.10642320
H       -0.96476540       0.99717241       1.59392145
H       -0.92103762      -1.77479130       0.05153321
H       -0.90041994      -1.03619778      -1.57562429
