16
Frame=0 idx=008323 GeodesicLength=0.0 rxn_smarts="[N:1](=[C:2]1/[C:3]([H:9])([H:10])[C:4]([H:11])([H:12])[C:5]([H:13])([H:14])[C:6]([H:15])([H:16])[O:7]1)\[H:8]>>[H:10][H:11].[N:1](=[C:2]1/[C:3]([H:9])=[C:4]([H:12])[C:5]([H:13])([H:14])[C:6]([H:15])([H:16])[O:7]1)\[H:8]"
N        2.66940751       0.70103121      -0.48919645
C        1.44338795       0.44259120      -0.29092075
C        0.94922701      -0.90673782      -0.16777367
C       -0.46175120      -1.19494982      -0.03918521
C       -1.37282653      -0.03691396      -0.32744030
C       -0.75862996       1.21952966       0.26007648
O        0.53127524       1.47778097      -0.25398043
H        2.80204245       1.70419883      -0.58237833
H        1.65935345      -1.71009578      -0.27863425
H        0.09807922      -1.18012075       1.09679680
H       -0.88887450      -1.40678002       1.37766094
H       -0.78896419      -2.18829535      -0.32862257
H       -1.42658684       0.05084786      -1.41666161
H       -2.37873198      -0.19793123       0.06228073
H       -0.71688104       1.12915867       1.35513999
H       -1.35952654       2.09668629       0.02283856
16
Frame=1 idx=008323 GeodesicLength=0.10026984331535072 rxn_smarts="[N:1](=[C:2]1/[C:3]([H:9])([H:10])[C:4]([H:11])([H:12])[C:5]([H:13])([H:14])[C:6]([H:15])([H:16])[O:7]1)\[H:8]>>[H:10][H:11].[N:1](=[C:2]1/[C:3]([H:9])=[C:4]([H:12])[C:5]([H:13])([H:14])[C:6]([H:15])([H:16])[O:7]1)\[H:8]"
N        2.67255449       0.70133010      -0.44858243
C        1.44058301       0.44260512      -0.29523350
C        0.94473651      -0.90864244      -0.17008993
C       -0.46488141      -1.19401758      -0.03388412
C       -1.37633110      -0.03746294      -0.32797016
C       -0.76167232       1.22384830       0.24793048
O        0.52889303       1.47674937      -0.26970297
H        2.80671555       1.70309804      -0.55512428
H        1.64425196      -1.71156061      -0.33933345
H        0.12742718      -1.19204970       1.12186522
H       -0.86927366      -1.41049374       1.40128506
H       -0.79447846      -2.18547489      -0.32843264
H       -1.43852702       0.04376851      -1.41734751
H       -2.38015618      -0.19555655       0.06862147
H       -0.71864503       1.14416684       1.34353344
H       -1.36119657       2.09969218       0.00246534
16
Frame=2 idx=008323 GeodesicLength=0.20013104321573819 rxn_smarts="[N:1](=[C:2]1/[C:3]([H:9])([H:10])[C:4]([H:11])([H:12])[C:5]([H:13])([H:14])[C:6]([H:15])([H:16])[O:7]1)\[H:8]>>[H:10][H:11].[N:1](=[C:2]1/[C:3]([H:9])=[C:4]([H:12])[C:5]([H:13])([H:14])[C:6]([H:15])([H:16])[O:7]1)\[H:8]"
N        2.67412562       0.70109996      -0.41078845
C        1.43815271       0.44259388      -0.29734711
C        0.94046773      -0.91071536      -0.17108459
C       -0.46803269      -1.19298927      -0.02894190
C       -1.37946652      -0.03770027      -0.32914359
C       -0.76473611       1.22799880       0.23637238
O        0.52698611       1.47567324      -0.28346733
H        2.81078551       1.70113806      -0.53085669
H        1.62776315      -1.71066720      -0.39726880
H        0.15760990      -1.20492282       1.14722643
H       -0.84929367      -1.41461931       1.42436641
H       -0.79982062      -2.18249090      -0.32890553
H       -1.44904650       0.03754090      -1.41860566
H       -2.38150421      -0.19296126       0.07340767
H       -0.72141103       1.15837650       1.33241145
H       -1.36257938       2.10264505      -0.01737469
16
Frame=3 idx=008323 GeodesicLength=0.29979619953902337 rxn_smarts="[N:1](=[C:2]1/[C:3]([H:9])([H:10])[C:4]([H:11])([H:12])[C:5]([H:13])([H:14])[C:6]([H:15])([H:16])[O:7]1)\[H:8]>>[H:10][H:11].[N:1](=[C:2]1/[C:3]([H:9])=[C:4]([H:12])[C:5]([H:13])([H:14])[C:6]([H:15])([H:16])[O:7]1)\[H:8]"
N        2.67440211       0.70030532      -0.37625710
C        1.43589624       0.44246553      -0.29803078
C        0.93626990      -0.91301598      -0.17119936
C       -0.47133716      -1.19188556      -0.02438614
C       -1.38243386      -0.03768351      -0.33086657
C       -0.76781819       1.23201483       0.22513015
O        0.52541063       1.47449509      -0.29596314
H        2.81450672       1.69862766      -0.50733390
H        1.60994046      -1.70766496      -0.45247376
H        0.18897629      -1.21861706       1.17279723
H       -0.82849275      -1.41898942       1.44705965
H       -0.80519841      -2.17940840      -0.32979719
H       -1.45867360       0.03195221      -1.42035059
H       -2.38286710      -0.19014153       0.07706575
H       -0.72486415       1.17198809       1.32151368
H       -1.36371714       2.10555769      -0.03690793
16
Frame=4 idx=008323 GeodesicLength=0.3994671274695097 rxn_smarts="[N:1](=[C:2]1/[C:3]([H:9])([H:10])[C:4]([H:11])([H:12])[C:5]([H:13])([H:14])[C:6]([H:15])([H:16])[O:7]1)\[H:8]>>[H:10][H:11].[N:1](=[C:2]1/[C:3]([H:9])=[C:4]([H:12])[C:5]([H:13])([H:14])[C:6]([H:15])([H:16])[O:7]1)\[H:8]"
N        2.67365302       0.69893519      -0.34486567
C        1.43370572       0.44217675      -0.29764069
C        0.93203525      -0.91556845      -0.17064748
C       -0.47489628      -1.19070424      -0.02029279
C       -1.38535051      -0.03740926      -0.33311353
C       -0.77092178       1.23592337       0.21409989
O        0.52409827       1.47319720      -0.30748030
H        2.81783409       1.69575026      -0.48389501
H        1.59091544      -1.70283898      -0.50476046
H        0.22175726      -1.23308585       1.19853761
H       -0.80660074      -1.42356273       1.46936515
H       -0.81075242      -2.17624967      -0.33106755
H       -1.46767883       0.02697240      -1.42256476
H       -2.38431380      -0.18707083       0.07977474
H       -0.72886415       1.18507213       1.31074475
H       -1.36462054       2.10846271      -0.05619391
16
Frame=5 idx=008323 GeodesicLength=0.49919376076227917 rxn_smarts="[N:1](=[C:2]1/[C:3]([H:9])([H:10])[C:4]([H:11])([H:12])[C:5]([H:13])([H:14])[C:6]([H:15])([H:16])[O:7]1)\[H:8]>>[H:10][H:11].[N:1](=[C:2]1/[C:3]([H:9])=[C:4]([H:12])[C:5]([H:13])([H:14])[C:6]([H:15])([H:16])[O:7]1)\[H:8]"
N        2.67208967       0.69697575      -0.31651561
C        1.43145734       0.44168038      -0.29667306
C        0.92765699      -0.91839040      -0.16965559
C       -0.47882737      -1.18945657      -0.01668194
C       -1.38834926      -0.03688617      -0.33584014
C       -0.77404862       1.23975827       0.20314030
O        0.52295922       1.47175781      -0.31840749
H        2.82077208       1.69270302      -0.45951677
H        1.57078705      -1.69652013      -0.55406562
H        0.25625921      -1.24824471       1.22434760
H       -0.78329526      -1.42826922       1.49130786
H       -0.81664662      -2.17304764      -0.33262070
H       -1.47636853       0.02251554      -1.42521536
H       -2.38591824      -0.18370993       0.08175434
H       -0.73321749       1.19773702       1.29997185
H       -1.36531019       2.11139697      -0.07532967
16
Frame=6 idx=008323 GeodesicLength=0.599134932243761 rxn_smarts="[N:1](=[C:2]1/[C:3]([H:9])([H:10])[C:4]([H:11])([H:12])[C:5]([H:13])([H:14])[C:6]([H:15])([H:16])[O:7]1)\[H:8]>>[H:10][H:11].[N:1](=[C:2]1/[C:3]([H:9])=[C:4]([H:12])[C:5]([H:13])([H:14])[C:6]([H:15])([H:16])[O:7]1)\[H:8]"
N        2.66988194       0.69448885      -0.29046398
C        1.42910336       0.44098101      -0.29509441
C        0.92305937      -0.92146979      -0.16818879
C       -0.48320240      -1.18811543      -0.01366729
C       -1.39147880      -0.03605932      -0.33908221
C       -0.77723443       1.24353784       0.19230578
O        0.52196918       1.47020286      -0.32865157
H        2.82318014       1.68941931      -0.43509983
H        1.54978578      -1.68895104      -0.60006842
H        0.29260623      -1.26410116       1.25025423
H       -0.75844274      -1.43319206       1.51273208
H       -0.82293719      -2.16976756      -0.33461603
H       -1.48477519       0.01871257      -1.42833988
H       -2.38773901      -0.18002257       0.08294680
H       -0.73797663       1.20993042       1.28925288
H       -1.36579960       2.11440607      -0.09421936
16
Frame=7 idx=008323 GeodesicLength=0.6993272610718895 rxn_smarts="[N:1](=[C:2]1/[C:3]([H:9])([H:10])[C:4]([H:11])([H:12])[C:5]([H:13])([H:14])[C:6]([H:15])([H:16])[O:7]1)\[H:8]>>[H:10][H:11].[N:1](=[C:2]1/[C:3]([H:9])=[C:4]([H:12])[C:5]([H:13])([H:14])[C:6]([H:15])([H:16])[O:7]1)\[H:8]"
N        2.66712260       0.69152171      -0.26635281
C        1.42657075       0.44006513      -0.29305202
C        0.91816115      -0.92479843      -0.16625323
C       -0.48811619      -1.18666067      -0.01129979
C       -1.39481979      -0.03490033      -0.34284575
C       -0.78051046       1.24728816       0.18157543
O        0.52107401       1.46853694      -0.33829888
H        2.82505180       1.68590560      -0.41069802
H        1.52809879      -1.68041426      -0.64259682
H        0.33102476      -1.28061980       1.27623370
H       -0.73184559      -1.43836298       1.53351972
H       -0.82972217      -2.16639698      -0.33708558
H       -1.49301582       0.01560037      -1.43195295
H       -2.38984843      -0.17596930       0.08338343
H       -0.74311446       1.22167132       1.27857437
H       -1.36611093       2.11753351      -0.11285080
16
Frame=8 idx=008323 GeodesicLength=0.7998009304238858 rxn_smarts="[N:1](=[C:2]1/[C:3]([H:9])([H:10])[C:4]([H:11])([H:12])[C:5]([H:13])([H:14])[C:6]([H:15])([H:16])[O:7]1)\[H:8]>>[H:10][H:11].[N:1](=[C:2]1/[C:3]([H:9])=[C:4]([H:12])[C:5]([H:13])([H:14])[C:6]([H:15])([H:16])[O:7]1)\[H:8]"
N        2.66384459       0.68812121      -0.24375873
C        1.42381444       0.43894191      -0.29050756
C        0.91289340      -0.92834707      -0.16374393
C       -0.49364608      -1.18506811      -0.00964353
C       -1.39841455      -0.03335594      -0.34716629
C       -0.78391599       1.25103714       0.17099080
O        0.52024166       1.46678414      -0.34727918
H        2.82633948       1.68209300      -0.38690174
H        1.50594405      -1.67116309      -0.68140674
H        0.37165000      -1.29777877       1.30232836
H       -0.70336108      -1.44390075       1.55352591
H       -0.83704689      -2.16290048      -0.34016215
H       -1.50108725       0.01327498      -1.43609846
H       -2.39230627      -0.17150330       0.08299272
H       -0.74869057       1.23293595       1.26798362
H       -1.36625897       2.12082919      -0.13115309
16
Frame=9 idx=008323 GeodesicLength=0.9003942408733298 rxn_smarts="[N:1](=[C:2]1/[C:3]([H:9])([H:10])[C:4]([H:11])([H:12])[C:5]([H:13])([H:14])[C:6]([H:15])([H:16])[O:7]1)\[H:8]>>[H:10][H:11].[N:1](=[C:2]1/[C:3]([H:9])=[C:4]([H:12])[C:5]([H:13])([H:14])[C:6]([H:15])([H:16])[O:7]1)\[H:8]"
N        2.66006809       0.68415660      -0.22315727
C        1.42077821       0.43757948      -0.28748441
C        0.90716957      -0.93210382      -0.16041509
C       -0.49979723      -1.18337119      -0.00848800
C       -1.40225715      -0.03146450      -0.35207966
C       -0.78749622       1.25479678       0.16048999
O        0.51942814       1.46494735      -0.35559287
H        2.82717629       1.67796054      -0.36281322
H        1.48297977      -1.66117899      -0.71733029
H        0.41476417      -1.31528786       1.32872096
H       -0.67283883      -1.44971109       1.57273010
H       -0.84488820      -2.15936892      -0.34352295
H       -1.50885953       0.01159205      -1.44083566
H       -2.39515584      -0.16662434       0.08162048
H       -0.75478169       1.24377972       1.25741217
H       -1.36628956       2.12429819      -0.14925426
16
Frame=10 idx=008323 GeodesicLength=1.0011137308480178 rxn_smarts="[N:1](=[C:2]1/[C:3]([H:9])([H:10])[C:4]([H:11])([H:12])[C:5]([H:13])([H:14])[C:6]([H:15])([H:16])[O:7]1)\[H:8]>>[H:10][H:11].[N:1](=[C:2]1/[C:3]([H:9])=[C:4]([H:12])[C:5]([H:13])([H:14])[C:6]([H:15])([H:16])[O:7]1)\[H:8]"
N        2.65585542       0.67980687      -0.20357948
C        1.41741991       0.43598656      -0.28403131
C        0.90093889      -0.93605197      -0.15630275
C       -0.50672041      -1.18150658      -0.00804908
C       -1.40645065      -0.02913477      -0.35758384
C       -0.79127000       1.25860159       0.15012859
O        0.51860376       1.46303407      -0.36326911
H        2.82743728       1.67348298      -0.33959531
H        1.45976949      -1.65089789      -0.74942677
H        0.46046825      -1.33328518       1.35524632
H       -0.64012835      -1.45604340       1.59092144
H       -0.85338446      -2.15567250      -0.34756802
H       -1.51651703       0.01075050      -1.44616182
H       -2.39847856      -0.16125420       0.07934930
H       -0.76135395       1.25417302       1.24693577
H       -1.36618958       2.12801089      -0.16701392
16
Frame=11 idx=008323 GeodesicLength=1.1018476374761845 rxn_smarts="[N:1](=[C:2]1/[C:3]([H:9])([H:10])[C:4]([H:11])([H:12])[C:5]([H:13])([H:14])[C:6]([H:15])([H:16])[O:7]1)\[H:8]>>[H:10][H:11].[N:1](=[C:2]1/[C:3]([H:9])=[C:4]([H:12])[C:5]([H:13])([H:14])[C:6]([H:15])([H:16])[O:7]1)\[H:8]"
N        2.65120877       0.67507544      -0.18497244
C        1.41368957       0.43415216      -0.28017729
C        0.89412361      -0.94017545      -0.15130608
C       -0.51448593      -1.17946338      -0.00829324
C       -1.41103946      -0.02634876      -0.36369182
C       -0.79526983       1.26247819       0.13989276
O        0.51772661       1.46104838      -0.37033476
H        2.82717120       1.66864693      -0.31714819
H        1.43641858      -1.64054736      -0.77772009
H        0.50895280      -1.35164564       1.38191276
H       -0.60508427      -1.46297302       1.60800601
H       -0.86258901      -2.15179224      -0.35230427
H       -1.52407982       0.01075425      -1.45210183
H       -2.40233495      -0.15535823       0.07614005
H       -0.76842931       1.26414349       1.23654654
H       -1.36597854       2.13200524      -0.18444811
16
Frame=12 idx=008323 GeodesicLength=1.202549586147646 rxn_smarts="[N:1](=[C:2]1/[C:3]([H:9])([H:10])[C:4]([H:11])([H:12])[C:5]([H:13])([H:14])[C:6]([H:15])([H:16])[O:7]1)\[H:8]>>[H:10][H:11].[N:1](=[C:2]1/[C:3]([H:9])=[C:4]([H:12])[C:5]([H:13])([H:14])[C:6]([H:15])([H:16])[O:7]1)\[H:8]"
N        2.64612660       0.66996376      -0.16723209
C        1.40955032       0.43207111      -0.27587945
C        0.88665524      -0.94445688      -0.14528289
C       -0.52316124      -1.17723491      -0.00921218
C       -1.41605323      -0.02307958      -0.37043199
C       -0.79952763       1.26645065       0.12979471
O        0.51676488       1.45899906      -0.37676024
H        2.82639696       1.66340221      -0.29561220
H        1.41301591      -1.63031377      -0.80218078
H        0.56035402      -1.37021242       1.40878077
H       -0.56755667      -1.47063840       1.62387658
H       -0.87253614      -2.14770846      -0.35779613
H       -1.53152601       0.01163700      -1.45869827
H       -2.40677844      -0.14889830       0.07191364
H       -0.77605518       1.27369666       1.22626317
H       -1.36566939       2.13632227      -0.20154266
16
Frame=13 idx=008323 GeodesicLength=1.30309500216751 rxn_smarts="[N:1](=[C:2]1/[C:3]([H:9])([H:10])[C:4]([H:11])([H:12])[C:5]([H:13])([H:14])[C:6]([H:15])([H:16])[O:7]1)\[H:8]>>[H:10][H:11].[N:1](=[C:2]1/[C:3]([H:9])=[C:4]([H:12])[C:5]([H:13])([H:14])[C:6]([H:15])([H:16])[O:7]1)\[H:8]"
N        2.64061304       0.66449826      -0.15024227
C        1.40496643       0.42974950      -0.27106247
C        0.87847413      -0.94887017      -0.13808456
C       -0.53280188      -1.17479915      -0.01074874
C       -1.42150880      -0.01930264      -0.37782397
C       -0.80407809       1.27054438       0.11985459
O        0.51569043       1.45690133      -0.38249289
H        2.82517247       1.65769730      -0.27522252
H        1.38966374      -1.62036699      -0.82278998
H        0.61478677      -1.38887164       1.43584435
H       -0.52749517      -1.47922048       1.63842056
H       -0.88324521      -2.14338080      -0.36407198
H       -1.53880059       0.01341543      -1.46598666
H       -2.41186255      -0.14183989       0.06658035
H       -0.78429835       1.28284863       1.21611217
H       -1.36527635       2.14099693      -0.21828599
16
Frame=14 idx=008323 GeodesicLength=1.4034476705594838 rxn_smarts="[N:1](=[C:2]1/[C:3]([H:9])([H:10])[C:4]([H:11])([H:12])[C:5]([H:13])([H:14])[C:6]([H:15])([H:16])[O:7]1)\[H:8]>>[H:10][H:11].[N:1](=[C:2]1/[C:3]([H:9])=[C:4]([H:12])[C:5]([H:13])([H:14])[C:6]([H:15])([H:16])[O:7]1)\[H:8]"
N        2.63465441       0.65870354      -0.13381481
C        1.39990434       0.42719845      -0.26557001
C        0.86951798      -0.95338534      -0.12950922
C       -0.54346247      -1.17213148      -0.01285168
C       -1.42741077      -0.01498869      -0.38590146
C       -0.80896351       1.27477962       0.11012775
O        0.51448099       1.45477549      -0.38739918
H        2.82360913       1.65147290      -0.25653162
H        1.36647505      -1.61083781      -0.83945717
H        0.67234881      -1.40748074       1.46310971
H       -0.48491409      -1.48897313       1.65149611
H       -0.89471703      -2.13876020      -0.37120036
H       -1.54579723       0.01613351      -1.47401978
H       -2.41764512      -0.13415358       0.05999586
H       -0.79326800       1.29158335       1.20615361
H       -1.36481251       2.14606411      -0.23462775
16
Frame=15 idx=008323 GeodesicLength=1.5035706750516948 rxn_smarts="[N:1](=[C:2]1/[C:3]([H:9])([H:10])[C:4]([H:11])([H:12])[C:5]([H:13])([H:14])[C:6]([H:15])([H:16])[O:7]1)\[H:8]>>[H:10][H:11].[N:1](=[C:2]1/[C:3]([H:9])=[C:4]([H:12])[C:5]([H:13])([H:14])[C:6]([H:15])([H:16])[O:7]1)\[H:8]"
N        2.62824682       0.65262042      -0.11774549
C        1.39433698       0.42444497      -0.25922605
C        0.85973966      -0.95796357      -0.11937609
C       -0.55516849      -1.16920689      -0.01544842
C       -1.43374220      -0.01011588      -0.39469014
C       -0.81422345       1.27917482       0.10067262
O        0.51311744       1.45265436      -0.39133320
H        2.82182472       1.64463691      -0.24015521
H        1.34353775      -1.60181089      -0.85212817
H        0.73305400      -1.42589432       1.49056406
H       -0.43988940      -1.50018669       1.66299924
H       -0.90691576      -2.13379362      -0.37923863
H       -1.55238266       0.01981900      -1.48284032
H       -2.42416347      -0.12582028       0.05201615
H       -0.80307821       1.29989240       1.19645029
H       -1.36429372       2.15154927      -0.25052063
16
Frame=16 idx=008323 GeodesicLength=1.6034599100382783 rxn_smarts="[N:1](=[C:2]1/[C:3]([H:9])([H:10])[C:4]([H:11])([H:12])[C:5]([H:13])([H:14])[C:6]([H:15])([H:16])[O:7]1)\[H:8]>>[H:10][H:11].[N:1](=[C:2]1/[C:3]([H:9])=[C:4]([H:12])[C:5]([H:13])([H:14])[C:6]([H:15])([H:16])[O:7]1)\[H:8]"
N        2.62138878       0.64633226      -0.10169778
C        1.38824070       0.42154777      -0.25173074
C        0.84911074      -0.96254553      -0.10746160
C       -0.56792896      -1.16600088      -0.01843918
C       -1.44046126      -0.00466702      -0.40422225
C       -0.81991262       1.28374644       0.09159168
O        0.51158331       1.45059584      -0.39404061
H        2.82004666       1.63706254      -0.22717228
H        1.32097186      -1.59329802      -0.86073154
H        0.79683657      -1.44401496       1.51816159
H       -0.39265853      -1.51322521       1.67284186
H       -0.91976343      -2.12842075      -0.38825783
H       -1.55834577       0.02450819      -1.49250504
H       -2.43145283      -0.11684369       0.04243695
H       -0.81390988       1.30774783       1.18710909
H       -1.36374534       2.15747517      -0.26588231
