14
Frame=0 idx=006198 GeodesicLength=0.0 rxn_smarts="[C:1]1([H:7])([H:8])[C:2]([H:9])([H:10])[C:3]1([C@@:4]1([H:12])[C:5]([H:13])([H:14])[O:6]1)[H:11]>>[C:1]1([H:7])([H:8])[C:2]([H:9])([H:10])[C:3]1([C-:4]=[O+:6][C:5]([H:12])([H:13])[H:14])[H:11]"
C       -1.85574505      -0.25445186      -0.27589309
C       -1.21011548       1.07916205      -0.37735114
C       -0.46900561      -0.04631405       0.29385185
C        0.59356485      -0.72935340      -0.48953887
C        2.13757315      -0.37617157       0.35932347
O        1.38393598      -1.54653816       0.35884623
H       -1.92450902      -0.85229743      -1.17472738
H       -2.65702099      -0.39516356       0.43681888
H       -1.56938028       1.87879046       0.25608471
H       -0.84908419       1.38872606      -1.34966038
H       -0.39268144      -0.03130641       1.37873975
H        1.64831866       0.14347402      -0.65923922
H        3.16047005      -0.52484022       0.01747923
H        2.00367937       0.26628406       1.22526597
14
Frame=1 idx=006198 GeodesicLength=0.0550575670590763 rxn_smarts="[C:1]1([H:7])([H:8])[C:2]([H:9])([H:10])[C:3]1([C@@:4]1([H:12])[C:5]([H:13])([H:14])[O:6]1)[H:11]>>[C:1]1([H:7])([H:8])[C:2]([H:9])([H:10])[C:3]1([C-:4]=[O+:6][C:5]([H:12])([H:13])[H:14])[H:11]"
C       -1.85919491      -0.25629674      -0.28064042
C       -1.21879424       1.08040199      -0.37476601
C       -0.47754744      -0.04361972       0.29924945
C        0.59439979      -0.71990161      -0.47456723
C        2.14982353      -0.37589656       0.35591861
O        1.37884035      -1.53713223       0.37222838
H       -1.92006181      -0.85178180      -1.18165637
H       -2.66503926      -0.40191965       0.42591136
H       -1.58584502       1.87694557       0.25810294
H       -0.85200493       1.39404081      -1.34357562
H       -0.40714841      -0.02831130       1.38439705
H        1.65874031       0.14259062      -0.67648820
H        3.16846792      -0.54751924       0.01243194
H        2.03536411       0.26839986       1.22345410
14
Frame=2 idx=006198 GeodesicLength=0.11013478684498224 rxn_smarts="[C:1]1([H:7])([H:8])[C:2]([H:9])([H:10])[C:3]1([C@@:4]1([H:12])[C:5]([H:13])([H:14])[O:6]1)[H:11]>>[C:1]1([H:7])([H:8])[C:2]([H:9])([H:10])[C:3]1([C-:4]=[O+:6][C:5]([H:12])([H:13])[H:14])[H:11]"
C       -1.86255765      -0.25815504      -0.28562516
C       -1.22761838       1.08171419      -0.37195946
C       -0.48635030      -0.04087061       0.30495302
C        0.59529210      -0.70997007      -0.45894732
C        2.16229995      -0.37558885       0.35230446
O        1.37386188      -1.52704036       0.38643449
H       -1.91507508      -0.85110147      -1.18890149
H       -2.67315246      -0.40895173       0.41439329
H       -1.60280941       1.87497204       0.26028850
H       -0.85479347       1.39968807      -1.33701741
H       -0.42226752      -0.02544069       1.39035371
H        1.66903948       0.14073784      -0.69449202
H        3.17608679      -0.57067123       0.00722621
H        2.06804408       0.27067790       1.22098920
14
Frame=3 idx=006198 GeodesicLength=0.16525157871418975 rxn_smarts="[C:1]1([H:7])([H:8])[C:2]([H:9])([H:10])[C:3]1([C@@:4]1([H:12])[C:5]([H:13])([H:14])[O:6]1)[H:11]>>[C:1]1([H:7])([H:8])[C:2]([H:9])([H:10])[C:3]1([C-:4]=[O+:6][C:5]([H:12])([H:13])[H:14])[H:11]"
C       -1.86581017      -0.26002617      -0.29085858
C       -1.23660667       1.08310523      -0.36892271
C       -0.49542019      -0.03805166       0.31097154
C        0.59625506      -0.69948876      -0.44264399
C        2.17501011      -0.37525534       0.34846686
O        1.36900752      -1.51620815       0.40149170
H       -1.90949245      -0.85024557      -1.19646490
H       -2.68133518      -0.41628146       0.40223181
H       -1.62031635       1.87285761       0.26264005
H       -0.85746969       1.40569389      -1.32995855
H       -0.43806826      -0.02269566       1.39661367
H        1.67918246       0.13782753      -0.71327893
H        3.18329859      -0.59432754       0.00188317
H        2.10176520       0.27309605       1.21782886
14
Frame=4 idx=006198 GeodesicLength=0.22039196610805512 rxn_smarts="[C:1]1([H:7])([H:8])[C:2]([H:9])([H:10])[C:3]1([C@@:4]1([H:12])[C:5]([H:13])([H:14])[O:6]1)[H:11]>>[C:1]1([H:7])([H:8])[C:2]([H:9])([H:10])[C:3]1([C-:4]=[O+:6][C:5]([H:12])([H:13])[H:14])[H:11]"
C       -1.86892059      -0.26191077      -0.29635656
C       -1.24578121       1.08458533      -0.36564253
C       -0.50476488      -0.03514478       0.31731620
C        0.59730636      -0.68837037      -0.42561199
C        2.18796235      -0.37490871       0.34438886
O        1.36429010      -1.50455254       0.41744040
H       -1.90323960      -0.84919692      -1.20435287
H       -2.68955040      -0.42394328       0.38938230
H       -1.63841704       1.87058487       0.26515823
H       -0.86005814       1.41209571      -1.32236237
H       -0.45458576      -0.02007622       1.40318341
H        1.68911672       0.13374346      -0.73286725
H        3.19006369      -0.61853494      -0.00357555
H        2.13657839       0.27562917       1.21389972
14
Frame=5 idx=006198 GeodesicLength=0.2755825105638228 rxn_smarts="[C:1]1([H:7])([H:8])[C:2]([H:9])([H:10])[C:3]1([C@@:4]1([H:12])[C:5]([H:13])([H:14])[O:6]1)[H:11]>>[C:1]1([H:7])([H:8])[C:2]([H:9])([H:10])[C:3]1([C-:4]=[O+:6][C:5]([H:12])([H:13])[H:14])[H:11]"
C       -1.87186350      -0.26380933      -0.30212996
C       -1.25516234       1.08616410      -0.36211034
C       -0.51438934      -0.03212879       0.32399807
C        0.59846511      -0.67652997      -0.40781751
C        2.20116659      -0.37455383       0.34005950
O        1.35971560      -1.49201961       0.43430830
H       -1.89624999      -0.84794484      -1.21256944
H       -2.69776958      -0.43196442       0.37580537
H       -1.65716606       1.86814408       0.26784413
H       -0.86257939       1.41892365      -1.31420070
H       -0.47184990      -0.01758081       1.41006560
H        1.69879283       0.12837060      -0.75327931
H        3.19634993      -0.64331518      -0.00913629
H        2.17254004       0.27824432       1.20916257
14
Frame=6 idx=006198 GeodesicLength=0.3307913545366004 rxn_smarts="[C:1]1([H:7])([H:8])[C:2]([H:9])([H:10])[C:3]1([C@@:4]1([H:12])[C:5]([H:13])([H:14])[O:6]1)[H:11]>>[C:1]1([H:7])([H:8])[C:2]([H:9])([H:10])[C:3]1([C-:4]=[O+:6][C:5]([H:12])([H:13])[H:14])[H:11]"
C       -1.87459473      -0.26572416      -0.30819877
C       -1.26478285       1.08785359      -0.35831089
C       -0.52430056      -0.02897720       0.33102810
C        0.59975633      -0.66385027      -0.38920636
C        2.21463352      -0.37421260       0.33545733
O        1.35530586      -1.47849048       0.45214067
H       -1.88842413      -0.84646298      -1.22112180
H       -2.70593582      -0.44039282       0.36144739
H       -1.67663446       1.86550776       0.27069836
H       -0.86506907       1.42623198      -1.30542690
H       -0.48990120      -0.01520736       1.41726563
H        1.70813451       0.12155754      -0.77452081
H        3.20210469      -0.66873820      -0.01476772
H        2.20970791       0.28090521       1.20351576
14
Frame=7 idx=006198 GeodesicLength=0.3860410164853187 rxn_smarts="[C:1]1([H:7])([H:8])[C:2]([H:9])([H:10])[C:3]1([C@@:4]1([H:12])[C:5]([H:13])([H:14])[O:6]1)[H:11]>>[C:1]1([H:7])([H:8])[C:2]([H:9])([H:10])[C:3]1([C-:4]=[O+:6][C:5]([H:12])([H:13])[H:14])[H:11]"
C       -1.87707405      -0.26765184      -0.31457709
C       -1.27467141       1.08966546      -0.35423289
C       -0.53450292      -0.02566242       0.33841730
C        0.60120941      -0.65021694      -0.36973680
C        2.22837483      -0.37389490       0.33056649
O        1.35107657      -1.46388239       0.47096738
H       -1.87967748      -0.84472988      -1.23001228
H       -2.71400282      -0.44926756       0.34626172
H       -1.69688795       1.86265419       0.27371717
H       -0.86756262       1.43405921      -1.29600749
H       -0.50877211      -0.01295394       1.42478149
H        1.71706521       0.11315892      -0.79660139
H        3.20728321      -0.69483928      -0.02045273
H        2.24814213       0.28356136       1.19690912
14
Frame=8 idx=006198 GeodesicLength=0.4412376994759694 rxn_smarts="[C:1]1([H:7])([H:8])[C:2]([H:9])([H:10])[C:3]1([C@@:4]1([H:12])[C:5]([H:13])([H:14])[O:6]1)[H:11]>>[C:1]1([H:7])([H:8])[C:2]([H:9])([H:10])[C:3]1([C-:4]=[O+:6][C:5]([H:12])([H:13])[H:14])[H:11]"
C       -1.87924668      -0.26959240      -0.32128891
C       -1.28487049       1.09161231      -0.34985982
C       -0.54500565      -0.02215051       0.34617573
C        0.60286200      -0.63547805      -0.34936282
C        2.24240370      -0.37362428       0.32535429
O        1.34706387      -1.44803687       0.49082910
H       -1.86989760      -0.84269639      -1.23925290
H       -2.72188496      -0.45864927       0.33018648
H       -1.71800990       1.85953700       0.27690415
H       -0.87012014       1.44246763      -1.28589030
H       -0.52850223      -0.01082369       1.43261777
H        1.72548211       0.10297694      -0.81948741
H        3.21181434      -0.72171357      -0.02613090
H        2.28791163       0.28617115       1.18920553
14
Frame=9 idx=006198 GeodesicLength=0.49618076495557895 rxn_smarts="[C:1]1([H:7])([H:8])[C:2]([H:9])([H:10])[C:3]1([C@@:4]1([H:12])[C:5]([H:13])([H:14])[O:6]1)[H:11]>>[C:1]1([H:7])([H:8])[C:2]([H:9])([H:10])[C:3]1([C-:4]=[O+:6][C:5]([H:12])([H:13])[H:14])[H:11]"
C       -1.88103549      -0.27154483      -0.32834951
C       -1.29542545       1.09370935      -0.34518296
C       -0.55582150      -0.01839557       0.35433436
C        0.60474505      -0.61943270      -0.32803321
C        2.25673467      -0.37345278       0.31977310
O        1.34329718      -1.43077982       0.51179329
H       -1.85893963      -0.84035811      -1.24882136
H       -2.72950367      -0.46858899       0.31313852
H       -1.74012357       1.85614568       0.28021924
H       -0.87276481       1.45151398      -1.27499738
H       -0.54916758      -0.00887153       1.44074191
H        1.73324884       0.09085497      -0.84303366
H        3.21562506      -0.74946450      -0.03181537
H        2.32913091       0.28866487       1.18023302
14
Frame=10 idx=006198 GeodesicLength=0.5509578184234075 rxn_smarts="[C:1]1([H:7])([H:8])[C:2]([H:9])([H:10])[C:3]1([C@@:4]1([H:12])[C:5]([H:13])([H:14])[O:6]1)[H:11]>>[C:1]1([H:7])([H:8])[C:2]([H:9])([H:10])[C:3]1([C-:4]=[O+:6][C:5]([H:12])([H:13])[H:14])[H:11]"
C       -1.88236374      -0.27351882      -0.33579846
C       -1.30640083       1.09598323      -0.34017666
C       -0.56693722      -0.01433149       0.36288919
C        0.60692288      -0.60185653      -0.30566012
C        2.27138520      -0.37340134       0.31379607
O        1.33979413      -1.41194331       0.53390089
H       -1.84661986      -0.83764302      -1.25876931
H       -2.73673790      -0.47921747       0.29504887
H       -1.76335786       1.85240051       0.28369882
H       -0.87561200       1.46131247      -1.26328491
H       -0.57076947      -0.00702214       1.44917766
H        1.74020877       0.07650026      -0.86729084
H        3.21859802      -0.77821199      -0.03741572
H        2.37188988       0.29094964       1.16988453
14
Frame=11 idx=006198 GeodesicLength=0.6056940167697965 rxn_smarts="[C:1]1([H:7])([H:8])[C:2]([H:9])([H:10])[C:3]1([C@@:4]1([H:12])[C:5]([H:13])([H:14])[O:6]1)[H:11]>>[C:1]1([H:7])([H:8])[C:2]([H:9])([H:10])[C:3]1([C-:4]=[O+:6][C:5]([H:12])([H:13])[H:14])[H:11]"
C       -1.88313771      -0.27551620      -0.34366187
C       -1.31785924       1.09844958      -0.33483511
C       -0.57834205      -0.00989011       0.37185459
C        0.60944732      -0.58251578      -0.28215566
C        2.28637048      -0.37352569       0.30739959
O        1.33654817      -1.39140863       0.55720309
H       -1.83275671      -0.83452443      -1.26908526
H       -2.74346992      -0.49062011       0.27583383
H       -1.78786295       1.84825247       0.28731441
H       -0.87875081       1.47193430      -1.25069909
H       -0.59333565      -0.00524486       1.45790881
H        1.74621087       0.05976445      -0.89220257
H        3.22062706      -0.80805784      -0.04295326
H        2.41631114       0.29290286       1.15807852
14
Frame=12 idx=006198 GeodesicLength=0.6604101576580688 rxn_smarts="[C:1]1([H:7])([H:8])[C:2]([H:9])([H:10])[C:3]1([C@@:4]1([H:12])[C:5]([H:13])([H:14])[O:6]1)[H:11]>>[C:1]1([H:7])([H:8])[C:2]([H:9])([H:10])[C:3]1([C-:4]=[O+:6][C:5]([H:12])([H:13])[H:14])[H:11]"
C       -1.88322560      -0.27754800      -0.35198316
C       -1.32988759       1.10113665      -0.32913659
C       -0.59002824      -0.00498536       0.38124513
C        0.61238621      -0.56108519      -0.25739441
C        2.30170457      -0.37390287       0.30053560
O        1.33358543      -1.36892697       0.58177510
H       -1.81708698      -0.83093802      -1.27978350
H       -2.74951821      -0.50294587       0.25537744
H       -1.81383415       1.84361905       0.29105606
H       -0.88230380       1.48351178      -1.23715641
H       -0.61691415      -0.00351607       1.46692914
H        1.75103507       0.04038726      -0.91767905
H        3.22154459      -0.83920999      -0.04839793
H        2.46254286       0.29440360       1.14461259
14
Frame=13 idx=006198 GeodesicLength=0.715201546046074 rxn_smarts="[C:1]1([H:7])([H:8])[C:2]([H:9])([H:10])[C:3]1([C@@:4]1([H:12])[C:5]([H:13])([H:14])[O:6]1)[H:11]>>[C:1]1([H:7])([H:8])[C:2]([H:9])([H:10])[C:3]1([C-:4]=[O+:6][C:5]([H:12])([H:13])[H:14])[H:11]"
C       -1.88248990      -0.27961252      -0.36079531
C       -1.34257833       1.10405689      -0.32308430
C       -0.60197297       0.00048924       0.39107805
C        0.61582908      -0.53720526      -0.23125618
C        2.31739669      -0.37461455       0.29317031
O        1.33089706      -1.34433973       0.60765615
H       -1.79934722      -0.82683703      -1.29085128
H       -2.75469962      -0.51632014       0.23357952
H       -1.84147552       1.83841011       0.29487177
H       -0.88641760       1.49613170      -1.22260286
H       -0.64151968      -0.00177514       1.47622153
H        1.75443873       0.01817868      -0.94357882
H        3.22118262      -0.87179851      -0.05379087
H        2.51075667       0.29523625       1.12938229
14
Frame=14 idx=006198 GeodesicLength=0.7700392355169603 rxn_smarts="[C:1]1([H:7])([H:8])[C:2]([H:9])([H:10])[C:3]1([C@@:4]1([H:12])[C:5]([H:13])([H:14])[O:6]1)[H:11]>>[C:1]1([H:7])([H:8])[C:2]([H:9])([H:10])[C:3]1([C-:4]=[O+:6][C:5]([H:12])([H:13])[H:14])[H:11]"
C       -1.88072486      -0.28173185      -0.37015835
C       -1.35606465       1.10724543      -0.31665927
C       -0.61414974       0.00668432       0.40137788
C        0.61989157      -0.51035822      -0.20356112
C        2.33345748      -0.37579790       0.28522378
O        1.32852320      -1.31726795       0.63494996
H       -1.77913395      -0.82212895      -1.30231384
H       -2.75872529      -0.53098512       0.21027930
H       -1.87108739       1.83248258       0.29873438
H       -0.89128452       1.50998900      -1.20693665
H       -0.66720279       0.00002820       1.48577279
H        1.75605055      -0.00717133      -0.96969233
H        3.21925926      -0.90614577      -0.05909922
H        2.56119114       0.29515756       1.11208268
14
Frame=15 idx=006198 GeodesicLength=0.8249894921301205 rxn_smarts="[C:1]1([H:7])([H:8])[C:2]([H:9])([H:10])[C:3]1([C@@:4]1([H:12])[C:5]([H:13])([H:14])[O:6]1)[H:11]>>[C:1]1([H:7])([H:8])[C:2]([H:9])([H:10])[C:3]1([C-:4]=[O+:6][C:5]([H:12])([H:13])[H:14])[H:11]"
C       -1.87768161      -0.28393001      -0.38014264
C       -1.37049193       1.11073489      -0.30985756
C       -0.62651111       0.01378799       0.41217486
C        0.62472986      -0.47991394      -0.17407806
C        2.34988768      -0.37760469       0.27661140
O        1.32649313      -1.28733671       0.66376314
H       -1.75597357      -0.81672930      -1.31419225
H       -2.76125938      -0.54721712       0.18529974
H       -1.90301555       1.82566205       0.30258209
H       -0.89713171       1.52527705      -1.19006339
H       -0.69399642       0.00198361       1.49557012
H        1.75539243      -0.03594306      -0.99575506
H        3.21541542      -0.94257259      -0.06435935
H        2.61414276       0.29380183       1.09244697
14
Frame=16 idx=006198 GeodesicLength=0.8800681572065967 rxn_smarts="[C:1]1([H:7])([H:8])[C:2]([H:9])([H:10])[C:3]1([C@@:4]1([H:12])[C:5]([H:13])([H:14])[O:6]1)[H:11]>>[C:1]1([H:7])([H:8])[C:2]([H:9])([H:10])[C:3]1([C-:4]=[O+:6][C:5]([H:12])([H:13])[H:14])[H:11]"
C       -1.87305986      -0.28627471      -0.39077930
C       -1.38604994       1.11455103      -0.30274302
C       -0.63894352       0.02208667       0.42346031
C        0.63056363      -0.44500427      -0.14259715
C        2.36666581      -0.38025966       0.26727278
O        1.32482115      -1.25415557       0.69401923
H       -1.72932665      -0.81065545      -1.32644154
H       -2.76186356      -0.56537339       0.15856722
H       -1.93765375       1.81777407       0.30628238
H       -0.90431184       1.54217592      -1.17201397
H       -0.72183286       0.00429618       1.50555229
H        1.75187924      -0.06817746      -1.02129312
H        3.20917371      -0.98142475      -0.06963567
H        2.66993842       0.29044141       1.07034956
