12
Frame=0 idx=000612 GeodesicLength=0.0 rxn_smarts="[C:1]1([H:7])([H:8])[C@@:2]2([H:9])[C@:3]3([H:10])[O:4][C@@:5]2([H:11])[C@:6]13[H:12]>>[C:1]1([H:7])([H:8])[C@@:2]2([H:9])[C-:3]=[O+:4][C@@:5]2([H:11])[C:6]1([H:10])[H:12]"
C        1.11701690      -0.50483827       0.11830803
C       -0.27462119      -0.62196477       0.72874339
C       -0.63822551       0.87205302       0.96815341
O       -1.79229225       0.80829780       0.13415518
C       -0.98835523      -0.15920110      -0.54528178
C        0.38428717       0.54099774      -0.69940179
H        1.47076228      -1.37657762      -0.43703293
H        1.90636119      -0.13854403       0.77982929
H       -0.64220974      -1.36886156       1.42739674
H        0.19305002       1.52144874       0.37896998
H       -1.48211417      -0.73643502      -1.33543926
H        0.74634052       1.16362510      -1.51840022
12
Frame=1 idx=000612 GeodesicLength=0.06554579957743499 rxn_smarts="[C:1]1([H:7])([H:8])[C@@:2]2([H:9])[C@:3]3([H:10])[O:4][C@@:5]2([H:11])[C@:6]13[H:12]>>[C:1]1([H:7])([H:8])[C@@:2]2([H:9])[C-:3]=[O+:4][C@@:5]2([H:11])[C:6]1([H:10])[H:12]"
C        1.11553644      -0.50329206       0.12010016
C       -0.27762069      -0.62530785       0.72952375
C       -0.63888195       0.86739687       0.97302635
O       -1.79063004       0.80659867       0.13974794
C       -0.98634952      -0.15798846      -0.54661480
C        0.38403549       0.54684449      -0.69589959
H        1.47278621      -1.37266983      -0.43619560
H        1.90201055      -0.13859159       0.78570140
H       -0.64119743      -1.37901915       1.42274586
H        0.19857857       1.53935372       0.37572313
H       -1.48278129      -0.73133597      -1.33705320
H        0.74451366       1.14801117      -1.53080542
12
Frame=2 idx=000612 GeodesicLength=0.13109122915567867 rxn_smarts="[C:1]1([H:7])([H:8])[C@@:2]2([H:9])[C@:3]3([H:10])[O:4][C@@:5]2([H:11])[C@:6]13[H:12]>>[C:1]1([H:7])([H:8])[C@@:2]2([H:9])[C-:3]=[O+:4][C@@:5]2([H:11])[C:6]1([H:10])[H:12]"
C        1.11404340      -0.50169609       0.12189026
C       -0.28063344      -0.62873971       0.73023600
C       -0.63953626       0.86262102       0.97797674
O       -1.78892742       0.80492863       0.14536819
C       -0.98435584      -0.15673816      -0.54792796
C        0.38375266       0.55276092      -0.69239151
H        1.47485737      -1.36867680      -0.43534527
H        1.89761066      -0.13858589       0.79157231
H       -0.64012516      -1.38927656       1.41792171
H        0.20418702       1.55756982       0.37209271
H       -1.48350590      -0.72614418      -1.33863435
H        0.74263292       1.13197701      -1.54275881
12
Frame=3 idx=000612 GeodesicLength=0.1966360955935313 rxn_smarts="[C:1]1([H:7])([H:8])[C@@:2]2([H:9])[C@:3]3([H:10])[O:4][C@@:5]2([H:11])[C@:6]13[H:12]>>[C:1]1([H:7])([H:8])[C@@:2]2([H:9])[C-:3]=[O+:4][C@@:5]2([H:11])[C:6]1([H:10])[H:12]"
C        1.11253622      -0.50005641       0.12367834
C       -0.28365983      -0.63226434       0.73087958
C       -0.64018827       0.85771933       0.98300223
O       -1.78718269       0.80328778       0.15101409
C       -0.98237808      -0.15545685      -0.54921967
C        0.38343561       0.55873420      -0.68888532
H        1.47697378      -1.36460745      -0.43447637
H        1.89316071      -0.13852838       0.79743816
H       -0.63899217      -1.39963369       1.41292478
H        0.20988824       1.57610504       0.36803615
H       -1.48429510      -0.72086744      -1.34017707
H        0.74070158       1.11556821      -1.55421489
12
Frame=4 idx=000612 GeodesicLength=0.26218002092897497 rxn_smarts="[C:1]1([H:7])([H:8])[C@@:2]2([H:9])[C@:3]3([H:10])[O:4][C@@:5]2([H:11])[C@:6]13[H:12]>>[C:1]1([H:7])([H:8])[C@@:2]2([H:9])[C-:3]=[O+:4][C@@:5]2([H:11])[C:6]1([H:10])[H:12]"
C        1.11101323      -0.49837988       0.12546528
C       -0.28670057      -0.63588639       0.73145449
C       -0.64083787       0.85268494       0.98810113
O       -1.78539395       0.80167597       0.15668430
C       -0.98042023      -0.15415170      -0.55048788
C        0.38308135       0.56475058      -0.68538776
H        1.47913335      -1.36047117      -0.43358287
H        1.88865972      -0.13842126       0.80329619
H       -0.63779824      -1.41009109       1.40775611
H        0.21569602       1.59496748       0.36350771
H       -1.48515571      -0.71551351      -1.34167576
H        0.73872290       1.09883603      -1.56513093
12
Frame=5 idx=000612 GeodesicLength=0.3277229174402875 rxn_smarts="[C:1]1([H:7])([H:8])[C@@:2]2([H:9])[C@:3]3([H:10])[O:4][C@@:5]2([H:11])[C@:6]13[H:12]>>[C:1]1([H:7])([H:8])[C@@:2]2([H:9])[C-:3]=[O+:4][C@@:5]2([H:11])[C:6]1([H:10])[H:12]"
C        1.10947269      -0.49667375       0.12725305
C       -0.28975667      -0.63961139       0.73196121
C       -0.64148519       0.84751005       0.99327308
O       -1.78355926       0.80009290       0.16237850
C       -0.97848625      -0.15282993      -0.55173001
C        0.38268701       0.57079628      -0.68190387
H        1.48133424      -1.35627721      -0.43265848
H        1.88410643      -0.13826722       0.80914512
H       -0.63654381      -1.42065071       1.40241655
H        0.22162477       1.61416583       0.35845901
H       -1.48609416      -0.71008932      -1.34312521
H        0.73670019       1.08183447      -1.57546893
12
Frame=6 idx=000612 GeodesicLength=0.3932645099582135 rxn_smarts="[C:1]1([H:7])([H:8])[C@@:2]2([H:9])[C@:3]3([H:10])[O:4][C@@:5]2([H:11])[C@:6]13[H:12]>>[C:1]1([H:7])([H:8])[C@@:2]2([H:9])[C-:3]=[O+:4][C@@:5]2([H:11])[C:6]1([H:10])[H:12]"
C        1.10791286      -0.49494561       0.12904467
C       -0.29282945      -0.64344563       0.73240065
C       -0.64213071       0.84218585       0.99851904
O       -1.78167661       0.79853804       0.16809741
C       -0.97658004      -0.15149873      -0.55294299
C        0.38224986       0.57685762      -0.67843683
H        1.48357476      -1.35203452      -0.43169663
H        1.87949932      -0.13806960       0.81498526
H       -0.63522986      -1.43131576       1.39690668
H        0.22768956       1.63370918       0.35283882
H       -1.48711628      -0.70460086      -1.34452048
H        0.73463659       1.06462003      -1.58519560
12
Frame=7 idx=000612 GeodesicLength=0.4588049383574673 rxn_smarts="[C:1]1([H:7])([H:8])[C@@:2]2([H:9])[C@:3]3([H:10])[O:4][C@@:5]2([H:11])[C@:6]13[H:12]>>[C:1]1([H:7])([H:8])[C@@:2]2([H:9])[C-:3]=[O+:4][C@@:5]2([H:11])[C:6]1([H:10])[H:12]"
C        1.10633199      -0.49320303       0.13084435
C       -0.29592050      -0.64739631       0.73277406
C       -0.64277541       0.83670228       1.00384192
O       -1.77974397       0.79701068       0.17384317
C       -0.97470531      -0.15016478      -0.55412318
C        0.38176740       0.58292179      -0.67498738
H        1.48585372      -1.34775112      -0.43069070
H        1.87483648      -0.13783208       0.82081891
H       -0.63385794      -1.44209133       1.39122619
H        0.23390592       1.65360758       0.34659348
H       -1.48822727      -0.69905244      -1.34585719
H        0.73253489       1.04724876      -1.59428363
12
Frame=8 idx=000612 GeodesicLength=0.5243441248129604 rxn_smarts="[C:1]1([H:7])([H:8])[C@@:2]2([H:9])[C@:3]3([H:10])[O:4][C@@:5]2([H:11])[C@:6]13[H:12]>>[C:1]1([H:7])([H:8])[C@@:2]2([H:9])[C-:3]=[O+:4][C@@:5]2([H:11])[C:6]1([H:10])[H:12]"
C        1.10472835      -0.49145347       0.13265739
C       -0.29903167      -0.65147145       0.73308289
C       -0.64342085       0.83104801       1.00924648
O       -1.77775935       0.79550993       0.17961934
C       -0.97286560      -0.14883421      -0.55526633
C        0.38123726       0.58897695      -0.67155387
H        1.48817025      -1.34343403      -0.42963408
H        1.87011561      -0.13755888       0.82665018
H       -0.63243001      -1.45298419       1.38537378
H        0.24028977       1.67387180       0.33966623
H       -1.48943164      -0.69344677      -1.34713125
H        0.73039788       1.02977630      -1.60271076
12
Frame=9 idx=000612 GeodesicLength=0.5898820918243073 rxn_smarts="[C:1]1([H:7])([H:8])[C@@:2]2([H:9])[C@:3]3([H:10])[O:4][C@@:5]2([H:11])[C@:6]13[H:12]>>[C:1]1([H:7])([H:8])[C@@:2]2([H:9])[C-:3]=[O+:4][C@@:5]2([H:11])[C:6]1([H:10])[H:12]"
C        1.10310020      -0.48970407       0.13449018
C       -0.30216503      -0.65567996       0.73332872
C       -0.64406929       0.82521023       1.01473968
O       -1.77572084       0.79403466       0.18543114
C       -0.97106418      -0.14751233      -0.55636763
C        0.38065722       0.59501275      -0.66813193
H        1.49052400      -1.33908886      -0.42852025
H        1.86533402      -0.13725451       0.83248516
H       -0.63094841      -1.46400305       1.37934669
H        0.24685735       1.69451364       0.33199725
H       -1.49073318      -0.68778451      -1.34833900
H        0.72822813       1.01225600      -1.61046000
12
Frame=10 idx=000612 GeodesicLength=0.6554188062846296 rxn_smarts="[C:1]1([H:7])([H:8])[C@@:2]2([H:9])[C@:3]3([H:10])[O:4][C@@:5]2([H:11])[C@:6]13[H:12]>>[C:1]1([H:7])([H:8])[C@@:2]2([H:9])[C-:3]=[O+:4][C@@:5]2([H:11])[C:6]1([H:10])[H:12]"
C        1.10144579      -0.48796158       0.13635012
C       -0.30532289      -0.66003158       0.73351308
C       -0.64472387       0.81917454       1.02033065
O       -1.77362664       0.79258353       0.19128526
C       -0.96930402      -0.14620346      -0.55742173
C        0.38002527       0.60102056      -0.66471434
H        1.49291496      -1.33471975      -0.42734299
H        1.86048861      -0.13692400       0.83833173
H       -0.62941572      -1.47515829       1.37314089
H        0.25362539       1.71554576       0.32352332
H       -1.49213473      -0.68206441      -1.34947718
H        0.72602786       0.99473867      -1.61751882
12
Frame=11 idx=000612 GeodesicLength=0.720954479587765 rxn_smarts="[C:1]1([H:7])([H:8])[C@@:2]2([H:9])[C@:3]3([H:10])[O:4][C@@:5]2([H:11])[C@:6]13[H:12]>>[C:1]1([H:7])([H:8])[C@@:2]2([H:9])[C-:3]=[O+:4][C@@:5]2([H:11])[C:6]1([H:10])[H:12]"
C        1.09976341      -0.48623207       0.13824564
C       -0.30850772      -0.66453706       0.73363735
C       -0.64538858       0.81292476       1.02603098
O       -1.77147510       0.79115496       0.19719049
C       -0.96758784      -0.14491071      -0.55842265
C        0.37933945       0.60699383      -0.66129097
H        1.49534373      -1.33032897      -0.42609631
H        1.85557580      -0.13657258       0.84419981
H       -0.62783468      -1.48646249       1.36675024
H        0.26061074       1.73698212       0.31417708
H       -1.49363854      -0.67628260      -1.35054288
H        0.72379933       0.97727080      -1.62387877
12
Frame=12 idx=000612 GeodesicLength=0.7864892676010559 rxn_smarts="[C:1]1([H:7])([H:8])[C@@:2]2([H:9])[C@:3]3([H:10])[O:4][C@@:5]2([H:11])[C@:6]13[H:12]>>[C:1]1([H:7])([H:8])[C@@:2]2([H:9])[C-:3]=[O+:4][C@@:5]2([H:11])[C:6]1([H:10])[H:12]"
C        1.09805130      -0.48452104       0.14018617
C       -0.31172218      -0.66920803       0.73370267
C       -0.64606827       0.80644287       1.03185463
O       -1.76926468       0.78974712       0.20315745
C       -0.96591810      -0.14363600      -0.55936374
C        0.37859791       0.61292795      -0.65784883
H        1.49781150      -1.32591699      -0.42477442
H        1.85059149      -0.13620578       0.85010119
H       -0.62620816      -1.49793023       1.36016653
H        0.26783077       1.75883751       0.30388599
H       -1.49524621      -0.67043282      -1.35153344
H        0.72154463       0.95989544      -1.62953421
12
Frame=13 idx=000612 GeodesicLength=0.8520251153819334 rxn_smarts="[C:1]1([H:7])([H:8])[C@@:2]2([H:9])[C@:3]3([H:10])[O:4][C@@:5]2([H:11])[C@:6]13[H:12]>>[C:1]1([H:7])([H:8])[C@@:2]2([H:9])[C-:3]=[O+:4][C@@:5]2([H:11])[C:6]1([H:10])[H:12]"
C        1.09630780      -0.48283326       0.14218210
C       -0.31496922      -0.67405746       0.73371002
C       -0.64676888       0.79970905       1.03781857
O       -1.76699412       0.78835812       0.20919933
C       -0.96429699      -0.14237994      -0.56023776
C        0.37779899       0.61882090      -0.65437211
H        1.50032030      -1.32148263      -0.42337199
H        1.84553099      -0.13582925       0.85604984
H       -0.62453934      -1.50957900       1.35337935
H        0.27530324       1.78112858       0.29257172
H       -1.49695882      -0.66450636      -1.35244663
H        0.71926604       0.94265126      -1.63448244
12
Frame=14 idx=000612 GeodesicLength=0.9175779525167906 rxn_smarts="[C:1]1([H:7])([H:8])[C@@:2]2([H:9])[C@:3]3([H:10])[O:4][C@@:5]2([H:11])[C@:6]13[H:12]>>[C:1]1([H:7])([H:8])[C@@:2]2([H:9])[C-:3]=[O+:4][C@@:5]2([H:11])[C:6]1([H:10])[H:12]"
C        1.09453186      -0.48117451       0.14424402
C       -0.31825314      -0.67910226       0.73366281
C       -0.64749991       0.79270428       1.04394664
O       -1.76466422       0.78698868       0.21533464
C       -0.96272608      -0.14114224      -0.56103731
C        0.37694212       0.62467568      -0.65084463
H        1.50287513      -1.31702782      -0.42188690
H        1.84038879      -0.13544925       0.86206220
H       -0.62283358      -1.52143482       1.34638101
H        0.28304466       1.80388048       0.28014866
H       -1.49877531      -0.65849417      -1.35328290
H        0.71696968       0.92557596      -1.63872825
12
Frame=15 idx=000612 GeodesicLength=0.983091773756601 rxn_smarts="[C:1]1([H:7])([H:8])[C@@:2]2([H:9])[C@:3]3([H:10])[O:4][C@@:5]2([H:11])[C@:6]13[H:12]>>[C:1]1([H:7])([H:8])[C@@:2]2([H:9])[C-:3]=[O+:4][C@@:5]2([H:11])[C:6]1([H:10])[H:12]"
C        1.09271965      -0.47954332       0.14638805
C       -0.32157240      -0.68434543       0.73355119
C       -0.64826002       0.78539381       1.05024215
O       -1.76226780       0.78562594       0.22156822
C       -0.96120953      -0.13991882      -0.56174998
C        0.37602102       0.63048082      -0.64723543
H        1.50547161      -1.31253011      -0.42029988
H        1.83516073      -0.13507312       0.86815309
H       -0.62108429      -1.53349557       1.33913381
H        0.29108102       1.82707808       0.26651699
H       -1.50070216      -0.65237270      -1.35402772
H        0.71464217       0.90870042      -1.64224050
12
Frame=16 idx=000612 GeodesicLength=1.048625226828437 rxn_smarts="[C:1]1([H:7])([H:8])[C@@:2]2([H:9])[C@:3]3([H:10])[O:4][C@@:5]2([H:11])[C@:6]13[H:12]>>[C:1]1([H:7])([H:8])[C@@:2]2([H:9])[C-:3]=[O+:4][C@@:5]2([H:11])[C:6]1([H:10])[H:12]"
C        1.09087061      -0.47794439       0.14862549
C       -0.32493340      -0.68981563       0.73338240
C       -0.64906180       0.77775791       1.05675003
O       -1.75980653       0.78427554       0.22793800
C       -0.95974667      -0.13870543      -0.56236872
C        0.37503725       0.63625486      -0.64352754
H        1.50812357      -1.30799364      -0.41861690
H        1.82983347      -0.13470427       0.87435131
H       -0.61930182      -1.54581176       1.33163159
H        0.29942165       1.85077261       0.25157434
H       -1.50273655      -0.64612418      -1.35469206
H        0.71230021       0.89203840      -1.64504793
