12
Frame=0 idx=005336 GeodesicLength=0.0 rxn_smarts="[C:1]([C@@:2]1([H:10])[C:3]([H:11])([H:12])[C:4](=[O:5])[O:6]1)([H:7])([H:8])[H:9]>>[C:1]([C@@:2]1([H:10])[C:3]([H:12])=[C:4]([O:5][H:11])[O:6]1)([H:7])([H:8])[H:9]"
C       -1.61421386      -0.17858797       0.34876275
C       -0.38168219      -0.11715636      -0.50390694
C        0.75139551       0.82374695      -0.08961842
C        1.45069745      -0.38013774       0.09686831
O        2.71522345      -0.45239314       0.09754332
O        0.53772575      -1.28380166      -0.23204890
H       -1.34905540      -0.21428404       1.40622709
H       -2.21483128      -1.05547606       0.10250771
H       -2.21945384       0.71289001       0.17195306
H       -0.59777280      -0.15411418      -1.57205276
H        2.25777876       0.65855690      -0.43657639
H        0.66418848       1.64075733       0.61034121
12
Frame=1 idx=005336 GeodesicLength=0.04947124292329634 rxn_smarts="[C:1]([C@@:2]1([H:10])[C:3]([H:11])([H:12])[C:4](=[O:5])[O:6]1)([H:7])([H:8])[H:9]>>[C:1]([C@@:2]1([H:10])[C:3]([H:12])=[C:4]([O:5][H:11])[O:6]1)([H:7])([H:8])[H:9]"
C       -1.61515357      -0.17879761       0.34819709
C       -0.38074341      -0.11815471      -0.50223651
C        0.75302662       0.82100985      -0.08769276
C        1.45033115      -0.38474333       0.10858111
O        2.71456695      -0.45503730       0.09127433
O        0.53535755      -1.28482388      -0.23062458
H       -1.35145510      -0.21532036       1.40602665
H       -2.21575878      -1.05539973       0.10090659
H       -2.21980555       0.71297197       0.17091263
H       -0.59612974      -0.15217291      -1.57070059
H        2.26145458       0.66918636      -0.44305982
H        0.66430930       1.64128164       0.60841587
12
Frame=2 idx=005336 GeodesicLength=0.09895410632605997 rxn_smarts="[C:1]([C@@:2]1([H:10])[C:3]([H:11])([H:12])[C:4](=[O:5])[O:6]1)([H:7])([H:8])[H:9]>>[C:1]([C@@:2]1([H:10])[C:3]([H:12])=[C:4]([O:5][H:11])[O:6]1)([H:7])([H:8])[H:9]"
C       -1.61609962      -0.17897775       0.34760560
C       -0.37976146      -0.11921287      -0.50052122
C        0.75474020       0.81814793      -0.08567596
C        1.44996415      -0.38948826       0.12036741
O        2.71370601      -0.45763922       0.08467366
O        0.53297558      -1.28591644      -0.22901210
H       -1.35393871      -0.21630793       1.40581987
H       -2.21672735      -1.05526649       0.09926302
H       -2.22010762       0.71310876       0.16978406
H       -0.59437331      -0.15034123      -1.56931018
H        2.26513803       0.68022894      -0.44955797
H        0.66448410       1.64166455       0.60656379
12
Frame=3 idx=005336 GeodesicLength=0.14843770708920834 rxn_smarts="[C:1]([C@@:2]1([H:10])[C:3]([H:11])([H:12])[C:4](=[O:5])[O:6]1)([H:7])([H:8])[H:9]>>[C:1]([C@@:2]1([H:10])[C:3]([H:12])=[C:4]([O:5][H:11])[O:6]1)([H:7])([H:8])[H:9]"
C       -1.61704211      -0.17912582       0.34698570
C       -0.37872774      -0.12033364      -0.49875588
C        0.75654113       0.81515240      -0.08356151
C        1.44960307      -0.39438573       0.13223271
O        2.71258335      -0.46018798       0.07773292
O        0.53058307      -1.28708660      -0.22720219
H       -1.35650269      -0.21724030       1.40560256
H       -2.21772385      -1.05507201       0.09757572
H       -2.22034883       0.71330342       0.16855979
H       -0.59249016      -0.14861690      -1.56787464
H        2.26881535       0.69169991      -0.45608681
H        0.66470939       1.64189326       0.60479162
12
Frame=4 idx=005336 GeodesicLength=0.19792253434878904 rxn_smarts="[C:1]([C@@:2]1([H:10])[C:3]([H:11])([H:12])[C:4](=[O:5])[O:6]1)([H:7])([H:8])[H:9]>>[C:1]([C@@:2]1([H:10])[C:3]([H:12])=[C:4]([O:5][H:11])[O:6]1)([H:7])([H:8])[H:9]"
C       -1.61797831      -0.17923661       0.34633395
C       -0.37764735      -0.12152091      -0.49693964
C        0.75842617       0.81201479      -0.08135300
C        1.44922727      -0.39945017       0.14415721
O        2.71123245      -0.46267835       0.07044269
O        0.52815536      -1.28834525      -0.22519852
H       -1.35914222      -0.21810756       1.40536423
H       -2.21874233      -1.05481909       0.09586420
H       -2.22051534       0.71356161       0.16722350
H       -0.59048703      -0.14700921      -1.56638551
H        2.27247820       0.70363469      -0.46260499
H        0.66499313       1.64195608       0.60309589
12
Frame=5 idx=005336 GeodesicLength=0.24742062804199164 rxn_smarts="[C:1]([C@@:2]1([H:10])[C:3]([H:11])([H:12])[C:4](=[O:5])[O:6]1)([H:7])([H:8])[H:9]>>[C:1]([C@@:2]1([H:10])[C:3]([H:12])=[C:4]([O:5][H:11])[O:6]1)([H:7])([H:8])[H:9]"
C       -1.61891799      -0.17930961       0.34565556
C       -0.37651860      -0.12277967      -0.49507905
C        0.76041152       0.80872739      -0.07905665
C        1.44886460      -0.40469328       0.15614533
O        2.70961859      -0.46509277       0.06281540
O        0.52570225      -1.28970015      -0.22300753
H       -1.36186279      -0.21890668       1.40512038
H       -2.21980135      -1.05450517       0.09412986
H       -2.22062175       0.71388538       0.16578127
H       -0.58836603      -0.14552135      -1.56486162
H        2.27615057       0.71605050      -0.46912238
H        0.66534099       1.64184541       0.60147942
12
Frame=6 idx=005336 GeodesicLength=0.2969331828482932 rxn_smarts="[C:1]([C@@:2]1([H:10])[C:3]([H:11])([H:12])[C:4](=[O:5])[O:6]1)([H:7])([H:8])[H:9]>>[C:1]([C@@:2]1([H:10])[C:3]([H:12])=[C:4]([O:5][H:11])[O:6]1)([H:7])([H:8])[H:9]"
C       -1.61985772      -0.17934091       0.34494466
C       -0.37533642      -0.12411786      -0.49316276
C        0.76249410       0.80528398      -0.07665949
C        1.44851258      -0.41012126       0.16819761
O        2.70774893      -0.46742517       0.05481660
O        0.52321582      -1.29115977      -0.22059887
H       -1.36467540      -0.21963872       1.40486315
H       -2.22090383      -1.05411692       0.09235735
H       -2.22065044       0.71428555       0.16422568
H       -0.58610968      -0.14417103      -1.56328885
H        2.27981055       0.72897157      -0.47565175
H        0.66575150       1.64155055       0.59995667
12
Frame=7 idx=005336 GeodesicLength=0.34645362654574996 rxn_smarts="[C:1]([C@@:2]1([H:10])[C:3]([H:11])([H:12])[C:4](=[O:5])[O:6]1)([H:7])([H:8])[H:9]>>[C:1]([C@@:2]1([H:10])[C:3]([H:12])=[C:4]([O:5][H:11])[O:6]1)([H:7])([H:8])[H:9]"
C       -1.62079630      -0.17932693       0.34420112
C       -0.37409477      -0.12554467      -0.49118627
C        0.76468322       0.80167174      -0.07415852
C        1.44818611      -0.41575297       0.18030417
O        2.70558758      -0.46964821       0.04643276
O        0.52069382      -1.29273918      -0.21795650
H       -1.36758613      -0.22029964       1.40459482
H       -2.22205722      -1.05364287       0.09054121
H       -2.22059335       0.71477033       0.16255110
H       -0.58370602      -0.14297022      -1.56166547
H        2.28345064       0.74242674      -0.48219443
H        0.66623241       1.64105589       0.59853601
12
Frame=8 idx=005336 GeodesicLength=0.3959904939432378 rxn_smarts="[C:1]([C@@:2]1([H:10])[C:3]([H:11])([H:12])[C:4](=[O:5])[O:6]1)([H:7])([H:8])[H:9]>>[C:1]([C@@:2]1([H:10])[C:3]([H:12])=[C:4]([O:5][H:11])[O:6]1)([H:7])([H:8])[H:9]"
C       -1.62173029      -0.17926351       0.34342312
C       -0.37278818      -0.12706951      -0.48914456
C        0.76698685       0.79787760      -0.07155106
C        1.44789273      -0.42160681       0.19246518
O        2.70310336      -0.47174011       0.03763471
O        0.51812817      -1.29445311      -0.21506399
H       -1.37059790      -0.22088221       1.40431399
H       -2.22326526      -1.05307289       0.08867551
H       -2.22043845       0.71534813       0.16075226
H       -0.58114320      -0.14193438      -1.55998715
H        2.28706560       0.75645082      -0.48873922
H        0.66678657       1.64034598       0.59722121
12
Frame=9 idx=005336 GeodesicLength=0.4455563050740476 rxn_smarts="[C:1]([C@@:2]1([H:10])[C:3]([H:11])([H:12])[C:4](=[O:5])[O:6]1)([H:7])([H:8])[H:9]>>[C:1]([C@@:2]1([H:10])[C:3]([H:12])=[C:4]([O:5][H:11])[O:6]1)([H:7])([H:8])[H:9]"
C       -1.62265700      -0.17915159       0.34261204
C       -0.37141624      -0.12869397      -0.48703742
C        0.76940819       0.79389811      -0.06883936
C        1.44763352      -0.42768832       0.20468102
O        2.70028530      -0.47369314       0.02845637
O        0.51551685      -1.29630484      -0.21192717
H       -1.37370595      -0.22139605       1.40402153
H       -2.22453074      -1.05240157       0.08675335
H       -2.22017880       0.71602133       0.15883919
H       -0.57842259      -0.14106114      -1.55825487
H        2.29064984       0.77104871      -0.49531009
H        0.66741761       1.63942247       0.59600541
12
Frame=10 idx=005336 GeodesicLength=0.495160028832473 rxn_smarts="[C:1]([C@@:2]1([H:10])[C:3]([H:11])([H:12])[C:4](=[O:5])[O:6]1)([H:7])([H:8])[H:9]>>[C:1]([C@@:2]1([H:10])[C:3]([H:12])=[C:4]([O:5][H:11])[O:6]1)([H:7])([H:8])[H:9]"
C       -1.62357340      -0.17897807       0.34175573
C       -0.36996337      -0.13043901      -0.48484491
C        0.77196769       0.78970751      -0.06600449
C        1.44743210      -0.43403604       0.21696535
O        2.69708911      -0.47548211       0.01872988
O        0.51283972      -1.29831377      -0.20847793
H       -1.37693521      -0.22180089       1.40370592
H       -2.22585786      -1.05161270       0.08477061
H       -2.21979299       0.71680006       0.15676145
H       -0.57550633      -0.14039811      -1.55644491
H        2.29416720       0.78630685      -0.50183626
H        0.66813334       1.63824627       0.59491957
12
Frame=11 idx=005336 GeodesicLength=0.5447734309143606 rxn_smarts="[C:1]([C@@:2]1([H:10])[C:3]([H:11])([H:12])[C:4](=[O:5])[O:6]1)([H:7])([H:8])[H:9]>>[C:1]([C@@:2]1([H:10])[C:3]([H:12])=[C:4]([O:5][H:11])[O:6]1)([H:7])([H:8])[H:9]"
C       -1.62447266      -0.17875262       0.34086935
C       -0.36844475      -0.13228639      -0.48259151
C        0.77465590       0.78532027      -0.06308073
C        1.44726909      -0.44063900       0.22927770
O        2.69353716      -0.47709036       0.00870218
O        0.51010277      -1.30047440      -0.20480806
H       -1.38024465      -0.22213490       1.40337720
H       -2.22723833      -1.05071598       0.08273878
H       -2.21928710       0.71768032       0.15457694
H       -0.57243893      -0.13989492      -1.55458257
H        2.29762130       0.80215032      -0.50840634
H        0.66894022       1.63683766       0.59392705
12
Frame=12 idx=005336 GeodesicLength=0.5944030923821769 rxn_smarts="[C:1]([C@@:2]1([H:10])[C:3]([H:11])([H:12])[C:4](=[O:5])[O:6]1)([H:7])([H:8])[H:9]>>[C:1]([C@@:2]1([H:10])[C:3]([H:12])=[C:4]([O:5][H:11])[O:6]1)([H:7])([H:8])[H:9]"
C       -1.62534530      -0.17847764       0.33995939
C       -0.36686544      -0.13423164      -0.48029075
C        0.77747851       0.78073388      -0.06009315
C        1.44713263      -0.44750987       0.24161204
O        2.68961616      -0.47849896      -0.00151976
O        0.50730356      -1.30278716      -0.20096678
H       -1.38360316      -0.22241117       1.40303636
H       -2.22866705      -1.04971073       0.08066625
H       -2.21865244       0.71866240       0.15231362
H       -0.56924270      -0.13953471      -1.55267847
H        2.30100268       0.81856757      -0.51503745
H        0.66984256       1.63519805       0.59299870
12
Frame=13 idx=005336 GeodesicLength=0.6440521532657058 rxn_smarts="[C:1]([C@@:2]1([H:10])[C:3]([H:11])([H:12])[C:4](=[O:5])[O:6]1)([H:7])([H:8])[H:9]>>[C:1]([C@@:2]1([H:10])[C:3]([H:12])=[C:4]([O:5][H:11])[O:6]1)([H:7])([H:8])[H:9]"
C       -1.62618212      -0.17815596       0.33903218
C       -0.36523021      -0.13626824      -0.47795583
C        0.78044051       0.77594794      -0.05706461
C        1.44700960      -0.45465931       0.25396128
O        2.68532254      -0.47968980      -0.01181704
O        0.50444000      -1.30525105      -0.19700517
H       -1.38698101      -0.22264461       1.40268400
H       -2.23013801      -1.04859739       0.07856033
H       -2.21788118       0.71974616       0.14999988
H       -0.56593902      -0.13929629      -1.55074254
H        2.30429270       0.83553890      -0.52176102
H        0.67084620       1.63332964       0.59210853
12
Frame=14 idx=005336 GeodesicLength=0.6937190908068537 rxn_smarts="[C:1]([C@@:2]1([H:10])[C:3]([H:11])([H:12])[C:4](=[O:5])[O:6]1)([H:7])([H:8])[H:9]>>[C:1]([C@@:2]1([H:10])[C:3]([H:12])=[C:4]([O:5][H:11])[O:6]1)([H:7])([H:8])[H:9]"
C       -1.62697454      -0.17779049       0.33809407
C       -0.36354391      -0.13838854      -0.47560015
C        0.78354562       0.77096326      -0.05401589
C        1.44688668      -0.46209652       0.26631762
O        2.68065637      -0.48064415      -0.02206460
O        0.50151252      -1.30786391      -0.19297540
H       -1.39034927      -0.22285043       1.40232182
H       -2.23164454      -1.04737694       0.07642717
H       -2.21696779       0.72093102       0.14766405
H       -0.56254959      -0.13915646      -1.54878575
H        2.30747123       0.85303769      -0.52861748
H        0.67195720       1.63123548       0.59123453
12
Frame=15 idx=005336 GeodesicLength=0.7434045527917736 rxn_smarts="[C:1]([C@@:2]1([H:10])[C:3]([H:11])([H:12])[C:4](=[O:5])[O:6]1)([H:7])([H:8])[H:9]>>[C:1]([C@@:2]1([H:10])[C:3]([H:12])=[C:4]([O:5][H:11])[O:6]1)([H:7])([H:8])[H:9]"
C       -1.62771357      -0.17738535       0.33715107
C       -0.36181205      -0.14058213      -0.47323702
C        0.78679599       0.76578347      -0.05096584
C        1.44674607      -0.46982701       0.27867550
O        2.67563036      -0.48134910      -0.03212347
O        0.49852099      -1.31061961      -0.18893385
H       -1.39367814      -0.22304736       1.40194972
H       -2.23317854      -1.04605186       0.07427111
H       -2.21590650       0.72221446       0.14533688
H       -0.55909723      -0.13908643      -1.54681742
H        2.31051035       0.87102918      -0.53566156
H        0.67318227       1.62892174       0.59035487
12
Frame=16 idx=005336 GeodesicLength=0.7931068205800549 rxn_smarts="[C:1]([C@@:2]1([H:10])[C:3]([H:11])([H:12])[C:4](=[O:5])[O:6]1)([H:7])([H:8])[H:9]>>[C:1]([C@@:2]1([H:10])[C:3]([H:12])=[C:4]([O:5][H:11])[O:6]1)([H:7])([H:8])[H:9]"
C       -1.62839157      -0.17694476       0.33620876
C       -0.36003941      -0.14283743      -0.47087908
C        0.79019294       0.76041388      -0.04792982
C        1.44657066      -0.47785384       0.29103045
O        2.67026233      -0.48179551      -0.04185494
O        0.49546847      -1.31351044      -0.18493501
H       -1.39694077      -0.22325456       1.40156847
H       -2.23473198      -1.04462512       0.07209466
H       -2.21469444       0.72359357       0.14304767
H       -0.55560281      -0.13905564      -1.54484720
H        2.31337822       0.88947425      -0.54295669
H        0.67452834       1.62639559       0.58945273
