15
Frame=0 idx=004892 GeodesicLength=0.0 rxn_smarts="[C:1]([C:2]([C:3]([O:4][C:5]([H:13])([H:14])[H:15])([H:11])[H:12])([H:9])[H:10])([H:6])([H:7])[H:8]>>[C:1](/[C:2](=[C:3](/[O:4][C:5]([H:13])([H:14])[H:15])[H:12])[H:10])([H:6])([H:8])[H:11].[H:7][H:9]"
C       -1.79752386       0.18293899       0.85074424
C       -1.03738725      -0.43503465      -0.29271245
C        0.33532097      -0.08067963       0.01702198
O        1.33751473      -0.68110888      -0.62069163
C        2.59904575      -0.03506947      -0.55724739
H       -1.83529404       1.27010040       0.89577227
H       -2.83370450       0.45683054      -0.36654840
H       -2.60825153      -0.36509599       1.31922175
H       -1.42366086      -0.04701146      -1.27933696
H       -1.20622805      -1.51077077      -0.31589072
H       -0.84793178      -0.03279011       1.60876335
H        0.54171213       0.92248424       0.38718652
H        3.29522876      -0.64733548      -1.12504770
H        2.54309658       0.96293753      -1.00048525
H        2.93806295       0.03960478       0.47925043
15
Frame=1 idx=004892 GeodesicLength=0.10370126115112574 rxn_smarts="[C:1]([C:2]([C:3]([O:4][C:5]([H:13])([H:14])[H:15])([H:11])[H:12])([H:9])[H:10])([H:6])([H:7])[H:8]>>[C:1](/[C:2](=[C:3](/[O:4][C:5]([H:13])([H:14])[H:15])[H:12])[H:10])([H:6])([H:8])[H:11].[H:7][H:9]"
C       -1.80282604       0.17783620       0.85220378
C       -1.03285124      -0.43872729      -0.28822080
C        0.33519051      -0.07958017       0.02742228
O        1.33776125      -0.68563236      -0.61052437
C        2.59769118      -0.03779154      -0.55531408
H       -1.83804521       1.26438557       0.91192017
H       -2.82253799       0.47122595      -0.38804053
H       -2.61007091      -0.37986787       1.31518261
H       -1.45008867      -0.02552430      -1.27699546
H       -1.19703948      -1.51510153      -0.31625313
H       -0.82762422      -0.03747175       1.60909267
H        0.53663977       0.93615684       0.36641191
H        3.29522602      -0.65590335      -1.11525516
H        2.54159295       0.95445502      -1.01182650
H        2.93698209       0.05154059       0.48019660
15
Frame=2 idx=004892 GeodesicLength=0.20733533912092922 rxn_smarts="[C:1]([C:2]([C:3]([O:4][C:5]([H:13])([H:14])[H:15])([H:11])[H:12])([H:9])[H:10])([H:6])([H:7])[H:8]>>[C:1](/[C:2](=[C:3](/[O:4][C:5]([H:13])([H:14])[H:15])[H:12])[H:10])([H:6])([H:8])[H:11].[H:7][H:9]"
C       -1.80825938       0.17271243       0.85341940
C       -1.02845140      -0.44212637      -0.28401112
C        0.33495451      -0.07799763       0.03726113
O        1.33804768      -0.69005569      -0.60032846
C        2.59638071      -0.04053825      -0.55322064
H       -1.84096233       1.25842771       0.92809910
H       -2.81182015       0.48602030      -0.40864759
H       -2.61148927      -0.39487867       1.31134104
H       -1.47652660      -0.00446483      -1.27508326
H       -1.18764282      -1.51917754      -0.31662263
H       -0.80703992      -0.04181138       1.60928765
H        0.53145324       0.94910350       0.34540663
H        3.29535863      -0.66446276      -1.10504684
H        2.54027237       0.94573958      -1.02301564
H        2.93572473       0.06350961       0.48116123
15
Frame=3 idx=004892 GeodesicLength=0.310969759432889 rxn_smarts="[C:1]([C:2]([C:3]([O:4][C:5]([H:13])([H:14])[H:15])([H:11])[H:12])([H:9])[H:10])([H:6])([H:7])[H:8]>>[C:1](/[C:2](=[C:3](/[O:4][C:5]([H:13])([H:14])[H:15])[H:12])[H:10])([H:6])([H:8])[H:11].[H:7][H:9]"
C       -1.81384793       0.16759333       0.85437053
C       -1.02415904      -0.44528172      -0.28001348
C        0.33463382      -0.07602385       0.04663854
O        1.33838917      -0.69442452      -0.59003909
C        2.59510587      -0.04329807      -0.55099791
H       -1.84400583       1.25224255       0.94426461
H       -2.80160096       0.50114185      -0.42840708
H       -2.61254284      -0.41006331       1.30767412
H       -1.50286598       0.01631247      -1.27367758
H       -1.17808663      -1.52302789      -0.31700797
H       -0.78622518      -0.04583604       1.60939940
H        0.52619839       0.96129645       0.32429378
H        3.29560756      -0.67298063      -1.09448159
H        2.53905528       0.93678595      -1.03410302
H        2.93434432       0.07556343       0.48208675
15
Frame=4 idx=004892 GeodesicLength=0.4146248751852088 rxn_smarts="[C:1]([C:2]([C:3]([O:4][C:5]([H:13])([H:14])[H:15])([H:11])[H:12])([H:9])[H:10])([H:6])([H:7])[H:8]>>[C:1](/[C:2](=[C:3](/[O:4][C:5]([H:13])([H:14])[H:15])[H:12])[H:10])([H:6])([H:8])[H:11].[H:7][H:9]"
C       -1.81961098       0.16250282       0.85503785
C       -1.01995136      -0.44824107      -0.27616480
C        0.33424346      -0.07371539       0.05562151
O        1.33879152      -0.69875377      -0.57963464
C        2.59386272      -0.04606630      -0.54866847
H       -1.84715237       1.24584792       0.96036501
H       -2.79194685       0.51650011      -0.44735325
H       -2.61325355      -0.42536621       1.30417643
H       -1.52902523       0.03693723      -1.27284369
H       -1.16839633      -1.52668523      -0.31739138
H       -0.76520785      -0.04955791       1.60947087
H        0.52091283       0.97272917       0.30316448
H        3.29595673      -0.68142454      -1.08362128
H        2.53790259       0.92759926      -1.04509065
H        2.93287466       0.08769392       0.48293201
15
Frame=5 idx=004892 GeodesicLength=0.518330613023749 rxn_smarts="[C:1]([C:2]([C:3]([O:4][C:5]([H:13])([H:14])[H:15])([H:11])[H:12])([H:9])[H:10])([H:6])([H:7])[H:8]>>[C:1](/[C:2](=[C:3](/[O:4][C:5]([H:13])([H:14])[H:15])[H:12])[H:10])([H:6])([H:8])[H:11].[H:7][H:9]"
C       -1.82556898       0.15745671       0.85540213
C       -1.01580554      -0.45105745      -0.27240651
C        0.33379758      -0.07113460       0.06427527
O        1.33925997      -0.70306432      -0.56907696
C        2.59264488      -0.04883649      -0.54625528
H       -1.85037340       1.23924824       0.97636899
H       -2.78290050       0.53202394      -0.46553754
H       -2.61364929      -0.44074333       1.30083091
H       -1.55493097       0.05757739      -1.27262882
H       -1.15859411      -1.53018943      -0.31775011
H       -0.74400940      -0.05300511       1.60954342
H        0.51562529       0.98339607       0.28209916
H        3.29638938      -0.68978090      -1.07250346
H        2.53676428       0.91817400      -1.05601679
H        2.93135081       0.09993527       0.48365559
15
Frame=6 idx=004892 GeodesicLength=0.6220933093000373 rxn_smarts="[C:1]([C:2]([C:3]([O:4][C:5]([H:13])([H:14])[H:15])([H:11])[H:12])([H:9])[H:10])([H:6])([H:7])[H:8]>>[C:1](/[C:2](=[C:3](/[O:4][C:5]([H:13])([H:14])[H:15])[H:12])[H:10])([H:6])([H:8])[H:11].[H:7][H:9]"
C       -1.83173929       0.15247240       0.85544281
C       -1.01170354      -0.45378074      -0.26867994
C        0.33330610      -0.06831240       0.07264047
O        1.33979303      -0.70734640      -0.55838394
C        2.59145308      -0.05160892      -0.54377223
H       -1.85365610       1.23245597       0.99223222
H       -2.77452810       0.54761737      -0.48299715
H       -2.61373981      -0.45614630       1.29764304
H       -1.58054346       0.07835591      -1.27307836
H       -1.14868774      -1.53358118      -0.31804465
H       -0.72263245      -0.05618214       1.60965268
H        0.51035610       0.99331584       0.26113696
H        3.29689675      -0.69802216      -1.06118416
H        2.53563731       0.90852684      -1.06684610
H        2.92978811       0.11223590       0.48423833
15
Frame=7 idx=004892 GeodesicLength=0.7258899219816352 rxn_smarts="[C:1]([C:2]([C:3]([O:4][C:5]([H:13])([H:14])[H:15])([H:11])[H:12])([H:9])[H:10])([H:6])([H:7])[H:8]>>[C:1](/[C:2](=[C:3](/[O:4][C:5]([H:13])([H:14])[H:15])[H:12])[H:10])([H:6])([H:8])[H:11].[H:7][H:9]"
C       -1.83813798       0.14755688       0.85514496
C       -1.00762723      -0.45645895      -0.26493518
C        0.33277899      -0.06528399       0.08075737
O        1.34039234      -0.71160353      -0.54754371
C        2.59028513      -0.05438185      -0.54123404
H       -1.85698326       1.22546895       1.00793303
H       -2.76687895       0.56322247      -0.49978607
H       -2.61354477      -0.47154550       1.29460454
H       -1.60581946       0.09941958      -1.27421996
H       -1.13868266      -1.53690119      -0.31824108
H       -0.70107899      -0.05911035       1.60983148
H        0.50512074       1.00249913       0.24032111
H        3.29746963      -0.70614167      -1.04969076
H        2.53449947       0.89865619      -1.07759541
H        2.92820698       0.12460383       0.48465373
15
Frame=8 idx=004892 GeodesicLength=0.8297454777613505 rxn_smarts="[C:1]([C:2]([C:3]([O:4][C:5]([H:13])([H:14])[H:15])([H:11])[H:12])([H:9])[H:10])([H:6])([H:7])[H:8]>>[C:1](/[C:2](=[C:3](/[O:4][C:5]([H:13])([H:14])[H:15])[H:12])[H:10])([H:6])([H:8])[H:11].[H:7][H:9]"
C       -1.84478127       0.14271734       0.85448614
C       -1.00356062      -0.45914725      -0.26111765
C        0.33222160      -0.06207146       0.08864894
O        1.34105348      -0.71582210      -0.53658220
C        2.58914206      -0.05715546      -0.53864948
H       -1.86034228       1.21828594       1.02344096
H       -2.76000826       0.57876045      -0.51595708
H       -2.61307075      -0.48690099       1.29172262
H       -1.63074411       0.12091352      -1.27607974
H       -1.12857480      -1.54019986      -0.31828254
H       -0.67933151      -0.06179681       1.61010778
H        0.49992497       1.01096503       0.21966315
H        3.29810144      -0.71412173      -1.03806175
H        2.53335552       0.88857927      -1.08823316
H        2.92661453       0.13699412       0.48489402
15
Frame=9 idx=004892 GeodesicLength=0.9335437542151888 rxn_smarts="[C:1]([C:2]([C:3]([O:4][C:5]([H:13])([H:14])[H:15])([H:11])[H:12])([H:9])[H:10])([H:6])([H:7])[H:8]>>[C:1](/[C:2](=[C:3](/[O:4][C:5]([H:13])([H:14])[H:15])[H:12])[H:10])([H:6])([H:8])[H:11].[H:7][H:9]"
C       -1.85169577       0.13794513       0.85342129
C       -0.99947936      -0.46189569      -0.25719096
C        0.33165354      -0.05874820       0.09638079
O        1.34179645      -0.72003280      -0.52544251
C        2.58802173      -0.05992069      -0.53603836
H       -1.86370300       1.21087885       1.03873368
H       -2.75399742       0.59426540      -0.53157094
H       -2.61234478      -0.50219029       1.28895991
H       -1.65524842       0.14298367      -1.27862807
H       -1.11837027      -1.54352098      -0.31813903
H       -0.65739184      -0.06427734       1.61051836
H        0.49477765       1.01871423       0.19921815
H        3.29879422      -0.72195598      -1.02630979
H        2.53214379       0.87827605      -1.09882816
H        2.92504346       0.14947866       0.48491564
15
Frame=10 idx=004892 GeodesicLength=1.0373879640126675 rxn_smarts="[C:1]([C:2]([C:3]([O:4][C:5]([H:13])([H:14])[H:15])([H:11])[H:12])([H:9])[H:10])([H:6])([H:7])[H:8]>>[C:1](/[C:2](=[C:3](/[O:4][C:5]([H:13])([H:14])[H:15])[H:12])[H:10])([H:6])([H:8])[H:11].[H:7][H:9]"
C       -1.85888387       0.13325746       0.85195008
C       -0.99537672      -0.46476298      -0.25309630
C        0.33106947      -0.05530051       0.10394407
O        1.34260205      -0.72419677      -0.51420328
C        2.58692444      -0.06268222      -0.53340290
H       -1.86706884       1.20326043       1.05379806
H       -2.74883907       0.60958303      -0.54668961
H       -2.61137753      -0.51736421       1.28633904
H       -1.67936653       0.16579219      -1.28191160
H       -1.10805023      -1.54692324      -0.31771699
H       -0.63522939      -0.06655528       1.61107978
H        0.48967424       1.02577759       0.17895451
H        3.29953716      -0.72962459      -1.01448358
H        2.53090805       0.86778678      -1.10929608
H        2.92347677       0.16195230       0.48473482
15
Frame=11 idx=004892 GeodesicLength=1.1412757835463172 rxn_smarts="[C:1]([C:2]([C:3]([O:4][C:5]([H:13])([H:14])[H:15])([H:11])[H:12])([H:9])[H:10])([H:6])([H:7])[H:8]>>[C:1](/[C:2](=[C:3](/[O:4][C:5]([H:13])([H:14])[H:15])[H:12])[H:10])([H:6])([H:8])[H:11].[H:7][H:9]"
C       -1.86636373       0.12865621       0.85004624
C       -0.99123546      -0.46779927      -0.24878548
C        0.33047757      -0.05176364       0.11137677
O        1.34347596      -0.72832394      -0.50284674
C        2.58584639      -0.06543634      -0.53075808
H       -1.87042392       1.19541136       1.06863682
H       -2.74456260       0.62466971      -0.56139239
H       -2.61019821      -0.53239846       1.28384647
H       -1.70306460       0.18951440      -1.28593528
H       -1.09761119      -1.55045503      -0.31696211
H       -0.61282818      -0.06866305       1.61182229
H        0.48461600       1.03216476       0.15889324
H        3.30032797      -0.73712371      -1.00259868
H        2.52961863       0.85710431      -1.11966993
H        2.92192537       0.17444268       0.48432686
15
Frame=12 idx=004892 GeodesicLength=1.2451968018018627 rxn_smarts="[C:1]([C:2]([C:3]([O:4][C:5]([H:13])([H:14])[H:15])([H:11])[H:12])([H:9])[H:10])([H:6])([H:7])[H:8]>>[C:1](/[C:2](=[C:3](/[O:4][C:5]([H:13])([H:14])[H:15])[H:12])[H:10])([H:6])([H:8])[H:11].[H:7][H:9]"
C       -1.87414832       0.12413939       0.84768358
C       -0.98704237      -0.47106344      -0.24421461
C        0.32988331      -0.04816455       0.11870286
O        1.34441982      -0.73241224      -0.49138400
C        2.58478543      -0.06817909      -0.52811520
H       -1.87376321       1.18731610       1.08323155
H       -2.74118489       0.63948253      -0.57574869
H       -2.60883150      -0.54725900       1.28147142
H       -1.72633316       0.21431468      -1.29069086
H       -1.08703693      -1.55417518      -0.31579177
H       -0.59016473      -0.07062214       1.61276899
H        0.47959494       1.03788351       0.13903449
H        3.30116432      -0.74443531      -0.99068440
H        2.52826432       0.84624040      -1.12994131
H        2.92039298       0.18693435       0.48367794
15
Frame=13 idx=004892 GeodesicLength=1.349151119256875 rxn_smarts="[C:1]([C:2]([C:3]([O:4][C:5]([H:13])([H:14])[H:15])([H:11])[H:12])([H:9])[H:10])([H:6])([H:7])[H:8]>>[C:1](/[C:2](=[C:3](/[O:4][C:5]([H:13])([H:14])[H:15])[H:12])[H:10])([H:6])([H:8])[H:11].[H:7][H:9]"
C       -1.88225657       0.11970385       0.84482971
C       -0.98277971      -0.47461078      -0.23933812
C        0.32929502      -0.04453887       0.12595593
O        1.34544377      -0.73647234      -0.47979902
C        2.58373982      -0.07090486      -0.52548707
H       -1.87707571       1.17894370       1.09758610
H       -2.73872517       0.65399371      -0.58983169
H       -2.60731027      -0.56191373       1.27919259
H       -1.74915264       0.24037128      -1.29616884
H       -1.07631831      -1.55814027      -0.31414158
H       -0.56721490      -0.07246282       1.61394491
H        0.47460290       1.04293557       0.11938606
H        3.30204987      -0.75155562      -0.97875406
H        2.52681496       0.83519118      -1.14014407
H        2.91888695       0.19946000       0.48276915
15
Frame=14 idx=004892 GeodesicLength=1.4531123280178633 rxn_smarts="[C:1]([C:2]([C:3]([O:4][C:5]([H:13])([H:14])[H:15])([H:11])[H:12])([H:9])[H:10])([H:6])([H:7])[H:8]>>[C:1](/[C:2](=[C:3](/[O:4][C:5]([H:13])([H:14])[H:15])[H:12])[H:10])([H:6])([H:8])[H:11].[H:7][H:9]"
C       -1.89070040       0.11534322       0.84145268
C       -0.97843521      -0.47849605      -0.23411195
C        0.32871462      -0.04090206       0.13314444
O        1.34654735      -0.74049591      -0.46811539
C        2.58270913      -0.07361116      -0.52288092
H       -1.88036181       1.17026683       1.11168492
H       -2.73721677       0.66816643      -0.60370955
H       -2.60565390      -0.57633156       1.27700602
H       -1.77152004       0.26783926      -1.30235383
H       -1.06543232      -1.56240792      -0.31192009
H       -0.54393908      -0.07419203       1.61536533
H        0.46962578       1.04732711       0.09993154
H        3.30298358      -0.75846542      -0.96683466
H        2.52527409       0.82397132      -1.15025201
H        2.91740499       0.21198794       0.48159346
15
Frame=15 idx=004892 GeodesicLength=1.5570529090485523 rxn_smarts="[C:1]([C:2]([C:3]([O:4][C:5]([H:13])([H:14])[H:15])([H:11])[H:12])([H:9])[H:10])([H:6])([H:7])[H:8]>>[C:1](/[C:2](=[C:3](/[O:4][C:5]([H:13])([H:14])[H:15])[H:12])[H:10])([H:6])([H:8])[H:11].[H:7][H:9]"
C       -1.89949390       0.11104956       0.83751735
C       -0.97399267      -0.48277546      -0.22849145
C        0.32814801      -0.03727916       0.14028624
O        1.34773926      -0.74448651      -0.45633399
C        2.58169457      -0.07629415      -0.52030599
H       -1.88362204       1.16124961       1.12551941
H       -2.73669502       0.68198406      -0.61744521
H       -2.60389392      -0.59048868       1.27489671
H       -1.79342254       0.29689139      -1.30923110
H       -1.05435959      -1.56703794      -0.30904249
H       -0.52029985      -0.07582225       1.61704774
H        0.46464885       1.05105353       0.08066035
H        3.30397105      -0.76515542      -0.95494308
H        2.52362804       0.81258598      -1.16027561
H        2.91594975       0.22452543       0.48014113
15
Frame=16 idx=004892 GeodesicLength=1.660930337495894 rxn_smarts="[C:1]([C:2]([C:3]([O:4][C:5]([H:13])([H:14])[H:15])([H:11])[H:12])([H:9])[H:10])([H:6])([H:7])[H:8]>>[C:1](/[C:2](=[C:3](/[O:4][C:5]([H:13])([H:14])[H:15])[H:12])[H:10])([H:6])([H:8])[H:11].[H:7][H:9]"
C       -1.90865453       0.10681365       0.83297937
C       -0.96943435      -0.48750810      -0.22243027
C        0.32760160      -0.03369864       0.14740537
O        1.34903218      -0.74845289      -0.44444433
C        2.58069600      -0.07894665      -0.51777470
H       -1.88685904       1.15184486       1.13908743
H       -2.73719076       0.69544461      -0.63110864
H       -2.60206948      -0.60435584       1.27284073
H       -1.81483672       0.32770588      -1.31677765
H       -1.04307874      -1.57209415      -0.30541633
H       -0.49626011      -0.07736984       1.61901029
H        0.45965604       1.05410217       0.06156995
H        3.30501939      -0.77161617      -0.94309527
H        2.52185277       0.80103483      -1.17023804
H        2.91452575       0.23709628       0.47839207
