11
Frame=0 idx=005449 GeodesicLength=0.0 rxn_smarts="[O:1]=[C:2]1[N:3]([H:7])[C:4]([H:8])([H:9])[C:5]([H:10])([H:11])[O:6]1>>[H:7][H:11].[O:1]=[C:2]=[N:3][C:4]([C:5](=[O:6])[H:10])([H:8])[H:9]"
O        2.64079047       0.11087116       0.27482646
C        1.47607326      -0.04769750       0.23929175
N        0.59265763      -1.05255602       0.26090243
C       -0.69848174      -0.49223950       0.57420899
C       -0.58966471       0.80236503      -0.16960901
O        0.60504775       1.25364912      -0.02645004
H        0.11831633      -0.66870345      -1.18660111
H       -1.51810577      -1.13352803       0.25911787
H       -0.79796805      -0.26139602       1.64156114
H       -1.37868555       1.52392925      -0.36951922
H       -0.44997964      -0.03469405      -1.49772922
11
Frame=1 idx=005449 GeodesicLength=0.09442434190672074 rxn_smarts="[O:1]=[C:2]1[N:3]([H:7])[C:4]([H:8])([H:9])[C:5]([H:10])([H:11])[O:6]1>>[H:7][H:11].[O:1]=[C:2]=[N:3][C:4]([C:5](=[O:6])[H:10])([H:8])[H:9]"
O        2.64784875       0.10447360       0.27100352
C        1.48186856      -0.04809387       0.24684536
N        0.59433357      -1.04626005       0.26444317
C       -0.69849862      -0.48699370       0.57630426
C       -0.59245046       0.80579353      -0.17634205
O        0.60210387       1.26244157      -0.03190770
H        0.13005835      -0.69257690      -1.19537715
H       -1.51499670      -1.12978003       0.25449126
H       -0.81133066      -0.25981094       1.64255115
H       -1.38834660       1.52948469      -0.34047811
H       -0.45059006      -0.03867789      -1.51153373
11
Frame=2 idx=005449 GeodesicLength=0.18840343953326172 rxn_smarts="[O:1]=[C:2]1[N:3]([H:7])[C:4]([H:8])([H:9])[C:5]([H:10])([H:11])[O:6]1>>[H:7][H:11].[O:1]=[C:2]=[N:3][C:4]([C:5](=[O:6])[H:10])([H:8])[H:9]"
O        2.65475957       0.09812285       0.26738388
C        1.48764121      -0.04834652       0.25434248
N        0.59595150      -1.03972894       0.26774326
C       -0.69854508      -0.48156835       0.57835366
C       -0.59549859       0.80944861      -0.18308970
O        0.59895364       1.27142008      -0.03759041
H        0.14203090      -0.71724760      -1.20393096
H       -1.51183267      -1.12588459       0.24981348
H       -0.82474093      -0.25840153       1.64339405
H       -1.39727210       1.53473860      -0.31087770
H       -0.45144744      -0.04255262      -1.52554205
11
Frame=3 idx=005449 GeodesicLength=0.2820537079363492 rxn_smarts="[O:1]=[C:2]1[N:3]([H:7])[C:4]([H:8])([H:9])[C:5]([H:10])([H:11])[O:6]1>>[H:7][H:11].[O:1]=[C:2]=[N:3][C:4]([C:5](=[O:6])[H:10])([H:8])[H:9]"
O        2.66152946       0.09182457       0.26396138
C        1.49339301      -0.04845821       0.26177970
N        0.59751210      -1.03295912       0.27078360
C       -0.69861785      -0.47597293       0.58037049
C       -0.59882097       0.81335166      -0.18978385
O        0.59559454       1.28059189      -0.04347124
H        0.15425170      -0.74276050      -1.21222306
H       -1.50861277      -1.12183704       0.24508218
H       -0.83818183      -0.25722254       1.64411010
H       -1.40542565       1.53967465      -0.28087231
H       -0.45262174      -0.04623243      -1.53973699
11
Frame=4 idx=005449 GeodesicLength=0.37549433969126716 rxn_smarts="[O:1]=[C:2]1[N:3]([H:7])[C:4]([H:8])([H:9])[C:5]([H:10])([H:11])[O:6]1>>[H:7][H:11].[O:1]=[C:2]=[N:3][C:4]([C:5](=[O:6])[H:10])([H:8])[H:9]"
O        2.66816680       0.08558530       0.26074233
C        1.49912996      -0.04843454       0.26914883
N        0.59902128      -1.02594701       0.27355045
C       -0.69871044      -0.47021799       0.58236603
C       -0.60242465       0.81752039      -0.19635998
O        0.59202972       1.28996256      -0.04953283
H        0.16673782      -0.76918100      -1.22021332
H       -1.50533240      -1.11763599       0.24029120
H       -0.85163809      -0.25632514       1.64471575
H       -1.41278961       1.54429151      -0.25060480
H       -0.45419038      -0.04961811      -1.55410366
11
Frame=5 idx=005449 GeodesicLength=0.4688162070550403 rxn_smarts="[O:1]=[C:2]1[N:3]([H:7])[C:4]([H:8])([H:9])[C:5]([H:10])([H:11])[O:6]1>>[H:7][H:11].[O:1]=[C:2]=[N:3][C:4]([C:5](=[O:6])[H:10])([H:8])[H:9]"
O        2.67468172       0.07940749       0.25772386
C        1.50485825      -0.04828141       0.27644457
N        0.60048356      -1.01868942       0.27603024
C       -0.69881745      -0.46431367       0.58434945
C       -0.60631408       0.82197494      -0.20275702
O        0.58826254       1.29954016      -0.05575130
H        0.17952209      -0.79657916      -1.22785258
H       -1.50198674      -1.11327717       0.23543100
H       -0.86509689      -0.25575830       1.64522439
H       -1.41935824       1.54859435      -0.22020822
H       -0.45623477      -0.05261781      -1.56863439
11
Frame=6 idx=005449 GeodesicLength=0.5621706557095182 rxn_smarts="[O:1]=[C:2]1[N:3]([H:7])[C:4]([H:8])([H:9])[C:5]([H:10])([H:11])[O:6]1>>[H:7][H:11].[O:1]=[C:2]=[N:3][C:4]([C:5](=[O:6])[H:10])([H:8])[H:9]"
O        2.68109058       0.07329522       0.25490542
C        1.51058578      -0.04800141       0.28366331
N        0.60190638      -1.01118237       0.27821108
C       -0.69893372      -0.45826898       0.58632395
C       -0.61048940       0.82673634      -0.20891660
O        0.58429920       1.30933341      -0.06211473
H        0.19265534      -0.82507235      -1.23507739
H       -1.49856931      -1.10875575       0.23048019
H       -0.87854967      -0.25557085       1.64564066
H       -1.42514287       1.55260717      -0.18979006
H       -0.45885231      -0.05512043      -1.58332584
11
Frame=7 idx=005449 GeodesicLength=0.655638509251705 rxn_smarts="[O:1]=[C:2]1[N:3]([H:7])[C:4]([H:8])([H:9])[C:5]([H:10])([H:11])[O:6]1>>[H:7][H:11].[O:1]=[C:2]=[N:3][C:4]([C:5](=[O:6])[H:10])([H:8])[H:9]"
O        2.68740388       0.06725565       0.25229892
C        1.51632199      -0.04759978       0.29079300
N        0.60329788      -1.00341991       0.28007833
C       -0.69905250      -0.45209207       0.58828925
C       -0.61495159       0.83182414      -0.21479254
O        0.58014829       1.31935021      -0.06861728
H        0.20618450      -0.85478841      -1.24181457
H       -1.49507228      -1.10406739       0.22541763
H       -0.89198758      -0.25580326       1.64596319
H       -1.43016120       1.55635755      -0.15942428
H       -0.46213139      -0.05701674      -1.59819166
11
Frame=8 idx=005449 GeodesicLength=0.7494102201764536 rxn_smarts="[O:1]=[C:2]1[N:3]([H:7])[C:4]([H:8])([H:9])[C:5]([H:10])([H:11])[O:6]1>>[H:7][H:11].[O:1]=[C:2]=[N:3][C:4]([C:5](=[O:6])[H:10])([H:8])[H:9]"
O        2.69364009       0.06129860       0.24991291
C        1.52207743      -0.04707616       0.29782230
N        0.60466781      -0.99539432       0.28162470
C       -0.69916970      -0.44579129       0.59023292
C       -0.61969724       0.83726323      -0.22033929
O        0.57581800       1.32959981      -0.07526551
H        0.22020593      -0.88591416      -1.24795601
H       -1.49148447      -1.09920409       0.22019898
H       -0.90541042      -0.25650144       1.64617693
H       -1.43443123       1.55989162      -0.12915515
H       -0.46621620      -0.05817180      -1.61325278
11
Frame=9 idx=005449 GeodesicLength=0.8447538471850095 rxn_smarts="[O:1]=[C:2]1[N:3]([H:7])[C:4]([H:8])([H:9])[C:5]([H:10])([H:11])[O:6]1>>[H:7][H:11].[O:1]=[C:2]=[N:3][C:4]([C:5](=[O:6])[H:10])([H:8])[H:9]"
O        2.69985929       0.05547051       0.24781753
C        1.52790283      -0.04639712       0.30465554
N        0.60608343      -0.98707663       0.28301072
C       -0.69928071      -0.43938291       0.59206341
C       -0.62468889       0.84308723      -0.22548895
O        0.57135898       1.34008327      -0.08221498
H        0.23500241      -0.91907155      -1.25318056
H       -1.48774564      -1.09418315       0.21462400
H       -0.91890929      -0.25773045       1.64615216
H       -1.43797635       1.56334508      -0.09882596
H       -0.47160606      -0.05814427      -1.62861289
11
Frame=10 idx=005449 GeodesicLength=0.9404189390864511 rxn_smarts="[O:1]=[C:2]1[N:3]([H:7])[C:4]([H:8])([H:9])[C:5]([H:10])([H:11])[O:6]1>>[H:7][H:11].[O:1]=[C:2]=[N:3][C:4]([C:5](=[O:6])[H:10])([H:8])[H:9]"
O        2.70603892       0.04975323       0.24594700
C        1.53376954      -0.04558423       0.31135246
N        0.60750112      -0.97846908       0.28406634
C       -0.69938631      -0.43286504       0.59382278
C       -0.62995573       0.84931123      -0.23024267
O        0.56673671       1.35082245      -0.08934033
H        0.25050588      -0.95410750      -1.25750347
H       -1.48388577      -1.08897383       0.20876629
H       -0.93241489      -0.25951355       1.64594398
H       -1.44080497       1.56669111      -0.06858210
H       -0.47810449      -0.05706480      -1.64423027
11
Frame=11 idx=005449 GeodesicLength=1.0362129652334597 rxn_smarts="[O:1]=[C:2]1[N:3]([H:7])[C:4]([H:8])([H:9])[C:5]([H:10])([H:11])[O:6]1>>[H:7][H:11].[O:1]=[C:2]=[N:3][C:4]([C:5](=[O:6])[H:10])([H:8])[H:9]"
O        2.71219112       0.04415663       0.24427834
C        1.53968354      -0.04463472       0.31789910
N        0.60892669      -0.96955541       0.28477013
C       -0.69948557      -0.42624120       0.59549102
C       -0.63549792       0.85595996      -0.23457664
O        0.56195407       1.36183658      -0.09662942
H        0.26678864      -0.99123298      -1.26078028
H       -1.47989470      -1.08356634       0.20257487
H       -0.94593739      -0.26188694       1.64552203
H       -1.44294569       1.56997333      -0.03840613
H       -0.48578279      -0.05480890      -1.66014302
11
Frame=12 idx=005449 GeodesicLength=1.1321546940095903 rxn_smarts="[O:1]=[C:2]1[N:3]([H:7])[C:4]([H:8])([H:9])[C:5]([H:10])([H:11])[O:6]1>>[H:7][H:11].[O:1]=[C:2]=[N:3][C:4]([C:5](=[O:6])[H:10])([H:8])[H:9]"
O        2.71833566       0.03870030       0.24280470
C        1.54565541      -0.04353508       0.32426735
N        0.61037197      -0.96031328       0.28511536
C       -0.69958031      -0.41951750       0.59702395
C       -0.64131207       0.86306825      -0.23846331
O        0.55701651       1.37314437      -0.10410576
H        0.28400267      -1.03077201      -1.26278724
H       -1.47575266      -1.07794776       0.19595271
H       -0.95949868      -0.26490193       1.64482196
H       -1.44440712       1.57325715      -0.00822769
H       -0.49483139      -0.05118251      -1.67640204
11
Frame=13 idx=005449 GeodesicLength=1.2280542307490516 rxn_smarts="[O:1]=[C:2]1[N:3]([H:7])[C:4]([H:8])([H:9])[C:5]([H:10])([H:11])[O:6]1>>[H:7][H:11].[O:1]=[C:2]=[N:3][C:4]([C:5](=[O:6])[H:10])([H:8])[H:9]"
O        2.72448201       0.03340747       0.24150719
C        1.55169244      -0.04227460       0.33042362
N        0.61184568      -0.95072023       0.28507066
C       -0.69967296      -0.41269875       0.59838106
C       -0.64740121       0.87067054      -0.24187924
O        0.55192460       1.38477018      -0.11177294
H        0.30225664      -1.07303147      -1.26329010
H       -1.47144588      -1.07210365       0.18881445
H       -0.97311395      -0.26860837       1.64378518
H       -1.44519730       1.57659206       0.02202198
H       -0.50537008      -0.04600319      -1.69306184
11
Frame=14 idx=005449 GeodesicLength=1.3237947473781657 rxn_smarts="[O:1]=[C:2]1[N:3]([H:7])[C:4]([H:8])([H:9])[C:5]([H:10])([H:11])[O:6]1>>[H:7][H:11].[O:1]=[C:2]=[N:3][C:4]([C:5](=[O:6])[H:10])([H:8])[H:9]"
O        2.73064687       0.02829910       0.24034231
C        1.55779932      -0.04083225       0.33633727
N        0.61335269      -0.94074626       0.28459372
C       -0.69976983      -0.40578908       0.59950341
C       -0.65376874       0.87881683      -0.24479687
O        0.54667429       1.39674815      -0.11963241
H        0.32171618      -1.11839631      -1.26197120
H       -1.46695751      -1.06600854       0.18103860
H       -0.98680511      -0.27307306       1.64232768
H       -1.44531414       1.58003417       0.05244365
H       -0.51757402      -0.03905274      -1.71018616
11
Frame=15 idx=005449 GeodesicLength=1.4191930229481673 rxn_smarts="[O:1]=[C:2]1[N:3]([H:7])[C:4]([H:8])([H:9])[C:5]([H:10])([H:11])[O:6]1>>[H:7][H:11].[O:1]=[C:2]=[N:3][C:4]([C:5](=[O:6])[H:10])([H:8])[H:9]"
O        2.73684094       0.02340563       0.23926511
C        1.56398210      -0.03918743       0.34195663
N        0.61490072      -0.93035938       0.28362544
C       -0.69987698      -0.39879509       0.60032263
C       -0.66042131       0.88756058      -0.24718664
O        0.54126001       1.40911834      -0.12767895
H        0.34252885      -1.16728377      -1.25845247
H       -1.46227018      -1.05963589       0.17249165
H       -1.00059125      -0.27837155       1.64035545
H       -1.44474729       1.58362846       0.08314682
H       -0.53160561      -0.03007990      -1.72784567
11
Frame=16 idx=005449 GeodesicLength=1.5140769755182755 rxn_smarts="[O:1]=[C:2]1[N:3]([H:7])[C:4]([H:8])([H:9])[C:5]([H:10])([H:11])[O:6]1>>[H:7][H:11].[O:1]=[C:2]=[N:3][C:4]([C:5](=[O:6])[H:10])([H:8])[H:9]"
O        2.74307396       0.01876026       0.23820585
C        1.57024405      -0.03731506       0.34722194
N        0.61649387      -0.91952132       0.28207526
C       -0.70000314      -0.39172566       0.60075526
C       -0.66736912       0.89697114      -0.24900982
O        0.53567058       1.42193103      -0.13589713
H        0.36486228      -1.22016853      -1.25225500
H       -1.45736749      -1.05294881       0.16301267
H       -1.01448946      -0.28460172       1.63775753
H       -1.44347877       1.58741730       0.11425953
H       -0.54763677      -0.01879864      -1.74612610
