16
Frame=0 idx=011783 GeodesicLength=0.0 rxn_smarts="[C:1]([C:2]1([C:3]([H:11])([H:12])[H:13])[C:4]([H:14])([H:15])[N:5]([H:16])[C:6]1=[O:7])([H:8])([H:9])[H:10]>>[C:1]([C:2]([C:3]([H:11])([H:12])[H:13])([C:6]([N+:5](=[C-:4][H:15])[H:16])=[O:7])[H:14])([H:8])([H:9])[H:10]"
C        1.44602838       0.68599866       0.08157754
C        0.14220286      -0.07352650       0.18655845
C        0.22786634      -1.32297144       1.04942509
C       -1.57576246       1.31432562      -0.01828407
N       -1.56238392       0.53756586      -1.22757098
C       -0.54352503      -0.37062898      -1.14921683
O       -0.29603547      -1.29274993      -1.87994630
H        2.20778531       0.02175943      -0.33249329
H        1.78400031       1.01666283       1.06478456
H        1.36457616       1.55511794      -0.57112632
H        0.65710476      -1.09318874       2.02505286
H        0.86544183      -2.04944640       0.54270019
H       -0.75317855      -1.77697457       1.19072912
H       -0.71289195       0.54445663       0.78512488
H       -0.81208165       2.09816569      -0.14642667
H       -2.43914689       0.20543386      -1.60088821
16
Frame=1 idx=011783 GeodesicLength=0.0553625869086525 rxn_smarts="[C:1]([C:2]1([C:3]([H:11])([H:12])[H:13])[C:4]([H:14])([H:15])[N:5]([H:16])[C:6]1=[O:7])([H:8])([H:9])[H:10]>>[C:1]([C:2]([C:3]([H:11])([H:12])[H:13])([C:6]([N+:5](=[C-:4][H:15])[H:16])=[O:7])[H:14])([H:8])([H:9])[H:10]"
C        1.44291159       0.68409744       0.07852219
C        0.13587795      -0.07138182       0.19183468
C        0.23119928      -1.32331488       1.05098766
C       -1.57297054       1.31491286      -0.02645845
N       -1.55874081       0.53937924      -1.23120144
C       -0.54294106      -0.37460978      -1.14596380
O       -0.29888265      -1.29621903      -1.87790915
H        2.20171567       0.02022957      -0.34147026
H        1.78804837       1.01328773       1.05975007
H        1.36124691       1.55365058      -0.57371583
H        0.65950323      -1.09276918       2.02697054
H        0.87332192      -2.04668324       0.54569799
H       -0.74689534      -1.78366182       1.19267475
H       -0.72868512       0.54462094       0.80695557
H       -0.81218345       2.10282553      -0.13788921
H       -2.43252593       0.21563586      -1.61878531
16
Frame=2 idx=011783 GeodesicLength=0.11070026357387375 rxn_smarts="[C:1]([C:2]1([C:3]([H:11])([H:12])[H:13])[C:4]([H:14])([H:15])[N:5]([H:16])[C:6]1=[O:7])([H:8])([H:9])[H:10]>>[C:1]([C:2]([C:3]([H:11])([H:12])[H:13])([C:6]([N+:5](=[C-:4][H:15])[H:16])=[O:7])[H:14])([H:8])([H:9])[H:10]"
C        1.43986833       0.68217461       0.07537340
C        0.12968892      -0.06928662       0.19693038
C        0.23446064      -1.32353664       1.05251094
C       -1.56994733       1.31521452      -0.03431460
N       -1.55505080       0.54114290      -1.23473742
C       -0.54225197      -0.37854443      -1.14288007
O       -0.30180357      -1.29974423      -1.87595528
H        2.19574154       0.01867023      -0.35038346
H        1.79199810       1.00995751       1.05460427
H        1.35798187       1.55216266      -0.57639818
H        0.66175758      -1.09215537       2.02886153
H        0.88104979      -2.04389407       0.54875183
H       -0.74071935      -1.79005730       1.19455512
H       -0.74463687       0.54475045       0.82859939
H       -0.81255043       2.10731384      -0.12901154
H       -2.42558644       0.22583193      -1.63650629
16
Frame=3 idx=011783 GeodesicLength=0.16601600654366258 rxn_smarts="[C:1]([C:2]1([C:3]([H:11])([H:12])[H:13])[C:4]([H:14])([H:15])[N:5]([H:16])[C:6]1=[O:7])([H:8])([H:9])[H:10]>>[C:1]([C:2]([C:3]([H:11])([H:12])[H:13])([C:6]([N+:5](=[C-:4][H:15])[H:16])=[O:7])[H:14])([H:8])([H:9])[H:10]"
C        1.43690316       0.68023257       0.07213088
C        0.12364091      -0.06724300       0.20184373
C        0.23765444      -1.32364194       1.05399822
C       -1.56670353       1.31524689      -0.04186343
N       -1.55131854       0.54285910      -1.23817917
C       -0.54145952      -0.38243395      -1.13996280
O       -0.30480623      -1.30332601      -1.87408104
H        2.18986976       0.01708495      -0.35923680
H        1.79585661       1.00667188       1.04935088
H        1.35478276       1.55065846      -0.57917226
H        0.66387131      -1.09135102       2.03072870
H        0.88863405      -2.04108135       0.55186495
H       -0.73464795      -1.79617226       1.19637475
H       -0.76076353       0.54483884       0.85006124
H       -0.81317799       2.11162380      -0.11980547
H       -2.41833572       0.23603306      -1.65405238
16
Frame=4 idx=011783 GeodesicLength=0.2212976062053528 rxn_smarts="[C:1]([C:2]1([C:3]([H:11])([H:12])[H:13])[C:4]([H:14])([H:15])[N:5]([H:16])[C:6]1=[O:7])([H:8])([H:9])[H:10]>>[C:1]([C:2]([C:3]([H:11])([H:12])[H:13])([C:6]([N+:5](=[C-:4][H:15])[H:16])=[O:7])[H:14])([H:8])([H:9])[H:10]"
C        1.43402601       0.67827264       0.06880722
C        0.11774540      -0.06524633       0.20656451
C        0.24077208      -1.32363175       1.05543274
C       -1.56323237       1.31504102      -0.04912018
N       -1.54756974       0.54450674      -1.24150742
C       -0.54054614      -0.38626151      -1.13722221
O       -0.30786388      -1.30693284      -1.87231117
H        2.18411996       0.01546808      -0.36799597
H        1.79960929       1.00344042       1.04401047
H        1.35167424       1.54913268      -0.58203031
H        0.66583886      -1.09036628       2.03255330
H        0.89605372      -2.03825477       0.55501393
H       -0.72869772      -1.80198956       1.19811890
H       -0.77706658       0.54490127       0.87133611
H       -0.81404461       2.11575572      -0.11032727
H       -2.41081851       0.24616448      -1.67132265
16
Frame=5 idx=011783 GeodesicLength=0.27656403242792027 rxn_smarts="[C:1]([C:2]1([C:3]([H:11])([H:12])[H:13])[C:4]([H:14])([H:15])[N:5]([H:16])[C:6]1=[O:7])([H:8])([H:9])[H:10]>>[C:1]([C:2]([C:3]([H:11])([H:12])[H:13])([C:6]([N+:5](=[C-:4][H:15])[H:16])=[O:7])[H:14])([H:8])([H:9])[H:10]"
C        1.43123623       0.67629588       0.06538972
C        0.11200100      -0.06330409       0.21110049
C        0.24383086      -1.32351268       1.05683725
C       -1.55956180       1.31459527      -0.05608761
N       -1.54378908       0.54611032      -1.24474077
C       -0.53953164      -0.39004639      -1.13464302
O       -0.31101562      -1.31059689      -1.87061635
H        2.17848524       0.01382778      -0.37670397
H        1.80328625       1.00025129       1.03857007
H        1.34863507       1.54759526      -0.58497704
H        0.66767349      -1.08919488       2.03435960
H        0.90334664      -2.03540827       0.55822663
H       -0.72284597      -1.80754290       1.19981051
H       -0.79357972       0.54491322       0.89243961
H       -0.81516519       2.11969522      -0.10054139
H       -2.40300576       0.25632186      -1.68842373
16
Frame=6 idx=011783 GeodesicLength=0.3318267705624601 rxn_smarts="[C:1]([C:2]1([C:3]([H:11])([H:12])[H:13])[C:4]([H:14])([H:15])[N:5]([H:16])[C:6]1=[O:7])([H:8])([H:9])[H:10]>>[C:1]([C:2]([C:3]([H:11])([H:12])[H:13])([C:6]([N+:5](=[C-:4][H:15])[H:16])=[O:7])[H:14])([H:8])([H:9])[H:10]"
C        1.42852365       0.67430011       0.06186466
C        0.10640474      -0.06142459       0.21545935
C        0.24684945      -1.32328630       1.05822833
C       -1.55571526       1.31390484      -0.06276151
N       -1.53994853       0.54769373      -1.24789077
C       -0.53843543      -0.39381495      -1.13220246
O       -0.31430137      -1.31435774      -1.86896152
H        2.17294685       0.01216446      -0.38539924
H        1.80689912       0.99709994       1.03301041
H        1.34563494       1.54604361      -0.58802102
H        0.66939793      -1.08782167       2.03615694
H        0.91054414      -2.03253495       0.56152138
H       -0.71706398      -1.81285334       1.20147523
H       -0.81033855       0.54485052       0.91338656
H       -0.81655940       2.12342369      -0.09039799
H       -2.39483830       0.26661264      -1.70546836
16
Frame=7 idx=011783 GeodesicLength=0.38707232929875823 rxn_smarts="[C:1]([C:2]1([C:3]([H:11])([H:12])[H:13])[C:4]([H:14])([H:15])[N:5]([H:16])[C:6]1=[O:7])([H:8])([H:9])[H:10]>>[C:1]([C:2]([C:3]([H:11])([H:12])[H:13])([C:6]([N+:5](=[C-:4][H:15])[H:16])=[O:7])[H:14])([H:8])([H:9])[H:10]"
C        1.42590081       0.67228861       0.05824260
C        0.10096785      -0.05960160       0.21963182
C        0.24981768      -1.32295547       1.05959208
C       -1.55168375       1.31299880      -0.06915920
N       -1.53607881       0.54923462      -1.25093741
C       -0.53724061      -0.39754619      -1.12991166
O       -0.31769476      -1.31817986      -1.86736738
H        2.16752414       0.01047726      -0.39405449
H        1.81044534       0.99398963       1.02734898
H        1.34269982       1.54448174      -0.59115185
H        0.67099646      -1.08626030       2.03793337
H        0.91762740      -2.02964264       0.56488144
H       -0.71136973      -1.81791193       1.20309343
H       -0.82734614       0.54472722       0.93417084
H       -0.81820383       2.12694197      -0.07995929
H       -2.38636186       0.27695814      -1.72235328
16
Frame=8 idx=011783 GeodesicLength=0.4423084795145128 rxn_smarts="[C:1]([C:2]1([C:3]([H:11])([H:12])[H:13])[C:4]([H:14])([H:15])[N:5]([H:16])[C:6]1=[O:7])([H:8])([H:9])[H:10]>>[C:1]([C:2]([C:3]([H:11])([H:12])[H:13])([C:6]([N+:5](=[C-:4][H:15])[H:16])=[O:7])[H:14])([H:8])([H:9])[H:10]"
C        1.42337688       0.67026240       0.05452407
C        0.09569574      -0.05783486       0.22361709
C        0.25273877      -1.32252270       1.06093219
C       -1.54747760       1.31188998      -0.07528805
N       -1.53219058       0.55073227      -1.25388156
C       -0.53594795      -0.40123900      -1.12777267
O       -0.32119934      -1.32205940      -1.86583869
H        2.16222837       0.00876643      -0.40267392
H        1.81393793       0.99091833       1.02159191
H        1.33983805       1.54291186      -0.59436850
H        0.67247163      -1.08451208       2.03969512
H        0.92460400      -2.02673197       0.56830819
H       -0.70576414      -1.82272388       1.20466904
H       -0.84462609       0.54453880       0.95479798
H       -0.82009510       2.13024259      -0.06923747
H       -2.37759057       0.28736123      -1.73907472
16
Frame=9 idx=011783 GeodesicLength=0.4975342548711238 rxn_smarts="[C:1]([C:2]1([C:3]([H:11])([H:12])[H:13])[C:4]([H:14])([H:15])[N:5]([H:16])[C:6]1=[O:7])([H:8])([H:9])[H:10]>>[C:1]([C:2]([C:3]([H:11])([H:12])[H:13])([C:6]([N+:5](=[C-:4][H:15])[H:16])=[O:7])[H:14])([H:8])([H:9])[H:10]"
C        1.42095483       0.66822212       0.05070769
C        0.09059286      -0.05612431       0.22741425
C        0.25561618      -1.32198987       1.06225008
C       -1.54310242       1.31058914      -0.08115427
N       -1.52828800       0.55218635      -1.25671888
C       -0.53455760      -0.40489403      -1.12578168
O       -0.32481927      -1.32599498      -1.86437049
H        2.15706150       0.00703147      -0.41126222
H        1.81738339       0.98788464       1.01573890
H        1.33705066       1.54133509      -0.59767061
H        0.67382538      -1.08257653       2.04144177
H        0.93147931      -2.02380304       0.57180286
H       -0.70024365      -1.82729408       1.20620397
H       -0.86220070       0.54428001       0.97527118
H       -0.82222957       2.13331707      -0.05824088
H       -2.36852288       0.29783094      -1.75563166
16
Frame=10 idx=011783 GeodesicLength=0.5527503416890245 rxn_smarts="[C:1]([C:2]1([C:3]([H:11])([H:12])[H:13])[C:4]([H:14])([H:15])[N:5]([H:16])[C:6]1=[O:7])([H:8])([H:9])[H:10]>>[C:1]([C:2]([C:3]([H:11])([H:12])[H:13])([C:6]([N+:5](=[C-:4][H:15])[H:16])=[O:7])[H:14])([H:8])([H:9])[H:10]"
C        1.41864013       0.66616847       0.04679281
C        0.08566429      -0.05446911       0.23102215
C        0.25845247      -1.32135856       1.06354713
C       -1.53856399       1.30910705      -0.08676389
N       -1.52437881       0.55359496      -1.25944526
C       -0.53306882      -0.40851022      -1.12393738
O       -0.32855619      -1.32998214      -1.86296204
H        2.15202865       0.00527161      -0.41982300
H        1.82079061       0.98488654       1.00979167
H        1.33434242       1.53975296      -0.60105741
H        0.67505861      -1.08045372       2.04317425
H        0.93825786      -2.02085608       0.57536619
H       -0.69480730      -1.83162596       1.20769957
H       -0.88009343       0.54394661       0.99559342
H       -0.82460287       2.13615756      -0.04698079
H       -2.35916361       0.30837004      -1.77201740
16
Frame=11 idx=011783 GeodesicLength=0.6079576728021396 rxn_smarts="[C:1]([C:2]1([C:3]([H:11])([H:12])[H:13])[C:4]([H:14])([H:15])[N:5]([H:16])[C:6]1=[O:7])([H:8])([H:9])[H:10]>>[C:1]([C:2]([C:3]([H:11])([H:12])[H:13])([C:6]([N+:5](=[C-:4][H:15])[H:16])=[O:7])[H:14])([H:8])([H:9])[H:10]"
C        1.41643818       0.66410200       0.04277817
C        0.08091505      -0.05286845       0.23443985
C        0.26125054      -1.32063007       1.06482517
C       -1.53386810       1.30745310      -0.09212199
N       -1.52047021       0.55495656      -1.26205670
C       -0.53148120      -0.41208693      -1.12223823
O       -0.33241236      -1.33401710      -1.86161186
H        2.14713447       0.00348587      -0.42836084
H        1.82416901       0.98192188       1.00375091
H        1.33171761       1.53816667      -0.60452887
H        0.67617249      -1.07814290       2.04489378
H        0.94494449      -2.01789093       0.57899948
H       -0.68945369      -1.83572270       1.20915772
H       -0.89832951       0.54353353       1.01576753
H       -0.82721121       2.13875568      -0.03546629
H       -2.34951556       0.31898378      -1.78822782
16
Frame=12 idx=011783 GeodesicLength=0.6631569778244009 rxn_smarts="[C:1]([C:2]1([C:3]([H:11])([H:12])[H:13])[C:4]([H:14])([H:15])[N:5]([H:16])[C:6]1=[O:7])([H:8])([H:9])[H:10]>>[C:1]([C:2]([C:3]([H:11])([H:12])[H:13])([C:6]([N+:5](=[C-:4][H:15])[H:16])=[O:7])[H:14])([H:8])([H:9])[H:10]"
C        1.41435451       0.66202313       0.03866212
C        0.07635031      -0.05132136       0.23766647
C        0.26401330      -1.31980535       1.06608614
C       -1.52902033       1.30563561      -0.09723278
N       -1.51656943       0.55626953      -1.26454895
C       -0.52979426      -0.41562360      -1.12068270
O       -0.33638982      -1.33809593      -1.86031835
H        2.14238345       0.00167300      -0.43688069
H        1.82752843       0.97898836       0.99761664
H        1.32918057       1.53657729      -0.60808540
H        0.67716820      -1.07564283       2.04660161
H        0.95154384      -2.01490729       0.58270427
H       -0.68418146      -1.83958681       1.21058051
H       -0.91693561       0.54303537       1.03579581
H       -0.83005101       2.14110287      -0.02370553
H       -2.33958070       0.32967801      -1.80425918
16
Frame=13 idx=011783 GeodesicLength=0.7183492199985511 rxn_smarts="[C:1]([C:2]1([C:3]([H:11])([H:12])[H:13])[C:4]([H:14])([H:15])[N:5]([H:16])[C:6]1=[O:7])([H:8])([H:9])[H:10]>>[C:1]([C:2]([C:3]([H:11])([H:12])[H:13])([C:6]([N+:5](=[C-:4][H:15])[H:16])=[O:7])[H:14])([H:8])([H:9])[H:10]"
C        1.41239441       0.65993211       0.03444214
C        0.07197519      -0.04982705       0.24070136
C        0.26674418      -1.31888506       1.06733262
C       -1.52402652       1.30366138      -0.10209931
N       -1.51268295       0.55753275      -1.26691786
C       -0.52800814      -0.41912039      -1.11926876
O       -0.34049190      -1.34221592      -1.85907872
H        2.13777935      -0.00016837      -0.44538896
H        1.83087926       0.97608354       0.99138752
H        1.32673473       1.53498569      -0.61172820
H        0.67804750      -1.07295127       2.04829934
H        0.95806107      -2.01190452       0.58648284
H       -0.67898855      -1.84322061       1.21197105
H       -0.93594043       0.54244549       1.05568034
H       -0.83311958       2.14318973      -0.01170385
H       -2.32935761       0.34046250      -1.82011153
16
Frame=14 idx=011783 GeodesicLength=0.7735350426332501 rxn_smarts="[C:1]([C:2]1([C:3]([H:11])([H:12])[H:13])[C:4]([H:14])([H:15])[N:5]([H:16])[C:6]1=[O:7])([H:8])([H:9])[H:10]>>[C:1]([C:2]([C:3]([H:11])([H:12])[H:13])([C:6]([N+:5](=[C-:4][H:15])[H:16])=[O:7])[H:14])([H:8])([H:9])[H:10]"
C        1.41056362       0.65782908       0.03011556
C        0.06779513      -0.04838439       0.24354370
C        0.26944632      -1.31786947       1.06856694
C       -1.51889199       1.30153658      -0.10672406
N       -1.50881794       0.55874448      -1.26915874
C       -0.52612249      -0.42257698      -1.11799483
O       -0.34472084      -1.34637338      -1.85789079
H        2.13332621      -0.00203996      -0.45389181
H        1.83423229       0.97320476       0.98506193
H        1.32438422       1.53339263      -0.61545863
H        0.67881149      -1.07006565       2.04998838
H        0.96450069      -2.00888190       0.59033738
H       -0.67387349      -1.84662545       1.21333193
H       -0.95537395       0.54175740       1.07542232
H       -0.83641396       2.14500687       0.00053321
H       -2.31884531       0.35134538      -1.83578250
16
Frame=15 idx=011783 GeodesicLength=0.8287154001882169 rxn_smarts="[C:1]([C:2]1([C:3]([H:11])([H:12])[H:13])[C:4]([H:14])([H:15])[N:5]([H:16])[C:6]1=[O:7])([H:8])([H:9])[H:10]>>[C:1]([C:2]([C:3]([H:11])([H:12])[H:13])([C:6]([N+:5](=[C-:4][H:15])[H:16])=[O:7])[H:14])([H:8])([H:9])[H:10]"
C        1.40886751       0.65571400       0.02567868
C        0.06381558      -0.04699252       0.24619297
C        0.27212350      -1.31675856       1.06979221
C       -1.51362258       1.29926574      -0.11110814
N       -1.50498074       0.55990351      -1.27126686
C       -0.52413781      -0.42599402      -1.11685861
O       -0.34908046      -1.35056602      -1.85675094
H        2.12902717      -0.00394363      -0.46239712
H        1.83759886       0.97034924       0.97863661
H        1.32213191       1.53179859      -0.61927905
H        0.67946229      -1.06698231       2.05167052
H        0.97086780      -2.00583841       0.59427094
H       -0.66883394      -1.84980244       1.21466722
H       -0.97526845       0.54096319       1.09502270
H       -0.83993241       2.14654385       0.01300331
H       -2.30803824       0.36233977      -1.85127444
16
Frame=16 idx=011783 GeodesicLength=0.8838912147066883 rxn_smarts="[C:1]([C:2]1([C:3]([H:11])([H:12])[H:13])[C:4]([H:14])([H:15])[N:5]([H:16])[C:6]1=[O:7])([H:8])([H:9])[H:10]>>[C:1]([C:2]([C:3]([H:11])([H:12])[H:13])([C:6]([N+:5](=[C-:4][H:15])[H:16])=[O:7])[H:14])([H:8])([H:9])[H:10]"
C        1.40731147       0.65358669       0.02112718
C        0.06004212      -0.04565058       0.24864869
C        0.27477976      -1.31555194       1.07101177
C       -1.50822415       1.29685230      -0.11525173
N       -1.50117769       0.56100849      -1.27323716
C       -0.52205482      -0.42937241      -1.11585763
O       -0.35357505      -1.35479183      -1.85565507
H        2.12488509      -0.00588152      -0.47091335
H        1.84099070       0.96751418       0.97210729
H        1.31998036       1.53020384      -0.62319256
H        0.68000224      -1.06369689       2.05334759
H        0.97716750      -2.00277286       0.59828685
H       -0.66386738      -1.85275205       1.21598150
H       -0.99565813       0.54005427       1.11448166
H       -0.84367367       2.14778962       0.02570557
H       -2.29692837       0.37346073      -1.86659061
