16
Frame=0 idx=009585 GeodesicLength=0.0 rxn_smarts="[C:1]([C:2]1([C:3]([H:11])([H:12])[H:13])[N:4]([H:14])[C:5]([H:15])([H:16])[C:6]1=[O:7])([H:8])([H:9])[H:10]>>[C:1]([C:2]1([C:3]([H:11])([H:12])[H:13])[N+:4]2([H:14])[C:5]([H:15])([H:16])[C-:6]1[O:7]2)([H:8])([H:9])[H:10]"
C        1.23401259      -0.92366356      -0.01353648
C        0.23801771       0.21133830       0.12575821
C        0.88023740       1.52573299      -0.25780607
N       -1.11178682      -0.04918983      -0.58614512
C       -1.52887259      -0.93896451       0.55587493
C       -0.81997367       0.23974176       1.29850217
O       -1.62377981       1.09036247       0.46288891
H        2.14101174      -0.65002170       0.52558926
H        1.51097662      -1.07187455      -1.06182667
H        0.88723006      -1.87081276       0.39325089
H        1.37131027       1.45867081      -1.23294730
H        1.64596092       1.75481562       0.48489163
H        0.16387568       2.34168777      -0.26950768
H       -1.27250895      -0.21852950      -1.60329442
H       -2.60830812      -0.95671602       0.68167081
H       -1.10740301      -1.94257734       0.49663700
16
Frame=1 idx=009585 GeodesicLength=0.05832663666518263 rxn_smarts="[C:1]([C:2]1([C:3]([H:11])([H:12])[H:13])[N:4]([H:14])[C:5]([H:15])([H:16])[C:6]1=[O:7])([H:8])([H:9])[H:10]>>[C:1]([C:2]1([C:3]([H:11])([H:12])[H:13])[N+:4]2([H:14])[C:5]([H:15])([H:16])[C-:6]1[O:7]2)([H:8])([H:9])[H:10]"
C        1.23603634      -0.92216734      -0.01363734
C        0.23713779       0.21084562       0.12169166
C        0.87970989       1.52519282      -0.26243486
N       -1.11303807      -0.04617387      -0.58540186
C       -1.53255085      -0.93812104       0.55222347
C       -0.81460414       0.23192394       1.29860221
O       -1.62488594       1.10062390       0.49176150
H        2.13689797      -0.65168448       0.53737960
H        1.52281654      -1.06520097      -1.05991621
H        0.88797238      -1.87345092       0.38244100
H        1.37193944       1.45753440      -1.23692427
H        1.64265925       1.75751151       0.48208527
H        0.16437921       2.34194676      -0.28160042
H       -1.26489378      -0.22774960      -1.60016993
H       -2.61233455      -0.95659198       0.67611558
H       -1.11724148      -1.94443877       0.49778458
16
Frame=2 idx=009585 GeodesicLength=0.11664602463600253 rxn_smarts="[C:1]([C:2]1([C:3]([H:11])([H:12])[H:13])[N:4]([H:14])[C:5]([H:15])([H:16])[C:6]1=[O:7])([H:8])([H:9])[H:10]>>[C:1]([C:2]1([C:3]([H:11])([H:12])[H:13])[N+:4]2([H:14])[C:5]([H:15])([H:16])[C-:6]1[O:7]2)([H:8])([H:9])[H:10]"
C        1.23811494      -0.92066920      -0.01372879
C        0.23626388       0.21030590       0.11755971
C        0.87907601       1.52466928      -0.26711079
N       -1.11418842      -0.04330712      -0.58486981
C       -1.53631754      -0.93716427       0.54848020
C       -0.80922724       0.22403324       1.29854379
O       -1.62546591       1.11069562       0.52136768
H        2.13266944      -0.65335299       0.54911563
H        1.53479796      -1.05848025      -1.05785638
H        0.88878719      -1.87599469       0.37154817
H        1.37251092       1.45644166      -1.24092327
H        1.63920782       1.76026904       0.47923289
H        0.16464279       2.34204337      -0.29369871
H       -1.25710753      -0.23722826      -1.59704297
H       -2.61646612      -0.95607198       0.67035999
H       -1.12729819      -1.94618935       0.49902266
16
Frame=3 idx=009585 GeodesicLength=0.1749484560272938 rxn_smarts="[C:1]([C:2]1([C:3]([H:11])([H:12])[H:13])[N:4]([H:14])[C:5]([H:15])([H:16])[C:6]1=[O:7])([H:8])([H:9])[H:10]>>[C:1]([C:2]1([C:3]([H:11])([H:12])[H:13])[N+:4]2([H:14])[C:5]([H:15])([H:16])[C-:6]1[O:7]2)([H:8])([H:9])[H:10]"
C        1.24024965      -0.91916895      -0.01380706
C        0.23539606       0.20971770       0.11336033
C        0.87833426       1.52416298      -0.27182985
N       -1.11522756      -0.04060888      -0.58457034
C       -1.54017376      -0.93609293       0.54463975
C       -0.80385996       0.21608182       1.29831024
O       -1.62549879       1.12055117       0.55170519
H        2.12834255      -0.65501577       0.56076987
H        1.54689594      -1.05173219      -1.05564440
H        0.88968932      -1.87843160       0.36061639
H        1.37301686       1.45539965      -1.24494312
H        1.63561004       1.76308147       0.47633447
H        0.16466486       2.34197994      -0.30577215
H       -1.24915939      -0.24695213      -1.59392822
H       -2.62070401      -0.95514796       0.66440235
H       -1.13757607      -1.94782432       0.50035655
16
Frame=4 idx=009585 GeodesicLength=0.2332167109556822 rxn_smarts="[C:1]([C:2]1([C:3]([H:11])([H:12])[H:13])[N:4]([H:14])[C:5]([H:15])([H:16])[C:6]1=[O:7])([H:8])([H:9])[H:10]>>[C:1]([C:2]1([C:3]([H:11])([H:12])[H:13])[N+:4]2([H:14])[C:5]([H:15])([H:16])[C-:6]1[O:7]2)([H:8])([H:9])[H:10]"
C        1.24244214      -0.91766866      -0.01386822
C        0.23453365       0.20908064       0.10909075
C        0.87748347       1.52367668      -0.27658762
N       -1.11614911      -0.03809593      -0.58452925
C       -1.54412000      -0.93490531       0.54069759
C       -0.79852116       0.20808625       1.29788520
O       -1.62496249       1.13015803       0.58277462
H        2.12393519      -0.65666239       0.57231919
H        1.55908651      -1.04498065      -1.05327971
H        0.89069391      -1.88075406       0.34969017
H        1.37345178       1.45441620      -1.24898210
H        1.63186920       1.76594451       0.47339329
H        0.16444362       2.34176344      -0.31779353
H       -1.24106285      -0.25690636      -1.59084864
H       -2.62504825      -0.95381277       0.65824557
H       -1.14807561      -1.94933962       0.50179270
16
Frame=5 idx=009585 GeodesicLength=0.29143947910531054 rxn_smarts="[C:1]([C:2]1([C:3]([H:11])([H:12])[H:13])[N:4]([H:14])[C:5]([H:15])([H:16])[C:6]1=[O:7])([H:8])([H:9])[H:10]>>[C:1]([C:2]1([C:3]([H:11])([H:12])[H:13])[N+:4]2([H:14])[C:5]([H:15])([H:16])[C-:6]1[O:7]2)([H:8])([H:9])[H:10]"
C        1.24469329      -0.91617257      -0.01390676
C        0.23367619       0.20839543       0.10474772
C        0.87652405       1.52321557      -0.28138132
N       -1.11694799      -0.03577848      -0.58477138
C       -1.54815443      -0.93360223       0.53664752
C       -0.79323234       0.20006937       1.29725193
O       -1.62383762       1.13948255       0.61458500
H        2.11946622      -0.65828380       0.58374494
H        1.57134199      -1.03825458      -1.05076253
H        0.89181488      -1.88295899       0.33881848
H        1.37381209       1.45349887      -1.25304071
H        1.62799057       1.76885758       0.47041420
H        0.16397874       2.34140715      -0.32974242
H       -1.23283505      -0.26707265      -1.58783031
H       -2.62949606      -0.95206694       0.65189179
H       -1.15879452      -1.95073628       0.50333385
16
Frame=6 idx=009585 GeodesicLength=0.3496902912190892 rxn_smarts="[C:1]([C:2]1([C:3]([H:11])([H:12])[H:13])[N:4]([H:14])[C:5]([H:15])([H:16])[C:6]1=[O:7])([H:8])([H:9])[H:10]>>[C:1]([C:2]1([C:3]([H:11])([H:12])[H:13])[N+:4]2([H:14])[C:5]([H:15])([H:16])[C-:6]1[O:7]2)([H:8])([H:9])[H:10]"
C        1.24700895      -0.91465297      -0.01392648
C        0.23283374       0.20764579       0.10035176
C        0.87543569       1.52275716      -0.28620405
N       -1.11755529      -0.03375155      -0.58523572
C       -1.55229825      -0.93216198       0.53248151
C       -0.78793589       0.19194175       1.29644068
O       -1.62214047       1.14858954       0.64707286
H        2.11496305      -0.65985382       0.59499550
H        1.58363826      -1.03150349      -1.04809890
H        0.89306062      -1.88500326       0.32800728
H        1.37406155       1.45264233      -1.25711900
H        1.62396532       1.77179419       0.46737348
H        0.16324610       2.34088033      -0.34156761
H       -1.22441752      -0.27752073      -1.58481373
H       -2.63405896      -0.94982963       0.64527855
H       -1.16980689      -1.95197368       0.50496386
16
Frame=7 idx=009585 GeodesicLength=0.4077970368951623 rxn_smarts="[C:1]([C:2]1([C:3]([H:11])([H:12])[H:13])[N:4]([H:14])[C:5]([H:15])([H:16])[C:6]1=[O:7])([H:8])([H:9])[H:10]>>[C:1]([C:2]1([C:3]([H:11])([H:12])[H:13])[N+:4]2([H:14])[C:5]([H:15])([H:16])[C-:6]1[O:7]2)([H:8])([H:9])[H:10]"
C        1.24939242      -0.91313804      -0.01392125
C        0.23199749       0.20684582       0.09587892
C        0.87422728       1.52232879      -0.29105741
N       -1.11802680      -0.03195049      -0.58602405
C       -1.55654042      -0.93059055       0.52821248
C       -0.78269653       0.18380083       1.29541792
O       -1.61980615       1.15734049       0.68028101
H        2.11041141      -0.66138961       0.60612931
H        1.59601023      -1.02477155      -1.04528120
H        0.89443809      -1.88693941       0.31725885
H        1.37421511       1.45186778      -1.26121462
H        1.61980222       1.77478104       0.46429134
H        0.16225488       2.34021283      -0.35328545
H       -1.21587484      -0.28819581      -1.58189172
H       -2.63873250      -0.94712432       0.63848886
H       -1.18107189      -1.95307779       0.50671703
16
Frame=8 idx=009585 GeodesicLength=0.4659748543014626 rxn_smarts="[C:1]([C:2]1([C:3]([H:11])([H:12])[H:13])[N:4]([H:14])[C:5]([H:15])([H:16])[C:6]1=[O:7])([H:8])([H:9])[H:10]>>[C:1]([C:2]1([C:3]([H:11])([H:12])[H:13])[N+:4]2([H:14])[C:5]([H:15])([H:16])[C-:6]1[O:7]2)([H:8])([H:9])[H:10]"
C        1.25183736      -0.91161722      -0.01388393
C        0.23116922       0.20599019       0.09131952
C        0.87289992       1.52191890      -0.29596405
N       -1.11834584      -0.03039812      -0.58712672
C       -1.56087936      -0.92888758       0.52382277
C       -0.77752572       0.17565886       1.29414709
O       -1.61680862       1.16574148       0.71434531
H        2.10578831      -0.66288968       0.61717440
H        1.60847731      -1.01803003      -1.04228723
H        0.89593089      -1.88875546       0.30656583
H        1.37428601       1.45116107      -1.26534871
H        1.61549040       1.77781177       0.46114756
H        0.16098974       2.33940404      -0.36492149
H       -1.20719268      -0.29912297      -1.57904606
H       -2.64351587      -0.94395323       0.63148908
H       -1.19260108      -1.95403201       0.50856663
16
Frame=9 idx=009585 GeodesicLength=0.5240016074727284 rxn_smarts="[C:1]([C:2]1([C:3]([H:11])([H:12])[H:13])[N:4]([H:14])[C:5]([H:15])([H:16])[C:6]1=[O:7])([H:8])([H:9])[H:10]>>[C:1]([C:2]1([C:3]([H:11])([H:12])[H:13])[N+:4]2([H:14])[C:5]([H:15])([H:16])[C-:6]1[O:7]2)([H:8])([H:9])[H:10]"
C        1.25435708      -0.91008500      -0.01382167
C        0.23035014       0.20507300       0.08668991
C        0.87143056       1.52153060      -0.30089735
N       -1.11849233      -0.02914443      -0.58854729
C       -1.56533705      -0.92702986       0.51932559
C       -0.77239248       0.16745993       1.29267649
O       -1.61310317       1.17377206       0.74911257
H        2.10113034      -0.66433306       0.62808843
H        1.62102055      -1.01127499      -1.03913636
H        0.89757079      -1.89044494       0.29593914
H        1.37422362       1.45054087      -1.26950013
H        1.61101959       1.78088780       0.45795160
H        0.15944553       2.33844317      -0.37641438
H       -1.19835130      -0.31034489      -1.57628140
H       -2.64841837      -0.94023114       0.62428584
H       -1.20445349      -1.95481911       0.51052900
16
Frame=10 idx=009585 GeodesicLength=0.5820449415057452 rxn_smarts="[C:1]([C:2]1([C:3]([H:11])([H:12])[H:13])[N:4]([H:14])[C:5]([H:15])([H:16])[C:6]1=[O:7])([H:8])([H:9])[H:10]>>[C:1]([C:2]1([C:3]([H:11])([H:12])[H:13])[N+:4]2([H:14])[C:5]([H:15])([H:16])[C-:6]1[O:7]2)([H:8])([H:9])[H:10]"
C        1.25694946      -0.90854175      -0.01372219
C        0.22954132       0.20409445       0.08197235
C        0.86982753       1.52116275      -0.30588120
N       -1.11846595      -0.02818118      -0.59030814
C       -1.56990896      -0.92502109       0.51470500
C       -0.76732771       0.15924958       1.29096241
O       -1.60866948       1.18139421       0.78473417
H        2.09642207      -0.66572426       0.63891055
H        1.63366126      -1.00449975      -1.03580682
H        0.89934552      -1.89201290       0.28538663
H        1.37405236       1.45000238      -1.27369248
H        1.60639185       1.78400974       0.45469130
H        0.15760719       2.33733914      -0.38779842
H       -1.18935830      -0.32185943      -1.57361395
H       -2.65344224      -0.93597731       0.61687297
H       -1.21662591      -1.95543457       0.51258784
16
Frame=11 idx=009585 GeodesicLength=0.6401071718175324 rxn_smarts="[C:1]([C:2]1([C:3]([H:11])([H:12])[H:13])[N:4]([H:14])[C:5]([H:15])([H:16])[C:6]1=[O:7])([H:8])([H:9])[H:10]>>[C:1]([C:2]1([C:3]([H:11])([H:12])[H:13])[N+:4]2([H:14])[C:5]([H:15])([H:16])[C-:6]1[O:7]2)([H:8])([H:9])[H:10]"
C        1.25961704      -0.90698427      -0.01358303
C        0.22874110       0.20305182       0.07716172
C        0.86807982       1.52081645      -0.31092076
N       -1.11826492      -0.02752509      -0.59242385
C       -1.57460428      -0.92285123       0.50995913
C       -0.76233628       0.15102453       1.28899995
O       -1.60344350       1.18857703       0.82124430
H        2.09164946      -0.66706456       0.64966398
H        1.64642714      -0.99767944      -1.03228489
H        0.90125704      -1.89345986       0.27488494
H        1.37375965       1.44954929      -1.27793041
H        1.60159521       1.78718288       0.45135788
H        0.15546374       2.33609419      -0.39907488
H       -1.18019945      -0.33370943      -1.57104489
H       -2.65859406      -0.93115415       0.60924851
H       -1.22914770      -1.95586816       0.51474231
16
Frame=12 idx=009585 GeodesicLength=0.6980846241273799 rxn_smarts="[C:1]([C:2]1([C:3]([H:11])([H:12])[H:13])[N:4]([H:14])[C:5]([H:15])([H:16])[C:6]1=[O:7])([H:8])([H:9])[H:10]>>[C:1]([C:2]1([C:3]([H:11])([H:12])[H:13])[N+:4]2([H:14])[C:5]([H:15])([H:16])[C-:6]1[O:7]2)([H:8])([H:9])[H:10]"
C        1.26236537      -0.90540798      -0.01340616
C        0.22795163       0.20194274       0.07226000
C        0.86617814       1.52049195      -0.31600365
N       -1.11787066      -0.02720395      -0.59491044
C       -1.57943065      -0.92049957       0.50508854
C       -0.75740798       0.14277951       1.28679698
O       -1.59741021       1.19526263       0.85859315
H        2.08683650      -0.66833341       0.66032336
H        1.65929519      -0.99082103      -1.02857954
H        0.90332117      -1.89478476       0.26446205
H        1.37333017       1.44919398      -1.28220119
H        1.59662600       1.79040435       0.44795721
H        0.15300268       2.33469607      -0.41021026
H       -1.17086631      -0.34591728      -1.56858600
H       -2.66386978      -0.92570888       0.60141911
H       -1.24205128      -1.95609435       0.51699684
16
Frame=13 idx=009585 GeodesicLength=0.7560640945215065 rxn_smarts="[C:1]([C:2]1([C:3]([H:11])([H:12])[H:13])[N:4]([H:14])[C:5]([H:15])([H:16])[C:6]1=[O:7])([H:8])([H:9])[H:10]>>[C:1]([C:2]1([C:3]([H:11])([H:12])[H:13])[N+:4]2([H:14])[C:5]([H:15])([H:16])[C-:6]1[O:7]2)([H:8])([H:9])[H:10]"
C        1.26519562      -0.90381153      -0.01318390
C        0.22717134       0.20076460       0.06725731
C        0.86411587       1.52019134      -0.32114435
N       -1.11728212      -0.02722918      -0.59778546
C       -1.58439474      -0.91796048       0.50008309
C       -0.75256027       0.13452834       1.28433573
O       -1.59050473       1.20142090       0.89687486
H        2.08196452      -0.66953408       0.67092355
H        1.67229731      -0.98390330      -1.02467085
H        0.90553442      -1.89599134       0.25409951
H        1.37275980       1.44893450      -1.28652168
H        1.59147387       1.79368099       0.44447861
H        0.15020940       2.33315449      -0.42122284
H       -1.16134575      -0.35851910      -1.56624170
H       -2.66927706      -0.91962194       0.59337282
H       -1.25535746      -1.95610422       0.51934530
16
Frame=14 idx=009585 GeodesicLength=0.814052078797378 rxn_smarts="[C:1]([C:2]1([C:3]([H:11])([H:12])[H:13])[N:4]([H:14])[C:5]([H:15])([H:16])[C:6]1=[O:7])([H:8])([H:9])[H:10]>>[C:1]([C:2]1([C:3]([H:11])([H:12])[H:13])[N+:4]2([H:14])[C:5]([H:15])([H:16])[C-:6]1[O:7]2)([H:8])([H:9])[H:10]"
C        1.26811406      -0.90219146      -0.01291050
C        0.22640067       0.19951380       0.06214757
C        0.86188007       1.51991559      -0.32635118
N       -1.11649236      -0.02761809      -0.60106452
C       -1.58950631      -0.91521754       0.49493622
C       -0.74779227       0.12626729       1.28161160
O       -1.58266689       1.20699813       0.93613752
H        2.07702375      -0.67066612       0.68148985
H        1.68545988      -0.97690561      -1.02054189
H        0.90790155      -1.89708105       0.24378241
H        1.37203175       1.44877540      -1.29090303
H        1.58612596       1.79701801       0.44091194
H        0.14706234       2.33146850      -0.43211541
H       -1.15161875      -0.37155883      -1.56401349
H       -2.67482025      -0.91283890       0.58510072
H       -1.26910320      -1.95587911       0.52178221
16
Frame=15 idx=009585 GeodesicLength=0.8719946995962424 rxn_smarts="[C:1]([C:2]1([C:3]([H:11])([H:12])[H:13])[N:4]([H:14])[C:5]([H:15])([H:16])[C:6]1=[O:7])([H:8])([H:9])[H:10]>>[C:1]([C:2]1([C:3]([H:11])([H:12])[H:13])[N+:4]2([H:14])[C:5]([H:15])([H:16])[C-:6]1[O:7]2)([H:8])([H:9])[H:10]"
C        1.27112172      -0.90053868      -0.01258346
C        0.22563965       0.19818809       0.05692518
C        0.85946346       1.51966240      -0.33161898
N       -1.11548874      -0.02839241      -0.60477116
C       -1.59477450      -0.91225257       0.48963864
C       -0.74311323       0.11800477       1.27861231
O       -1.57384828       1.21192449       0.97637512
H        2.07202774      -0.67170332       0.69200299
H        1.69876438      -0.96983079      -1.01618930
H        0.91043398      -1.89804211       0.23354457
H        1.37113565       1.44872639      -1.29533662
H        1.58057993       1.80041175       0.43725369
H        0.14355371       2.32962745      -0.44285744
H       -1.14167621      -0.38507160      -1.56190427
H       -2.68049839      -0.90532298       0.57660731
H       -1.28332087      -1.95539089       0.52430143
16
Frame=16 idx=009585 GeodesicLength=0.9299461914753553 rxn_smarts="[C:1]([C:2]1([C:3]([H:11])([H:12])[H:13])[N:4]([H:14])[C:5]([H:15])([H:16])[C:6]1=[O:7])([H:8])([H:9])[H:10]>>[C:1]([C:2]1([C:3]([H:11])([H:12])[H:13])[N+:4]2([H:14])[C:5]([H:15])([H:16])[C-:6]1[O:7]2)([H:8])([H:9])[H:10]"
C        1.27422487      -0.89885301      -0.01219697
C        0.22488706       0.19678370       0.05157937
C        0.85685177       1.51943763      -0.33696001
N       -1.11426479      -0.02957466      -0.60892556
C       -1.60021013      -0.90904994       0.48418133
C       -0.73852791       0.10974346       1.27533067
O       -1.56397557       1.21614653       1.01766584
H        2.06696027      -0.67265346       0.70249860
H        1.71224586      -0.96265405      -1.01159577
H        0.91313614      -1.89888287       0.22336379
H        1.37006391       1.44879511      -1.29983673
H        1.57481494       1.80387422       0.43349898
H        0.13965641       2.32763936      -0.45346773
H       -1.13149701      -0.39911399      -1.55991676
H       -2.68631691      -0.89701457       0.56788021
H       -1.29804891      -1.95462344       0.52690073
