15
Frame=0 idx=010866 GeodesicLength=0.0 rxn_smarts="[C:1]([C@@:2]12[C:3]([H:11])([H:12])[C@:4]1([O:5][H:13])[C:6]([H:14])([H:15])[O:7]2)([H:8])([H:9])[H:10]>>[C:1]([C:2]1=[C:3]([H:12])[C@:4]1([O:5][H:13])[C:6]([O:7][H:11])([H:14])[H:15])([H:8])([H:9])[H:10]"
C        1.86881395      -0.29786465       0.81421419
C        0.70271356      -0.11699779      -0.04965771
C        0.13311698      -0.75130317      -1.16488666
C       -0.71759647      -0.16447035       0.07956421
O       -1.27789362      -0.92905547       1.06963501
C       -1.25128124       1.19768648      -0.34769349
O       -0.30220083       1.71535192      -1.15291151
H        2.75868765      -0.58559500       0.25818264
H        1.62891965      -1.06846330       1.55483284
H        2.05306135       0.62245256       1.37119686
H       -0.18399439      -0.01798113      -1.93117943
H        0.42597317      -1.75596002      -1.44925720
H       -2.21667557      -0.73243540       1.11317105
H       -2.26318910       1.17713154      -0.79800256
H       -1.35845508       1.70750383       0.63279179
15
Frame=1 idx=010866 GeodesicLength=0.09632377524990118 rxn_smarts="[C:1]([C@@:2]12[C:3]([H:11])([H:12])[C@:4]1([O:5][H:13])[C:6]([H:14])([H:15])[O:7]2)([H:8])([H:9])[H:10]>>[C:1]([C:2]1=[C:3]([H:12])[C@:4]1([O:5][H:13])[C:6]([O:7][H:11])([H:14])[H:15])([H:8])([H:9])[H:10]"
C        1.87190904      -0.28945510       0.81089857
C        0.69961938      -0.11778384      -0.04770418
C        0.12191587      -0.76016682      -1.15448308
C       -0.72353460      -0.17019396       0.08229326
O       -1.28839218      -0.92652178       1.07721584
C       -1.24486429       1.19851718      -0.33987915
O       -0.28086883       1.69646444      -1.14865385
H        2.76114655      -0.56941937       0.24960619
H        1.64359037      -1.06263557       1.55206180
H        2.05226310       0.63329852       1.36509717
H       -0.17962575       0.00179530      -1.93105246
H        0.40220196      -1.76902299      -1.43522707
H       -2.23506521      -0.76657759       1.08165650
H       -2.25285496       1.18580260      -0.79738373
H       -1.34744045       1.71589899       0.63555417
15
Frame=2 idx=010866 GeodesicLength=0.19255265884718387 rxn_smarts="[C:1]([C@@:2]12[C:3]([H:11])([H:12])[C@:4]1([O:5][H:13])[C:6]([H:14])([H:15])[O:7]2)([H:8])([H:9])[H:10]>>[C:1]([C:2]1=[C:3]([H:12])[C@:4]1([O:5][H:13])[C:6]([O:7][H:11])([H:14])[H:15])([H:8])([H:9])[H:10]"
C        1.87475016      -0.28122469       0.80767303
C        0.69650539      -0.11862358      -0.04579170
C        0.11092233      -0.76897075      -1.14408739
C       -0.72950984      -0.17574351       0.08480836
O       -1.29957952      -0.92387737       1.08409125
C       -1.23852080       1.19933237      -0.33227015
O       -0.25986798       1.67794959      -1.14406044
H        2.76330555      -0.55348118       0.24123047
H        1.65786769      -1.05691770       1.54922354
H        2.05119357       0.64387979       1.35918629
H       -0.17552634       0.02142958      -1.93115805
H        0.37866817      -1.78185292      -1.42114085
H       -2.25114239      -0.80045721       1.05129800
H       -2.24245351       1.19427557      -0.79703646
H       -1.33661248       1.72428202       0.63803408
15
Frame=3 idx=010866 GeodesicLength=0.28875475312186927 rxn_smarts="[C:1]([C@@:2]12[C:3]([H:11])([H:12])[C@:4]1([O:5][H:13])[C:6]([H:14])([H:15])[O:7]2)([H:8])([H:9])[H:10]>>[C:1]([C:2]1=[C:3]([H:12])[C@:4]1([O:5][H:13])[C:6]([O:7][H:11])([H:14])[H:15])([H:8])([H:9])[H:10]"
C        1.87736378      -0.27315957       0.80451673
C        0.69336917      -0.11954034      -0.04391360
C        0.10011478      -0.77776638      -1.13366828
C       -0.73552719      -0.18113717       0.08712785
O       -1.31141662      -0.92112381       1.09030906
C       -1.23224152       1.20012221      -0.32485073
O       -0.23915634       1.65979089      -1.13907973
H        2.76518424      -0.53775914       0.23301676
H        1.67180752      -1.05128944       1.54632009
H        2.04987821       0.65422319       1.35342093
H       -0.17166894       0.04102251      -1.93151998
H        0.35535394      -1.79449683      -1.40698493
H       -2.26513629      -0.83409295       1.02204076
H       -2.23195223       1.20257007      -0.79696697
H       -1.32597252       1.73263678       0.64023205
15
Frame=4 idx=010866 GeodesicLength=0.3849878941410539 rxn_smarts="[C:1]([C@@:2]12[C:3]([H:11])([H:12])[C@:4]1([O:5][H:13])[C:6]([H:14])([H:15])[O:7]2)([H:8])([H:9])[H:10]>>[C:1]([C:2]1=[C:3]([H:12])[C@:4]1([O:5][H:13])[C:6]([O:7][H:11])([H:14])[H:15])([H:8])([H:9])[H:10]"
C        1.87976967      -0.26525035       0.80141566
C        0.69020690      -0.12055740      -0.04206457
C        0.08947726      -0.78659581      -1.12320455
C       -0.74159540      -0.18639536       0.08926062
O       -1.32387516      -0.91827882       1.09589301
C       -1.22602165       1.20087509      -0.31760852
O       -0.21869278       1.64197238      -1.13368411
H        2.76680061      -0.52223220       0.22493802
H        1.68545633      -1.04573996       1.54335191
H        2.04832915       0.66434742       1.34777527
H       -0.16802266       0.06067536      -1.93216289
H        0.33224932      -1.80699139      -1.39276030
H       -2.27722269      -0.86746619       0.99388598
H       -2.22133334       1.21069387      -0.79718896
H       -1.31552555       1.74094337       0.64215342
15
Frame=5 idx=010866 GeodesicLength=0.48131997220850764 rxn_smarts="[C:1]([C@@:2]12[C:3]([H:11])([H:12])[C@:4]1([O:5][H:13])[C:6]([H:14])([H:15])[O:7]2)([H:8])([H:9])[H:10]>>[C:1]([C:2]1=[C:3]([H:12])[C@:4]1([O:5][H:13])[C:6]([O:7][H:11])([H:14])[H:15])([H:8])([H:9])[H:10]"
C        1.88197864      -0.25749136       0.79835751
C        0.68701071      -0.12169745      -0.04024310
C        0.07899512      -0.79549594      -1.11268548
C       -0.74772824      -0.19154094       0.09120473
O       -1.33693372      -0.91536960       1.10084885
C       -1.21986126       1.20157572      -0.31053641
O       -0.19842569       1.62447135      -1.12784719
H        2.76816562      -0.50687988       0.21697046
H        1.69884839      -1.04026186       1.54031590
H        2.04654578       0.67426573       1.34223082
H       -0.16454588       0.08049920      -1.93310935
H        0.30934900      -1.81936777      -1.37846799
H       -2.28752757      -0.90054042       0.96688255
H       -2.21058276       1.21865025      -0.79772092
H       -1.30528815       1.74918298       0.64379963
15
Frame=6 idx=010866 GeodesicLength=0.5777419196496912 rxn_smarts="[C:1]([C@@:2]12[C:3]([H:11])([H:12])[C@:4]1([O:5][H:13])[C:6]([H:14])([H:15])[O:7]2)([H:8])([H:9])[H:10]>>[C:1]([C:2]1=[C:3]([H:12])[C@:4]1([O:5][H:13])[C:6]([O:7][H:11])([H:14])[H:15])([H:8])([H:9])[H:10]"
C        1.88401419      -0.24987126       0.79532638
C        0.68378127      -0.12297911      -0.03843823
C        0.06865258      -0.80449942      -1.10208096
C       -0.75392643      -0.19658378       0.09297885
O       -1.35056489      -0.91238687       1.10521962
C       -1.21375360       1.20221794      -0.30362212
O       -0.17833690       1.60727082      -1.12154986
H        2.76929409      -0.49168128       0.20908101
H        1.71203504      -1.03484253       1.53720924
H        2.04454905       0.68399737       1.33675690
H       -0.16120425       0.10056945      -1.93436638
H        0.28662760      -1.83166107      -1.36409011
H       -2.29624082      -0.93334793       0.94095310
H       -2.19967708       1.22644921      -0.79855520
H       -1.29524984       1.75734845       0.64517775
15
Frame=7 idx=010866 GeodesicLength=0.6742761941998159 rxn_smarts="[C:1]([C@@:2]12[C:3]([H:11])([H:12])[C@:4]1([O:5][H:13])[C:6]([H:14])([H:15])[O:7]2)([H:8])([H:9])[H:10]>>[C:1]([C:2]1=[C:3]([H:12])[C@:4]1([O:5][H:13])[C:6]([O:7][H:11])([H:14])[H:15])([H:8])([H:9])[H:10]"
C        1.88588752      -0.24238367       0.79231133
C        0.68051334      -0.12442057      -0.03664531
C        0.05843579      -0.81363395      -1.09137775
C       -0.76019676      -0.20153686       0.09458373
O       -1.36475504      -0.90933559       1.10901622
C       -1.20769802       1.20279219      -0.29685984
O       -0.15839207       1.59034495      -1.11477881
H        2.77019371      -0.47662377       0.20124834
H        1.72504654      -1.02947145       1.53403106
H        2.04234529       0.69355615       1.33133233
H       -0.15795254       0.12098244      -1.93594215
H        0.26406535      -1.84389805      -1.34962148
H       -2.30347476      -0.96589848       0.91610936
H       -2.18860268       1.23409454      -0.79969954
H       -1.28541569       1.76543212       0.64629252
15
Frame=8 idx=010866 GeodesicLength=0.7709577763419522 rxn_smarts="[C:1]([C@@:2]12[C:3]([H:11])([H:12])[C@:4]1([O:5][H:13])[C:6]([H:14])([H:15])[O:7]2)([H:8])([H:9])[H:10]>>[C:1]([C:2]1=[C:3]([H:12])[C@:4]1([O:5][H:13])[C:6]([O:7][H:11])([H:14])[H:15])([H:8])([H:9])[H:10]"
C        1.88760636      -0.23502594       0.78930282
C        0.67720081      -0.12603880      -0.03486170
C        0.04833103      -0.82292849      -1.08056053
C       -0.76654764      -0.20641009       0.09601740
O       -1.37949003      -0.90621265       1.11225494
C       -1.20169529       1.20329244      -0.29024778
O       -0.13856845       1.57367322      -1.10752819
H        2.77086940      -0.46169884       0.19345506
H        1.73790653      -1.02414342       1.53078039
H        2.03993809       0.70295130       1.32593984
H       -0.15474219       0.14184116      -1.93784504
H        0.24164473      -1.85610851      -1.33505566
H       -2.30931314      -0.99820841       0.89236198
H       -2.17735048       1.24158806      -0.80116005
H       -1.27578972       1.77342898       0.64714653
15
Frame=9 idx=010866 GeodesicLength=0.8677452740036746 rxn_smarts="[C:1]([C@@:2]12[C:3]([H:11])([H:12])[C@:4]1([O:5][H:13])[C:6]([H:14])([H:15])[O:7]2)([H:8])([H:9])[H:10]>>[C:1]([C:2]1=[C:3]([H:12])[C@:4]1([O:5][H:13])[C:6]([O:7][H:11])([H:14])[H:15])([H:8])([H:9])[H:10]"
C        1.88919245      -0.22779342       0.78629424
C        0.67384761      -0.12784715      -0.03306118
C        0.03832906      -0.83240087      -1.06958656
C       -0.77298243      -0.21120636       0.09730514
O       -1.39469953      -0.90297161       1.11505470
C       -1.19574699       1.20371724      -0.28376286
O       -0.11885990       1.55723970      -1.09989197
H        2.77132889      -0.44690661       0.18567677
H        1.75066303      -1.01884614       1.52746149
H        2.03735291       0.71219147       1.32055991
H       -0.15158011       0.16319798      -1.94006365
H        0.21934573      -1.86832124      -1.32035527
H       -2.31390556      -1.03031668       0.86945504
H       -2.16595666       1.24891722      -0.80290965
H       -1.26632851       1.78134648       0.64782384
15
Frame=10 idx=010866 GeodesicLength=0.9646765074383257 rxn_smarts="[C:1]([C@@:2]12[C:3]([H:11])([H:12])[C@:4]1([O:5][H:13])[C:6]([H:14])([H:15])[O:7]2)([H:8])([H:9])[H:10]>>[C:1]([C:2]1=[C:3]([H:12])[C@:4]1([O:5][H:13])[C:6]([O:7][H:11])([H:14])[H:15])([H:8])([H:9])[H:10]"
C        1.89063566      -0.22068831       0.78327458
C        0.67044328      -0.12986003      -0.03125989
C        0.02842388      -0.84207503      -1.05846935
C       -0.77951090      -0.21594094       0.09841866
O       -1.41043579      -0.89963519       1.11732367
C       -1.18985430       1.20405423      -0.27742836
O       -0.09924578       1.54102512      -1.09176642
H        2.77156614      -0.43223633       0.17790322
H        1.76330558      -1.01358247       1.52406407
H        2.03457008       0.72127671       1.31518119
H       -0.14836790       0.18519388      -1.94261526
H        0.19715375      -1.88055642      -1.30554051
H       -2.31724495      -1.06223689       0.84766870
H       -2.15436646       1.25609689      -0.80498788
H       -1.25707227       1.78916479       0.64823359
15
Frame=11 idx=010866 GeodesicLength=1.0617371401412419 rxn_smarts="[C:1]([C@@:2]12[C:3]([H:11])([H:12])[C@:4]1([O:5][H:13])[C:6]([H:14])([H:15])[O:7]2)([H:8])([H:9])[H:10]>>[C:1]([C:2]1=[C:3]([H:12])[C@:4]1([O:5][H:13])[C:6]([O:7][H:11])([H:14])[H:15])([H:8])([H:9])[H:10]"
C        1.89194216      -0.21370777       0.78023411
C        0.66698407      -0.13209300      -0.02945013
C        0.01860821      -0.85197150      -1.04719416
C       -0.78614137      -0.22062586       0.09935832
O       -1.42668238      -0.89619935       1.11907234
C       -1.18402020       1.20429344      -0.27124106
O       -0.07970477       1.52500509      -1.08315277
H        2.77158156      -0.41767499       0.17011322
H        1.77586044      -1.00834900       1.52058021
H        2.03158855       0.73021086       1.30979302
H       -0.14506328       0.20791924      -1.94549519
H        0.17505408      -1.89283503      -1.29059826
H       -2.31941061      -1.09397272       0.82700042
H       -2.14257530       1.26312533      -0.80739809
H       -1.24802116       1.79687527       0.64837800
15
Frame=12 idx=010866 GeodesicLength=1.1589301799293206 rxn_smarts="[C:1]([C@@:2]12[C:3]([H:11])([H:12])[C@:4]1([O:5][H:13])[C:6]([H:14])([H:15])[O:7]2)([H:8])([H:9])[H:10]>>[C:1]([C:2]1=[C:3]([H:12])[C@:4]1([O:5][H:13])[C:6]([O:7][H:11])([H:14])[H:15])([H:8])([H:9])[H:10]"
C        1.89311881      -0.20684884       0.77716492
C        0.66346606      -0.13456380      -0.02762603
C        0.00887471      -0.86211448      -1.03574692
C       -0.79287999      -0.22527531       0.10012155
O       -1.44342657      -0.89266448       1.12030225
C       -1.17824813       1.20442170      -0.26520180
O       -0.06022627       1.50914997      -1.07406145
H        2.77137715      -0.40320694       0.16228889
H        1.78835309      -1.00314307       1.51700413
H        2.02840529       0.73899930       1.30438566
H       -0.14161509       0.23147837      -1.94869448
H        0.15303343      -1.90518225      -1.27552050
H       -2.32048195      -1.12551297       0.80745859
H       -2.13058060       1.26999449      -0.81013912
H       -1.23916993       1.80446830       0.64826429
15
Frame=13 idx=010866 GeodesicLength=1.2562631455793267 rxn_smarts="[C:1]([C@@:2]12[C:3]([H:11])([H:12])[C@:4]1([O:5][H:13])[C:6]([H:14])([H:15])[O:7]2)([H:8])([H:9])[H:10]>>[C:1]([C:2]1=[C:3]([H:12])[C@:4]1([O:5][H:13])[C:6]([O:7][H:11])([H:14])[H:15])([H:8])([H:9])[H:10]"
C        1.89416619      -0.20011211       0.77405970
C        0.65988488      -0.13728771      -0.02578303
C       -0.00078107      -0.87252439      -1.02411546
C       -0.79973437      -0.22990232       0.10069875
O       -1.46065713      -0.88902643       1.12102037
C       -1.17254337       1.20442742      -0.25931388
O       -0.04079832       1.49343610      -1.06450725
H        2.77094792      -0.38882319       0.15441438
H        1.80079859      -0.99796325       1.51332747
H        2.02501235       0.74764149       1.29895072
H       -0.13796568       0.25598601      -1.95220463
H        0.13107838      -1.91761972      -1.26029693
H       -2.32051461      -1.15686418       0.78907321
H       -2.11837974       1.27669580      -0.81321423
H       -1.23051402       1.81193645       0.64789082
15
Frame=14 idx=010866 GeodesicLength=1.3536906273566869 rxn_smarts="[C:1]([C@@:2]12[C:3]([H:11])([H:12])[C@:4]1([O:5][H:13])[C:6]([H:14])([H:15])[O:7]2)([H:8])([H:9])[H:10]>>[C:1]([C:2]1=[C:3]([H:12])[C@:4]1([O:5][H:13])[C:6]([O:7][H:11])([H:14])[H:15])([H:8])([H:9])[H:10]"
C        1.89508496      -0.19349746       0.77091255
C        0.65623560      -0.14028124      -0.02391715
C       -0.01036354      -0.88321844      -1.01229320
C       -0.80671252      -0.23451967       0.10107928
O       -1.47836650      -0.88528850       1.12121885
C       -1.16690892       1.20430042      -0.25358013
O       -0.02141464       1.47783674      -1.05450361
H        2.77029163      -0.37451413       0.14647844
H        1.81321115      -0.99280837       1.50954471
H        2.02140251       0.75613876       1.29348207
H       -0.13406307       0.28154159      -1.95601060
H        0.10918076      -1.93016595      -1.24492832
H       -2.31955458      -1.18801251       0.77188572
H       -2.10597334       1.28322045      -0.81663078
H       -1.22204950       1.81926832       0.64726217
15
Frame=15 idx=010866 GeodesicLength=1.4511895438831495 rxn_smarts="[C:1]([C@@:2]12[C:3]([H:11])([H:12])[C@:4]1([O:5][H:13])[C:6]([H:14])([H:15])[O:7]2)([H:8])([H:9])[H:10]>>[C:1]([C:2]1=[C:3]([H:12])[C@:4]1([O:5][H:13])[C:6]([O:7][H:11])([H:14])[H:15])([H:8])([H:9])[H:10]"
C        1.89587471      -0.18700380       0.76771605
C        0.65251336      -0.14356044      -0.02202514
C       -0.01987612      -0.89421703      -1.00027264
C       -0.81381982      -0.23914053       0.10124986
O       -1.49655116      -0.88145846       1.12089206
C       -1.16134877       1.20402797      -0.24800538
O       -0.00207330       1.46231823      -1.04406411
H        2.76940182      -0.36026929       0.13846624
H        1.82560402      -0.98767548       1.50565071
H        2.01756768       0.76449449       1.28796971
H       -0.12984303       0.30825872      -1.96008897
H        0.08732906      -1.94284162      -1.22941401
H       -2.31765040      -1.21894488       0.75593880
H       -2.09335636       1.28955801      -0.82038930
H       -1.21377169       1.82645411       0.64637613
15
Frame=16 idx=010866 GeodesicLength=1.5487447124498848 rxn_smarts="[C:1]([C@@:2]12[C:3]([H:11])([H:12])[C@:4]1([O:5][H:13])[C:6]([H:14])([H:15])[O:7]2)([H:8])([H:9])[H:10]>>[C:1]([C:2]1=[C:3]([H:12])[C@:4]1([O:5][H:13])[C:6]([O:7][H:11])([H:14])[H:15])([H:8])([H:9])[H:10]"
C        1.89653062      -0.18063466       0.76446578
C        0.64871319      -0.14714091      -0.02010539
C       -0.02932031      -0.90553889      -0.98804726
C       -0.82106492      -0.24377779       0.10119081
O       -1.51520832      -0.87753548       1.12003007
C       -1.15586923       1.20359917      -0.24259827
O        0.01722806       1.44685750      -1.03322020
H        2.76826969      -0.34608929       0.13037068
H        1.83798035      -0.98256290       1.50164143
H        2.01349662       0.77270602       1.28240622
H       -0.12524296       0.33626571      -1.96441765
H        0.06551610      -1.95566697      -1.21375271
H       -2.31482262      -1.24966106       0.74129929
H       -2.08053301       1.29569725      -0.82449744
H       -1.20567324       1.83348230       0.64523464
