13
Frame=0 idx=002294 GeodesicLength=0.0 rxn_smarts="[C:1]([C:2]1([H:9])[C:3]([H:10])([H:11])[O:4][C:5]1([H:12])[H:13])([H:6])([H:7])[H:8]>>[C:1]([C@@:2]1([H:9])[C:3]([H:10])([H:11])[O+:4]=[C-:5]1)([H:6])([H:7])[H:8].[H:12][H:13]"
C       -1.27253030      -0.98873954      -0.07523902
C       -0.13954050      -0.08969651       0.38878675
C        1.22056673      -0.34736474      -0.27401143
O        1.02117363       0.82001030      -1.10030851
C       -0.07851174       1.22143487      -0.41701788
H       -2.23330280      -0.59846569       0.26260639
H       -1.15500662      -1.99848473       0.32443113
H       -1.30241532      -1.05298416      -1.16534485
H       -0.12402116      -0.00693884       1.47300775
H        1.34183459      -1.25378029      -0.87084275
H        2.08283696      -0.19237302       0.38214227
H        0.61687556       2.15931965       0.87750613
H        0.02204099       2.32806272       0.19428405
13
Frame=1 idx=002294 GeodesicLength=0.05989877709885332 rxn_smarts="[C:1]([C:2]1([H:9])[C:3]([H:10])([H:11])[O:4][C:5]1([H:12])[H:13])([H:6])([H:7])[H:8]>>[C:1]([C@@:2]1([H:9])[C:3]([H:10])([H:11])[O+:4]=[C-:5]1)([H:6])([H:7])[H:8].[H:12][H:13]"
C       -1.27138792      -0.98335352      -0.07240638
C       -0.12834646      -0.09506677       0.38646939
C        1.22924564      -0.36060454      -0.27789982
O        1.04771994       0.81977464      -1.08959290
C       -0.05854478       1.21767837      -0.41394573
H       -2.22715716      -0.58321738       0.26827526
H       -1.16254424      -1.99375891       0.32803410
H       -1.30532411      -1.04962968      -1.16227948
H       -0.10732167      -0.01371734       1.47095644
H        1.33663850      -1.26070070      -0.88701976
H        2.09416671      -0.22892926       0.37956851
H        0.57665340       2.18590352       0.87945443
H       -0.02379784       2.34562159       0.19038594
13
Frame=2 idx=002294 GeodesicLength=0.11968376865715355 rxn_smarts="[C:1]([C:2]1([H:9])[C:3]([H:10])([H:11])[O:4][C:5]1([H:12])[H:13])([H:6])([H:7])[H:8]>>[C:1]([C@@:2]1([H:9])[C:3]([H:10])([H:11])[O+:4]=[C-:5]1)([H:6])([H:7])[H:8].[H:12][H:13]"
C       -1.26993800      -0.97720817      -0.06932382
C       -0.11645596      -0.10050986       0.38451403
C        1.23826140      -0.37442110      -0.28187703
O        1.07567490       0.81953885      -1.07745340
C       -0.03717640       1.21423358      -0.40975593
H       -2.22033695      -0.56706025       0.27464949
H       -1.17010438      -1.98844217       0.33135313
H       -1.30830570      -1.04478997      -1.15897854
H       -0.08971306      -0.02083096       1.46925399
H        1.33110632      -1.26725292      -0.90412614
H        2.10561679      -0.26753372       0.37659416
H        0.53340107       2.21299764       0.88057948
H       -0.07203002       2.36127906       0.18457058
13
Frame=3 idx=002294 GeodesicLength=0.17928495130105068 rxn_smarts="[C:1]([C:2]1([H:9])[C:3]([H:10])([H:11])[O:4][C:5]1([H:12])[H:13])([H:6])([H:7])[H:8]>>[C:1]([C@@:2]1([H:9])[C:3]([H:10])([H:11])[O+:4]=[C-:5]1)([H:6])([H:7])[H:8].[H:12][H:13]"
C       -1.26816969      -0.97028603      -0.06597800
C       -0.10390069      -0.10603066       0.38300197
C        1.24756304      -0.38873903      -0.28592261
O        1.10490714       0.81927990      -1.06381537
C       -0.01440033       1.21117997      -0.40418023
H       -2.21283517      -0.55004668       0.28177552
H       -1.17765087      -1.98254825       0.33429775
H       -1.31134552      -1.03833285      -1.15543483
H       -0.07123655      -0.02837455       1.46798440
H        1.32522929      -1.27327992      -0.92211898
H        2.11709234      -0.30807189       0.37312977
H        0.48705264       2.24040603       0.88076524
H       -0.12230562       2.37484398       0.17649536
13
Frame=4 idx=002294 GeodesicLength=0.23867201448491376 rxn_smarts="[C:1]([C:2]1([H:9])[C:3]([H:10])([H:11])[O:4][C:5]1([H:12])[H:13])([H:6])([H:7])[H:8]>>[C:1]([C@@:2]1([H:9])[C:3]([H:10])([H:11])[O+:4]=[C-:5]1)([H:6])([H:7])[H:8].[H:12][H:13]"
C       -1.26605920      -0.96251802      -0.06233741
C       -0.09066897      -0.11159440       0.38195341
C        1.25712482      -0.40350666      -0.29005999
O        1.13548928       0.81904004      -1.04850862
C        0.00987057       1.20860125      -0.39705250
H       -2.20461978      -0.53211356       0.28966442
H       -1.18519085      -1.97597074       0.33696137
H       -1.31438181      -1.03019007      -1.15160814
H       -0.05188142      -0.03636277       1.46716264
H        1.31896655      -1.27856322      -0.94110019
H        2.12848524      -0.35062547       0.36910461
H        0.43751342       2.26790723       0.87980003
H       -0.17464785       2.38589639       0.16602035
13
Frame=5 idx=002294 GeodesicLength=0.2977841665924683 rxn_smarts="[C:1]([C:2]1([H:9])[C:3]([H:10])([H:11])[O:4][C:5]1([H:12])[H:13])([H:6])([H:7])[H:8]>>[C:1]([C@@:2]1([H:9])[C:3]([H:10])([H:11])[O+:4]=[C-:5]1)([H:6])([H:7])[H:8].[H:12][H:13]"
C       -1.26361311      -0.95394453      -0.05838892
C       -0.07683754      -0.11725074       0.38151471
C        1.26685743      -0.41859296      -0.29423658
O        1.16711767       0.81877921      -1.03149344
C        0.03555272       1.20655914      -0.38795398
H       -2.19570043      -0.51343733       0.29844569
H       -1.19265839      -1.96883953       0.33909429
H       -1.31745271      -1.02015369      -1.14749871
H       -0.03172236      -0.04503035       1.46694491
H        1.31232012      -1.28291147      -0.96094055
H        2.13968040      -0.39491072       0.36440539
H        0.38468759       2.29526106       0.87758907
H       -0.22823139       2.39447193       0.15251813
13
Frame=6 idx=002294 GeodesicLength=0.3566352650520511 rxn_smarts="[C:1]([C:2]1([H:9])[C:3]([H:10])([H:11])[O:4][C:5]1([H:12])[H:13])([H:6])([H:7])[H:8]>>[C:1]([C@@:2]1([H:9])[C:3]([H:10])([H:11])[O+:4]=[C-:5]1)([H:6])([H:7])[H:8].[H:12][H:13]"
C       -1.26081569      -0.94449037      -0.05409214
C       -0.06239955      -0.12297131       0.38172006
C        1.27673451      -0.43392341      -0.29847264
O        1.19985162       0.81854251      -1.01259120
C        0.06272520       1.20513505      -0.37666653
H       -2.18605166      -0.49394946       0.30815855
H       -1.20007991      -1.96104856       0.34078100
H       -1.32049918      -1.00811801      -1.14305501
H       -0.01075114      -0.05444818       1.46736096
H        1.30525706      -1.28606109      -0.98173377
H        2.15056989      -0.44097810       0.35893034
H        0.32846739       2.32218700       0.87384955
H       -0.28300854       2.40012392       0.13581082
13
Frame=7 idx=002294 GeodesicLength=0.4152877502184859 rxn_smarts="[C:1]([C:2]1([H:9])[C:3]([H:10])([H:11])[O:4][C:5]1([H:12])[H:13])([H:6])([H:7])[H:8]>>[C:1]([C@@:2]1([H:9])[C:3]([H:10])([H:11])[O+:4]=[C-:5]1)([H:6])([H:7])[H:8].[H:12][H:13]"
C       -1.25767156      -0.93414806      -0.04940908
C       -0.04739081      -0.12880890       0.38271751
C        1.28669751      -0.44939369      -0.30273310
O        1.23351918       0.81832104      -0.99169089
C        0.09138071       1.20438328      -0.36274832
H       -2.17565684      -0.47375167       0.31900875
H       -1.20742849      -1.95268581       0.34179175
H       -1.32356581      -0.99378351      -1.13825036
H        0.01100641      -0.06488556       1.46857080
H        1.29776599      -1.28778757      -1.00342638
H        2.16106728      -0.48865936       0.35253831
H        0.26866716       2.34846305       0.86831373
H       -0.33839074       2.40273674       0.11531727
13
Frame=8 idx=002294 GeodesicLength=0.4736652795564881 rxn_smarts="[C:1]([C:2]1([H:9])[C:3]([H:10])([H:11])[O:4][C:5]1([H:12])[H:13])([H:6])([H:7])[H:8]>>[C:1]([C@@:2]1([H:9])[C:3]([H:10])([H:11])[O+:4]=[C-:5]1)([H:6])([H:7])[H:8].[H:12][H:13]"
C       -1.25419368      -0.92294386      -0.04429868
C       -0.03189064      -0.13480108       0.38463711
C        1.29664016      -0.46481438      -0.30698687
O        1.26786186       0.81814832      -0.96866555
C        0.12143588       1.20433961      -0.34571417
H       -2.16452310      -0.45302985       0.33116657
H       -1.21465592      -1.94382209       0.34193692
H       -1.32668108      -0.97693531      -1.13301824
H        0.03348746      -0.07662169       1.47068703
H        1.28980555      -1.28775155      -1.02594501
H        2.17102569      -0.53769680       0.34509220
H        0.20523212       2.37371474       0.86067193
H       -0.39354430       2.40221393       0.09043677
13
Frame=9 idx=002294 GeodesicLength=0.5318756385935323 rxn_smarts="[C:1]([C:2]1([H:9])[C:3]([H:10])([H:11])[O:4][C:5]1([H:12])[H:13])([H:6])([H:7])[H:8]>>[C:1]([C@@:2]1([H:9])[C:3]([H:10])([H:11])[O+:4]=[C-:5]1)([H:6])([H:7])[H:8].[H:12][H:13]"
C       -1.25040114      -0.91085071      -0.03870499
C       -0.01594908      -0.14095591       0.38757393
C        1.30650329      -0.48003858      -0.31124253
O        1.30277438       0.81809511      -0.94339572
C        0.15289486       1.20509657      -0.32514596
H       -2.15267158      -0.43181222       0.34475447
H       -1.22180654      -1.93445082       0.34120318
H       -1.32981234      -0.95739486      -1.12729654
H        0.05662654      -0.08989507       1.47381281
H        1.28137866      -1.28562898      -1.04932112
H        2.18033025      -0.58793737       0.33642948
H        0.13815274       2.39760043       0.85047980
H       -0.44802004       2.39817239       0.06085318
13
Frame=10 idx=002294 GeodesicLength=0.5898696236894021 rxn_smarts="[C:1]([C:2]1([H:9])[C:3]([H:10])([H:11])[O:4][C:5]1([H:12])[H:13])([H:6])([H:7])[H:8]>>[C:1]([C@@:2]1([H:9])[C:3]([H:10])([H:11])[O+:4]=[C-:5]1)([H:6])([H:7])[H:8].[H:12][H:13]"
C       -1.24636496      -0.89802803      -0.03261409
C        0.00021092      -0.14735988       0.39170883
C        1.31612305      -0.49475349      -0.31540813
O        1.33761921       0.81821447      -0.91595648
C        0.18540560       1.20665943      -0.30042922
H       -2.14023706      -0.41054104       0.35995186
H       -1.22877953      -1.92483086       0.33922665
H       -1.33301005      -0.93499140      -1.12104147
H        0.08016820      -0.10513200       1.47811546
H        1.27249041      -1.28108549      -1.07325913
H        2.18886709      -0.63871313       0.32640531
H        0.06802099       2.41981359       0.83720645
H       -0.50051387       2.39074784       0.02609396
13
Frame=11 idx=002294 GeodesicLength=0.6474348668711012 rxn_smarts="[C:1]([C:2]1([H:9])[C:3]([H:10])([H:11])[O:4][C:5]1([H:12])[H:13])([H:6])([H:7])[H:8]>>[C:1]([C@@:2]1([H:9])[C:3]([H:10])([H:11])[O+:4]=[C-:5]1)([H:6])([H:7])[H:8].[H:12][H:13]"
C       -1.24212455      -0.88441787      -0.02599088
C        0.01652119      -0.15393499       0.39702041
C        1.32537156      -0.50866486      -0.31947130
O        1.37221375       0.81861680      -0.88619495
C        0.21890687       1.20902302      -0.27124505
H       -2.12723880      -0.38914924       0.37661004
H       -1.23572350      -1.91472048       0.33622583
H       -1.33621266      -0.90976208      -1.11411298
H        0.10405884      -0.12243785       1.48348238
H        1.26306151      -1.27360711      -1.09771035
H        2.19648650      -0.68958066       0.31484888
H       -0.00471897       2.43967741       0.82025076
H       -0.55060172       2.37895791      -0.01371279
13
Frame=12 idx=002294 GeodesicLength=0.7049712580232327 rxn_smarts="[C:1]([C:2]1([H:9])[C:3]([H:10])([H:11])[O:4][C:5]1([H:12])[H:13])([H:6])([H:7])[H:8]>>[C:1]([C@@:2]1([H:9])[C:3]([H:10])([H:11])[O+:4]=[C-:5]1)([H:6])([H:7])[H:8].[H:12][H:13]"
C       -1.23778146      -0.87023185      -0.01870744
C        0.03277149      -0.16082516       0.40375807
C        1.33412415      -0.52150236      -0.32344249
O        1.40617642       0.81962101      -0.85391357
C        0.25302045       1.21219488      -0.23688313
H       -2.11384270      -0.36813568       0.39521063
H       -1.24254200      -1.90452822       0.33185971
H       -1.33953485      -0.88145332      -1.10638070
H        0.12807509      -0.14241568       1.49018048
H        1.25309359      -1.26273436      -1.12272035
H        2.20307964      -0.74025510       0.30154734
H       -0.07987583       2.45707433       0.79891670
H       -0.59676398       2.36319150      -0.05942525
13
Frame=13 idx=002294 GeodesicLength=0.7625349130219468 rxn_smarts="[C:1]([C:2]1([H:9])[C:3]([H:10])([H:11])[O:4][C:5]1([H:12])[H:13])([H:6])([H:7])[H:8]>>[C:1]([C@@:2]1([H:9])[C:3]([H:10])([H:11])[O+:4]=[C-:5]1)([H:6])([H:7])[H:8].[H:12][H:13]"
C       -1.23347278      -0.85560766      -0.01070168
C        0.04873376      -0.16806825       0.41201998
C        1.34221625      -0.53284007      -0.32726424
O        1.43904148       0.82151661      -0.81888983
C        0.28726072       1.21605688      -0.19688987
H       -2.10025058      -0.34785610       0.41585259
H       -1.24926587      -1.89435779       0.32599599
H       -1.34307019      -0.85003272      -1.09767057
H        0.15198878      -0.16542362       1.49820386
H        1.24254074      -1.24786063      -1.14811265
H        2.20858059      -0.79009047       0.28627943
H       -0.15634454       2.47167262       0.77221613
H       -0.63795836       2.34289119      -0.11103914
13
Frame=14 idx=002294 GeodesicLength=0.8202641607227221 rxn_smarts="[C:1]([C:2]1([H:9])[C:3]([H:10])([H:11])[O:4][C:5]1([H:12])[H:13])([H:6])([H:7])[H:8]>>[C:1]([C@@:2]1([H:9])[C:3]([H:10])([H:11])[O+:4]=[C-:5]1)([H:6])([H:7])[H:8].[H:12][H:13]"
C       -1.22925257      -0.84075147      -0.00170088
C        0.06424209      -0.17570452       0.42196078
C        1.34934684      -0.54224058      -0.33104256
O        1.47083129       0.82489490      -0.77993886
C        0.32112396       1.22044652      -0.15068444
H       -2.08645129      -0.32875904       0.43901587
H       -1.25577433      -1.88436633       0.31867215
H       -1.34693911      -0.81553149      -1.08753831
H        0.17574567      -0.19182785       1.50754209
H        1.23107836      -1.22770681      -1.17441457
H        2.21246632      -0.83917177       0.26865097
H       -0.23404945       2.48284324       0.73904214
H       -0.67236778       2.31787520      -0.16956437
13
Frame=15 idx=002294 GeodesicLength=0.8780466361111627 rxn_smarts="[C:1]([C:2]1([H:9])[C:3]([H:10])([H:11])[O:4][C:5]1([H:12])[H:13])([H:6])([H:7])[H:8]>>[C:1]([C@@:2]1([H:9])[C:3]([H:10])([H:11])[O+:4]=[C-:5]1)([H:6])([H:7])[H:8].[H:12][H:13]"
C       -1.22550607      -0.82641539       0.00794023
C        0.07850215      -0.18352449       0.43308318
C        1.35530784      -0.54903862      -0.33455806
O        1.50026194       0.82987919      -0.73814170
C        0.35284096       1.22511127      -0.09986963
H       -2.07334518      -0.31163659       0.46343969
H       -1.26210493      -1.87500249       0.31041068
H       -1.35108873      -0.77982421      -1.07630388
H        0.19826271      -0.22082363       1.51760796
H        1.21915719      -1.20244777      -1.20047488
H        2.21479912      -0.88529542       0.24901384
H       -0.30756048       2.49082761       0.69942757
H       -0.69952651       2.28819055      -0.23157498
13
Frame=16 idx=002294 GeodesicLength=0.9363116091633481 rxn_smarts="[C:1]([C:2]1([H:9])[C:3]([H:10])([H:11])[O:4][C:5]1([H:12])[H:13])([H:6])([H:7])[H:8]>>[C:1]([C@@:2]1([H:9])[C:3]([H:10])([H:11])[O+:4]=[C-:5]1)([H:6])([H:7])[H:8].[H:12][H:13]"
C       -1.22230685      -0.81272987       0.01842744
C        0.09143745      -0.19147176       0.44527336
C        1.35993683      -0.55298715      -0.33794104
O        1.52766317       0.83671148      -0.69250775
C        0.38181489       1.22976952      -0.04495094
H       -2.06094896      -0.29664883       0.48933814
H       -1.26815823      -1.86624442       0.30159638
H       -1.35576542      -0.74319638      -1.06364116
H        0.21961258      -0.25223462       1.52812596
H        1.20662810      -1.17110110      -1.22665757
H        2.21522914      -0.92863527       0.22712007
H       -0.37655946       2.49495935       0.65308333
H       -0.71858326       2.25380905      -0.29726622
