13
Frame=0 idx=009302 GeodesicLength=0.0 rxn_smarts="[C:1]([O:2][C:3](=[O:4])[C:5]([C:6](=[O:7])[H:13])([H:11])[H:12])([H:8])([H:9])[H:10]>>[C:1]([O:2][C@:3]1([O+:7]=[C-:6][H:13])[O:4][C:5]1([H:11])[H:12])([H:8])([H:9])[H:10]"
C       -2.01527408       0.16646327       0.52107831
O       -0.72780257      -0.43710328       0.61013081
C        0.13702938      -0.05593009      -0.35397303
O       -0.24675526       0.15220113      -1.55466959
C        1.14910691      -0.93981075      -0.86818040
C        2.08249331       0.46686669       0.75334536
O        1.04844136       1.07609696       0.39264824
H       -2.49661191      -0.08276371      -0.42496684
H       -2.58882042      -0.23728689       1.35145745
H       -1.94338166       1.25219404       0.62022350
H        1.95508863      -0.51699662      -1.43744817
H        0.93303349      -1.99835026      -0.96191134
H        2.71345282       1.15441947       1.35226568
13
Frame=1 idx=009302 GeodesicLength=0.08609908538817576 rxn_smarts="[C:1]([O:2][C:3](=[O:4])[C:5]([C:6](=[O:7])[H:13])([H:11])[H:12])([H:8])([H:9])[H:10]>>[C:1]([O:2][C@:3]1([O+:7]=[C-:6][H:13])[O:4][C:5]1([H:11])[H:12])([H:8])([H:9])[H:10]"
C       -2.04305217       0.14833498       0.50265925
O       -0.74280931      -0.42049537       0.62060202
C        0.13272015      -0.02827761      -0.32842903
O       -0.23066522       0.20372029      -1.53095200
C        1.13998644      -0.91595646      -0.84807114
C        2.11527021       0.44520965       0.74762203
O        1.07536240       1.08024832       0.45798634
H       -2.50811926      -0.13862958      -0.44090332
H       -2.61603318      -0.24718376       1.33737867
H       -2.00044460       1.23772449       0.57290041
H        1.94652691      -0.51919230      -1.43604193
H        0.91756040      -1.97456464      -0.92603967
H        2.81369721       1.12906198       1.27128835
13
Frame=2 idx=009302 GeodesicLength=0.17129085884217687 rxn_smarts="[C:1]([O:2][C:3](=[O:4])[C:5]([C:6](=[O:7])[H:13])([H:11])[H:12])([H:8])([H:9])[H:10]>>[C:1]([O:2][C@:3]1([O+:7]=[C-:6][H:13])[O:4][C:5]1([H:11])[H:12])([H:8])([H:9])[H:10]"
C       -2.06899978       0.13022573       0.48391590
O       -0.75735186      -0.40270425       0.63234821
C        0.12907135       0.00003033      -0.30117530
O       -0.21404365       0.25671134      -1.50451580
C        1.13051177      -0.89181782      -0.82756941
C        2.14836228       0.42447806       0.74033232
O        1.10465431       1.08121041       0.52587670
H       -2.51524108      -0.19380017      -0.45680840
H       -2.64315598      -0.25697907       1.32171775
H       -2.05527054       1.22172141       0.52494342
H        1.93632430      -0.52211599      -1.43490756
H        0.90127565      -1.95012545      -0.88999470
H        2.90386323       1.10316547       1.18583686
13
Frame=3 idx=009302 GeodesicLength=0.2557142749808492 rxn_smarts="[C:1]([O:2][C:3](=[O:4])[C:5]([C:6](=[O:7])[H:13])([H:11])[H:12])([H:8])([H:9])[H:10]>>[C:1]([O:2][C@:3]1([O+:7]=[C-:6][H:13])[O:4][C:5]1([H:11])[H:12])([H:8])([H:9])[H:10]"
C       -2.09296271       0.11221677       0.46484213
O       -0.77145156      -0.38369889       0.64531740
C        0.12608477       0.02890417      -0.27228807
O       -0.19693294       0.31100990      -1.47540161
C        1.12060107      -0.86749545      -0.80682947
C        2.18160546       0.40440215       0.73132094
O        1.13658820       1.07841898       0.59597924
H       -2.51795064      -0.24814962      -0.47257094
H       -2.67000227      -0.26662723       1.30448202
H       -2.10746738       1.20428876       0.47625580
H        1.92420096      -0.52582153      -1.43423519
H        0.88415473      -1.92515393      -0.85381752
H        2.98353231       1.07770591       1.09694527
13
Frame=4 idx=009302 GeodesicLength=0.33962548883567584 rxn_smarts="[C:1]([O:2][C:3](=[O:4])[C:5]([C:6](=[O:7])[H:13])([H:11])[H:12])([H:8])([H:9])[H:10]>>[C:1]([O:2][C@:3]1([O+:7]=[C-:6][H:13])[O:4][C:5]1([H:11])[H:12])([H:8])([H:9])[H:10]"
C       -2.11483471       0.09428388       0.44545726
O       -0.78497933      -0.36293554       0.65966103
C        0.12376352       0.05856782      -0.24191665
O       -0.17953394       0.36655956      -1.44374887
C        1.11005550      -0.84293814      -0.78608570
C        2.21478686       0.38465150       0.72045044
O        1.17174218       1.07175853       0.66735123
H       -2.51613448      -0.30235834      -0.48781078
H       -2.69624863      -0.27599193       1.28592062
H       -2.15716122       1.18541287       0.42613723
H        1.90980209      -0.53025674      -1.43428560
H        0.86599236      -1.89962212      -0.81751282
H        3.05274980       1.05286865       1.00638260
13
Frame=5 idx=009302 GeodesicLength=0.4230679109502397 rxn_smarts="[C:1]([O:2][C:3](=[O:4])[C:5]([C:6](=[O:7])[H:13])([H:11])[H:12])([H:8])([H:9])[H:10]>>[C:1]([O:2][C@:3]1([O+:7]=[C-:6][H:13])[O:4][C:5]1([H:11])[H:12])([H:8])([H:9])[H:10]"
C       -2.13444342       0.07678979       0.42542379
O       -0.79864415      -0.34188272       0.67496804
C        0.12224002       0.08785918      -0.20934046
O       -0.16098115       0.42336782      -1.40864095
C        1.09897264      -0.81885548      -0.76494917
C        2.24872111       0.36553858       0.70640750
O        1.20929492       1.05770691       0.74320307
H       -2.50982115      -0.35427585      -0.50341977
H       -2.72249664      -0.28476407       1.26502241
H       -2.20283178       1.16547178       0.37547026
H        1.89257404      -0.53591512      -1.43499956
H        0.84685444      -1.87412893      -0.78116992
H        3.11056112       1.03308811       0.91202477
13
Frame=6 idx=009302 GeodesicLength=0.5060464692376886 rxn_smarts="[C:1]([O:2][C:3](=[O:4])[C:5]([C:6](=[O:7])[H:13])([H:11])[H:12])([H:8])([H:9])[H:10]>>[C:1]([O:2][C@:3]1([O+:7]=[C-:6][H:13])[O:4][C:5]1([H:11])[H:12])([H:8])([H:9])[H:10]"
C       -2.15164612       0.05973771       0.40516210
O       -0.81192339      -0.31951899       0.69133099
C        0.12137955       0.11728562      -0.17548602
O       -0.14212298       0.48060794      -1.37114621
C        1.08727104      -0.79495685      -0.74409665
C        2.28202549       0.34666106       0.68994103
O        1.25019739       1.03773312       0.81962407
H       -2.49925842      -0.40510444      -0.51824442
H       -2.74787063      -0.29283565       1.24280003
H       -2.24471955       1.14455381       0.32363214
H        1.87261598      -0.54227904      -1.43664706
H        0.82699802      -1.84855613      -0.74486297
H        3.15705364       1.01667183       0.81799297
13
Frame=7 idx=009302 GeodesicLength=0.5885743947373658 rxn_smarts="[C:1]([O:2][C:3](=[O:4])[C:5]([C:6](=[O:7])[H:13])([H:11])[H:12])([H:8])([H:9])[H:10]>>[C:1]([O:2][C@:3]1([O+:7]=[C-:6][H:13])[O:4][C:5]1([H:11])[H:12])([H:8])([H:9])[H:10]"
C       -2.16629404       0.04328623       0.38471768
O       -0.82489170      -0.29602591       0.70856287
C        0.12117053       0.14655750      -0.14047774
O       -0.12293103       0.53781854      -1.33143037
C        1.07497054      -0.77137878      -0.72358122
C        2.31425539       0.32796435       0.67116351
O        1.29434592       1.01104610       0.89604757
H       -2.48462717      -0.45454348      -0.53208600
H       -2.77218964      -0.29991044       1.21928887
H       -2.28225084       1.12283441       0.27067373
H        1.84977259      -0.54923214      -1.43914385
H        0.80660534      -1.82303972      -0.70864605
H        3.19206411       1.00462333       0.72491101
13
Frame=8 idx=009302 GeodesicLength=0.6708254977150971 rxn_smarts="[C:1]([O:2][C:3](=[O:4])[C:5]([C:6](=[O:7])[H:13])([H:11])[H:12])([H:8])([H:9])[H:10]>>[C:1]([O:2][C@:3]1([O+:7]=[C-:6][H:13])[O:4][C:5]1([H:11])[H:12])([H:8])([H:9])[H:10]"
C       -2.17832910       0.02741469       0.36424241
O       -0.83746899      -0.27099073       0.72667257
C        0.12156290       0.17580142      -0.10462773
O       -0.10366167       0.59464788      -1.28993482
C        1.06200199      -0.74800654      -0.70361417
C        2.34485616       0.30928546       0.65036505
O        1.34185545       0.97793139       0.97091544
H       -2.46603888      -0.50323805      -0.54429487
H       -2.79517090      -0.30567034       1.19487791
H       -2.31544294       1.10021034       0.21606760
H        1.82397798      -0.55636828      -1.44246176
H        0.78571490      -1.79749378      -0.67268480
H        3.21614310       0.99647651       0.63447719
13
Frame=9 idx=009302 GeodesicLength=0.7529367531643196 rxn_smarts="[C:1]([O:2][C:3](=[O:4])[C:5]([C:6](=[O:7])[H:13])([H:11])[H:12])([H:8])([H:9])[H:10]>>[C:1]([O:2][C@:3]1([O+:7]=[C-:6][H:13])[O:4][C:5]1([H:11])[H:12])([H:8])([H:9])[H:10]"
C       -2.18766907       0.01289240       0.34363722
O       -0.85008129      -0.24620650       0.74497775
C        0.12274262       0.20345101      -0.06769498
O       -0.08358216       0.65016245      -1.24630981
C        1.04882575      -0.72589283      -0.68394332
C        2.37431489       0.29162174       0.62626600
O        1.39192588       0.93425017       1.04623678
H       -2.44437791      -0.54898021      -0.55541368
H       -2.81712604      -0.30900185       1.16916202
H       -2.34256562       1.07776868       0.16087564
H        1.79527284      -0.56434318      -1.44647877
H        0.76509598      -1.77299844      -0.63686176
H        3.22722412       0.99727657       0.54554690
13
Frame=10 idx=009302 GeodesicLength=0.8349336003919205 rxn_smarts="[C:1]([O:2][C:3](=[O:4])[C:5]([C:6](=[O:7])[H:13])([H:11])[H:12])([H:8])([H:9])[H:10]>>[C:1]([O:2][C@:3]1([O+:7]=[C-:6][H:13])[O:4][C:5]1([H:11])[H:12])([H:8])([H:9])[H:10]"
C       -2.19435961      -0.00085118       0.32348291
O       -0.86215111      -0.22006099       0.76365927
C        0.12439126       0.23071422      -0.03083900
O       -0.06389029       0.70397455      -1.20219119
C        1.03524310      -0.70406149      -0.66524066
C        2.40105631       0.27416164       0.60080984
O        1.44483825       0.88458682       1.11680833
H       -2.41979261      -0.59407727      -0.56378332
H       -2.83727219      -0.31024239       1.14336740
H       -2.36476864       1.05460493       0.10423300
H        1.76410620      -0.57181485      -1.45111194
H        0.74462816      -1.74864998      -0.60183732
H        3.22797117       1.00171598       0.46264269
13
Frame=11 idx=009302 GeodesicLength=0.9169183768687926 rxn_smarts="[C:1]([O:2][C:3](=[O:4])[C:5]([C:6](=[O:7])[H:13])([H:11])[H:12])([H:8])([H:9])[H:10]>>[C:1]([O:2][C@:3]1([O+:7]=[C-:6][H:13])[O:4][C:5]1([H:11])[H:12])([H:8])([H:9])[H:10]"
C       -2.19852407      -0.01380422       0.30396366
O       -0.87373527      -0.19287960       0.78236846
C        0.12639381       0.25740499       0.00558375
O       -0.04477189       0.75563974      -1.15815582
C        1.02141032      -0.68250762      -0.64756257
C        2.42484939       0.25708058       0.57429091
O        1.49993155       0.82963129       1.18164636
H       -2.39291291      -0.63850856      -0.56897012
H       -2.85561137      -0.30905809       1.11776123
H       -2.38186892       1.03062739       0.04631523
H        1.73078391      -0.57851557      -1.45621152
H        0.72461990      -1.72448128      -0.56780038
H        3.21943555       1.00937095       0.38677080
13
Frame=12 idx=009302 GeodesicLength=0.9990463038507016 rxn_smarts="[C:1]([O:2][C:3](=[O:4])[C:5]([C:6](=[O:7])[H:13])([H:11])[H:12])([H:8])([H:9])[H:10]>>[C:1]([O:2][C@:3]1([O+:7]=[C-:6][H:13])[O:4][C:5]1([H:11])[H:12])([H:8])([H:9])[H:10]"
C       -2.20041002      -0.02601103       0.28520895
O       -0.88495134      -0.16493147       0.80084466
C        0.12863552       0.28341894       0.04132302
O       -0.02633592       0.80494009      -1.11466087
C        1.00747198      -0.66122635      -0.63092516
C        2.44563428       0.24055617       0.54696919
O        1.55660573       0.77024524       1.24008881
H       -2.36436790      -0.68236478      -0.57064423
H       -2.87233365      -0.30524412       1.09250138
H       -2.39387578       1.00570820      -0.01266923
H        1.69570736      -0.58423514      -1.46160822
H        0.70526345      -1.70055121      -0.53495709
H        3.20295630       1.01969547       0.31852879
13
Frame=13 idx=009302 GeodesicLength=1.0812901415150724 rxn_smarts="[C:1]([O:2][C:3](=[O:4])[C:5]([C:6](=[O:7])[H:13])([H:11])[H:12])([H:8])([H:9])[H:10]>>[C:1]([O:2][C@:3]1([O+:7]=[C-:6][H:13])[O:4][C:5]1([H:11])[H:12])([H:8])([H:9])[H:10]"
C       -2.20024638      -0.03721900       0.26732103
O       -0.89582915      -0.13698124       0.81862326
C        0.13107109       0.30814262       0.07607353
O       -0.00857860       0.85123346      -1.07213696
C        0.99375420      -0.64060303      -0.61527911
C        2.46357922       0.22526496       0.51860931
O        1.61423000       0.70588016       1.29204083
H       -2.33507313      -0.72499247      -0.56874160
H       -2.88757011      -0.29823158       1.06764950
H       -2.40048108       0.98016102      -0.07204890
H        1.65938500      -0.58922495      -1.46708892
H        0.68702131      -1.67725714      -0.50333618
H        3.17873764       1.03382720       0.25831421
13
Frame=14 idx=009302 GeodesicLength=1.1636750974099759 rxn_smarts="[C:1]([O:2][C:3](=[O:4])[C:5]([C:6](=[O:7])[H:13])([H:11])[H:12])([H:8])([H:9])[H:10]>>[C:1]([O:2][C@:3]1([O+:7]=[C-:6][H:13])[O:4][C:5]1([H:11])[H:12])([H:8])([H:9])[H:10]"
C       -2.19840708      -0.04792137       0.25040510
O       -0.90647756      -0.10882861       0.83568342
C        0.13342477       0.33218099       0.10968154
O        0.00811962       0.89499822      -1.03095558
C        0.98017911      -0.62005109      -0.60062678
C        2.47848945       0.21074909       0.49021186
O        1.67236446       0.63981447       1.33639975
H       -2.30542332      -0.76708658      -0.56300504
H       -2.90157172      -0.28877933       1.04320806
H       -2.40241500       0.95329413      -0.13172602
H        1.62211950      -0.59283621      -1.47251035
H        0.66971353      -1.65409245      -0.47323266
H        3.14988423       1.04855874       0.20646671
13
Frame=15 idx=009302 GeodesicLength=1.2462080340665245 rxn_smarts="[C:1]([O:2][C:3](=[O:4])[C:5]([C:6](=[O:7])[H:13])([H:11])[H:12])([H:8])([H:9])[H:10]>>[C:1]([O:2][C@:3]1([O+:7]=[C-:6][H:13])[O:4][C:5]1([H:11])[H:12])([H:8])([H:9])[H:10]"
C       -2.19517034      -0.05819318       0.23442623
O       -0.91701694      -0.08077038       0.85188532
C        0.13560358       0.35547080       0.14219120
O        0.02375426       0.93637790      -0.99110102
C        0.96682180      -0.59954277      -0.58682533
C        2.49062929       0.19715415       0.46183037
O        1.73069471       0.57256161       1.37342107
H       -2.27588663      -0.80862206      -0.55342474
H       -2.91463146      -0.27685369       1.01894505
H       -2.39983192       0.92491158      -0.19153342
H        1.58407999      -0.59507774      -1.47774792
H        0.65337650      -1.63104893      -0.44461591
H        3.11757717       1.06363270       0.16254910
13
Frame=16 idx=009302 GeodesicLength=1.3288856572069412 rxn_smarts="[C:1]([O:2][C:3](=[O:4])[C:5]([C:6](=[O:7])[H:13])([H:11])[H:12])([H:8])([H:9])[H:10]>>[C:1]([O:2][C@:3]1([O+:7]=[C-:6][H:13])[O:4][C:5]1([H:11])[H:12])([H:8])([H:9])[H:10]"
C       -2.19079992      -0.06812682       0.21930673
O       -0.92758130      -0.05303880       0.86716407
C        0.13751754       0.37799894       0.17371745
O        0.03834513       0.97557568      -0.95246600
C        0.95372446      -0.57904547      -0.57370287
C        2.50024834       0.18456138       0.43354694
O        1.78904303       0.50473647       1.40339284
H       -2.24686572      -0.84951218      -0.54012985
H       -2.92703170      -0.26261787       0.99451726
H       -2.39290288       0.89485648      -0.25120822
H        1.54540570      -0.59596705      -1.48265547
H        0.63800135      -1.60812287      -0.41739387
H        3.08289598       1.07870212       0.12591100
