16
Frame=0 idx=005312 GeodesicLength=0.0 rxn_smarts="[C:1]([C:2]1([H:10])[C:3]([H:11])([H:12])[C:4]([H:13])=[C:5]([H:14])[C:6]1([H:15])[H:16])([H:7])([H:8])[H:9]>>[C:1]([C@:2]1([H:10])[C@:5]([C:4](=[C:3]([H:11])[H:12])[H:13])([H:14])[C:6]1([H:15])[H:16])([H:7])([H:8])[H:9]"
C        1.72810670       0.29153326      -0.44156409
C        0.87711315       0.15777491       0.75990358
C       -0.82658009      -1.68135842      -0.36234411
C       -1.51316715      -0.51047731      -0.55183180
C       -1.17162611       0.76408493      -0.12650655
C       -0.25484297       1.03430767       1.02721047
H        2.78088201       0.12504910      -0.19713578
H        1.60679312       1.27466003      -0.90442654
H        1.47130959      -0.44771992      -1.21933939
H        1.12172244      -0.62252911       1.47060364
H        0.24408614      -1.72617419      -0.27617973
H       -1.34555323      -2.63212075      -0.41724173
H       -2.47033465      -0.57645310      -1.07171766
H       -1.56245690       1.61763508      -0.67345762
H        0.03646032       2.08992747       0.98857582
H       -0.72191232       0.84186028       1.99545149
16
Frame=1 idx=005312 GeodesicLength=0.08633335163947344 rxn_smarts="[C:1]([C:2]1([H:10])[C:3]([H:11])([H:12])[C:4]([H:13])=[C:5]([H:14])[C:6]1([H:15])[H:16])([H:7])([H:8])[H:9]>>[C:1]([C@:2]1([H:10])[C@:5]([C:4](=[C:3]([H:11])[H:12])[H:13])([H:14])[C:6]1([H:15])[H:16])([H:7])([H:8])[H:9]"
C        1.74132351       0.30227695      -0.43707111
C        0.84968034       0.13260241       0.73183142
C       -0.83055495      -1.67790524      -0.34743682
C       -1.52374408      -0.51115661      -0.55162003
C       -1.16507293       0.76182468      -0.13440336
C       -0.25832377       1.03450637       1.02552858
H        2.78825285       0.15632889      -0.15737101
H        1.61892874       1.28703665      -0.89599159
H        1.52380154      -0.43351737      -1.22915086
H        1.09355040      -0.64545823       1.44537909
H        0.24315016      -1.73951427      -0.35717643
H       -1.35638071      -2.62684003      -0.34726931
H       -2.49647081      -0.58281696      -1.03976354
H       -1.55036723       1.61579648      -0.68465551
H        0.04703714       2.08561704       0.98582928
H       -0.72481019       0.84121924       1.99334121
16
Frame=2 idx=005312 GeodesicLength=0.1728131389363614 rxn_smarts="[C:1]([C:2]1([H:10])[C:3]([H:11])([H:12])[C:4]([H:13])=[C:5]([H:14])[C:6]1([H:15])[H:16])([H:7])([H:8])[H:9]>>[C:1]([C@:2]1([H:10])[C@:5]([C:4](=[C:3]([H:11])[H:12])[H:13])([H:14])[C:6]1([H:15])[H:16])([H:7])([H:8])[H:9]"
C        1.75426425       0.31092553      -0.43151273
C        0.82276560       0.10893585       0.70258122
C       -0.83297488      -1.67317113      -0.33716664
C       -1.53803785      -0.51225068      -0.54626586
C       -1.15969678       0.75927593      -0.14092946
C       -0.26053132       1.03499573       1.02311505
H        2.79345505       0.19015731      -0.11411107
H        1.62856578       1.29431056      -0.89202651
H        1.58140364      -0.42549123      -1.23308895
H        1.06549432      -0.66620293       1.41981404
H        0.23563119      -1.74919138      -0.43712799
H       -1.35973633      -2.62047082      -0.28708767
H       -2.52408344      -0.58864315      -1.00466439
H       -1.54034835       1.61307322      -0.69444492
H        0.05839233       2.08141330       0.98130149
H       -0.72456322       0.84233390       1.99161438
16
Frame=3 idx=005312 GeodesicLength=0.2593766419793422 rxn_smarts="[C:1]([C:2]1([H:10])[C:3]([H:11])([H:12])[C:4]([H:13])=[C:5]([H:14])[C:6]1([H:15])[H:16])([H:7])([H:8])[H:9]>>[C:1]([C@:2]1([H:10])[C@:5]([C:4](=[C:3]([H:11])[H:12])[H:13])([H:14])[C:6]1([H:15])[H:16])([H:7])([H:8])[H:9]"
C        1.76719935       0.31772360      -0.42505216
C        0.79657593       0.08686558       0.67242848
C       -0.83412217      -1.66759092      -0.33080190
C       -1.55465861      -0.51337112      -0.53758397
C       -1.15542528       0.75674137      -0.14650765
C       -0.26174623       1.03583411       1.01998421
H        2.79636856       0.22599191      -0.06802945
H        1.63671092       1.29709415      -0.89246949
H        1.64354896      -0.42290589      -1.23094654
H        1.03770854      -0.68500512       1.39409749
H        0.22271900      -1.75571393      -0.51613984
H       -1.35699158      -2.61389030      -0.23606772
H       -2.55335514      -0.59415793      -0.96538631
H       -1.53274148       1.61011642      -0.70282794
H        0.07015696       2.07761122       0.97523648
H       -0.72194774       0.84465687       1.99006632
16
Frame=4 idx=005312 GeodesicLength=0.34546916343390277 rxn_smarts="[C:1]([C:2]1([H:10])[C:3]([H:11])([H:12])[C:4]([H:13])=[C:5]([H:14])[C:6]1([H:15])[H:16])([H:7])([H:8])[H:9]>>[C:1]([C@:2]1([H:10])[C@:5]([C:4](=[C:3]([H:11])[H:12])[H:13])([H:14])[C:6]1([H:15])[H:16])([H:7])([H:8])[H:9]"
C        1.77962738       0.32288352      -0.41794296
C        0.77119153       0.06651833       0.64171142
C       -0.83414714      -1.66130816      -0.32768008
C       -1.57258524      -0.51447690      -0.52616601
C       -1.15209939       0.75412895      -0.15101641
C       -0.26201109       1.03691697       1.01642377
H        2.79620500       0.26303828      -0.02052913
H        1.64365185       1.29585996      -0.89677059
H        1.70808154      -0.42460676      -1.22290303
H        1.01041756      -0.70176888       1.36834235
H        0.20517322      -1.75921462      -0.59368451
H       -1.34910730      -2.60730556      -0.19275260
H       -2.58259521      -0.59935012      -0.92401549
H       -1.52695766       1.60680315      -0.70992177
H        0.08218005       2.07409195       0.96808303
H       -0.71702510       0.84778989       1.98882202
16
Frame=5 idx=005312 GeodesicLength=0.43102450015580035 rxn_smarts="[C:1]([C:2]1([H:10])[C:3]([H:11])([H:12])[C:4]([H:13])=[C:5]([H:14])[C:6]1([H:15])[H:16])([H:7])([H:8])[H:9]>>[C:1]([C@:2]1([H:10])[C@:5]([C:4](=[C:3]([H:11])[H:12])[H:13])([H:14])[C:6]1([H:15])[H:16])([H:7])([H:8])[H:9]"
C        1.79148658       0.32655162      -0.41030061
C        0.74662660       0.04789296       0.61067342
C       -0.83306481      -1.65438891      -0.32747619
C       -1.59093845      -0.51548711      -0.51293541
C       -1.14951583       0.75150078      -0.15472699
C       -0.26149813       1.03822501       1.01246237
H        2.79269095       0.30069337       0.02757816
H        1.65003945       1.29096697      -0.90440091
H        1.77396385      -0.42972929      -1.20908307
H        0.98359153      -0.71661281       1.34267699
H        0.18373994      -1.75999368      -0.66974543
H       -1.33681657      -2.60080012      -0.15636078
H       -2.61145860      -0.60443667      -0.88022664
H       -1.52285514       1.60326650      -0.71587481
H        0.09425249       2.07088025       0.96001098
H       -0.71024385       0.85147111       1.98772891
16
Frame=6 idx=005312 GeodesicLength=0.5157164113341641 rxn_smarts="[C:1]([C:2]1([H:10])[C:3]([H:11])([H:12])[C:4]([H:13])=[C:5]([H:14])[C:6]1([H:15])[H:16])([H:7])([H:8])[H:9]>>[C:1]([C@:2]1([H:10])[C@:5]([C:4](=[C:3]([H:11])[H:12])[H:13])([H:14])[C:6]1([H:15])[H:16])([H:7])([H:8])[H:9]"
C        1.80252429       0.32894032      -0.40232498
C        0.72295102       0.03102046       0.57962950
C       -0.83100566      -1.64698016      -0.32947422
C       -1.60913372      -0.51648829      -0.49819954
C       -1.14754461       0.74880061      -0.15762127
C       -0.26030792       1.03972914       1.00829685
H        2.78580820       0.33796582       0.07495593
H        1.65634487       1.28311559      -0.91441822
H        1.83923237      -0.43702082      -1.19020427
H        0.95745340      -0.72952816       1.31729185
H        0.15901014      -1.75845163      -0.74349533
H       -1.32088284      -2.59447770      -0.12597486
H       -2.63887330      -0.60952635      -0.83572173
H       -1.52000856       1.59943171      -0.72090046
H        0.10623742       2.06796901       0.95130918
H       -0.70180511       0.85550045       1.98685156
16
Frame=7 idx=005312 GeodesicLength=0.5996512640942916 rxn_smarts="[C:1]([C:2]1([H:10])[C:3]([H:11])([H:12])[C:4]([H:13])=[C:5]([H:14])[C:6]1([H:15])[H:16])([H:7])([H:8])[H:9]>>[C:1]([C@:2]1([H:10])[C@:5]([C:4](=[C:3]([H:11])[H:12])[H:13])([H:14])[C:6]1([H:15])[H:16])([H:7])([H:8])[H:9]"
C        1.81277479       0.33023735      -0.39411527
C        0.70015466       0.01582217       0.54870536
C       -0.82804391      -1.63915073      -0.33337354
C       -1.62668870      -0.51748904      -0.48260957
C       -1.14601150       0.74606401      -0.15994937
C       -0.25859358       1.04138674       1.00392907
H        2.77576040       0.37439054       0.12100526
H        1.66307726       1.27282153      -0.92612843
H        1.90313149      -0.44568635      -1.16680299
H        0.93199849      -0.74066779       1.29223204
H        0.13149847      -1.75510154      -0.81471562
H       -1.30198384      -2.58827006      -0.10078107
H       -2.66467018      -0.61477290      -0.79044712
H       -1.51829219       1.59539861      -0.72512617
H        0.11798982       2.06535415       0.94213763
H       -0.69210148       0.85966332       1.98603978
16
Frame=8 idx=005312 GeodesicLength=0.6828436097305891 rxn_smarts="[C:1]([C:2]1([H:10])[C:3]([H:11])([H:12])[C:4]([H:13])=[C:5]([H:14])[C:6]1([H:15])[H:16])([H:7])([H:8])[H:9]>>[C:1]([C@:2]1([H:10])[C@:5]([C:4](=[C:3]([H:11])[H:12])[H:13])([H:14])[C:6]1([H:15])[H:16])([H:7])([H:8])[H:9]"
C        1.82222008       0.33067258      -0.38578818
C        0.67824770       0.00219966       0.51800723
C       -0.82434221      -1.63100691      -0.33868918
C       -1.64331572      -0.51852818      -0.46653428
C       -1.14478295       0.74328035      -0.16183725
C       -0.25647223       1.04311512       0.99943323
H        2.76292811       0.40948585       0.16505993
H        1.67054445       1.26073856      -0.93877150
H        1.96473381      -0.45485141      -1.13969111
H        0.90733299      -0.75016395       1.26752391
H        0.10161199      -1.75050863      -0.88290812
H       -1.28080586      -2.58210534      -0.07982924
H       -2.68846757      -0.62022246      -0.74522978
H       -1.51743504       1.59119859      -0.72872494
H        0.12940320       2.06297636       0.93272473
H       -0.68140072       0.86371981       1.98525456
16
Frame=9 idx=005312 GeodesicLength=0.7654551831214563 rxn_smarts="[C:1]([C:2]1([H:10])[C:3]([H:11])([H:12])[C:4]([H:13])=[C:5]([H:14])[C:6]1([H:15])[H:16])([H:7])([H:8])[H:9]>>[C:1]([C@:2]1([H:10])[C@:5]([C:4](=[C:3]([H:11])[H:12])[H:13])([H:14])[C:6]1([H:15])[H:16])([H:7])([H:8])[H:9]"
C        1.83092570       0.33044329      -0.37737906
C        0.65719530      -0.00997174       0.48751125
C       -0.82004519      -1.62259916      -0.34520099
C       -1.65884618      -0.51962066      -0.45037930
C       -1.14371424       0.74044693      -0.16350290
C       -0.25403517       1.04483101       0.99477901
H        2.74765941       0.44306210       0.20693145
H        1.67899529       1.24735518      -0.95175784
H        2.02371814      -0.46394791      -1.10945553
H        0.88344512      -0.75816867       1.24307426
H        0.06962346      -1.74518725      -0.94797507
H       -1.25785925      -2.57582533      -0.06231645
H       -2.71025548      -0.62592468      -0.70006542
H       -1.51728189       1.58686735      -0.73182510
H        0.14041293       2.06075998       0.92320628
H       -0.66993796       0.86747957       1.98435539
16
Frame=10 idx=005312 GeodesicLength=0.8475437273263082 rxn_smarts="[C:1]([C:2]1([H:10])[C:3]([H:11])([H:12])[C:4]([H:13])=[C:5]([H:14])[C:6]1([H:15])[H:16])([H:7])([H:8])[H:9]>>[C:1]([C@:2]1([H:10])[C@:5]([C:4](=[C:3]([H:11])[H:12])[H:13])([H:14])[C:6]1([H:15])[H:16])([H:7])([H:8])[H:9]"
C        1.83895101       0.32974121      -0.36894667
C        0.63699733      -0.02082179       0.45722814
C       -0.81532515      -1.61401535      -0.35251170
C       -1.67324933      -0.52077105      -0.43428983
C       -1.14273896       0.73757235      -0.16500797
C       -0.25135042       1.04645616       0.99002703
H        2.73040850       0.47511471       0.24637544
H        1.68845370       1.23309410      -0.96474430
H        2.07985760      -0.47256036      -1.07665819
H        0.86042002      -0.76484818       1.21884674
H        0.03573995      -1.73960302      -1.00969670
H       -1.23369389      -2.56939650      -0.04762411
H       -2.72993229      -0.63183828      -0.65557034
H       -1.51765273       1.58246368      -0.73452724
H        0.15098166       2.05864880       0.91374764
H       -0.65786699       0.87076353       1.98335208
16
Frame=11 idx=005312 GeodesicLength=0.929245589514317 rxn_smarts="[C:1]([C:2]1([H:10])[C:3]([H:11])([H:12])[C:4]([H:13])=[C:5]([H:14])[C:6]1([H:15])[H:16])([H:7])([H:8])[H:9]>>[C:1]([C@:2]1([H:10])[C@:5]([C:4](=[C:3]([H:11])[H:12])[H:13])([H:14])[C:6]1([H:15])[H:16])([H:7])([H:8])[H:9]"
C        1.84640012       0.32870539      -0.36048399
C        0.61761478      -0.03047100       0.42707368
C       -0.81030545      -1.60528814      -0.36053246
C       -1.68654505      -0.52197794      -0.41846239
C       -1.14178107       0.73466629      -0.16649996
C       -0.24846651       1.04793164       0.98513916
H        2.71149279       0.50574680       0.28347786
H        1.69900380       1.21822934      -0.97746267
H        2.13326640      -0.48047431      -1.04159466
H        0.83822376      -0.77035490       1.19471158
H        0.00007069      -1.73412721      -1.06820963
H       -1.20862344      -2.56271807      -0.03523786
H       -2.74764902      -0.63795682      -0.61160014
H       -1.51848953       1.57803710      -0.73688397
H        0.16110436       2.05659271       0.90441761
H       -0.64531663       0.87345913       1.98214785
16
Frame=12 idx=005312 GeodesicLength=1.0106442093171735 rxn_smarts="[C:1]([C:2]1([H:10])[C:3]([H:11])([H:12])[C:4]([H:13])=[C:5]([H:14])[C:6]1([H:15])[H:16])([H:7])([H:8])[H:9]>>[C:1]([C@:2]1([H:10])[C@:5]([C:4](=[C:3]([H:11])[H:12])[H:13])([H:14])[C:6]1([H:15])[H:16])([H:7])([H:8])[H:9]"
C        1.85335731       0.32744052      -0.35198978
C        0.59901737      -0.03903054       0.39699527
C       -0.80508188      -1.59645766      -0.36914799
C       -1.69879298      -0.52323272      -0.40295972
C       -1.14080155       0.73174931      -0.16805189
C       -0.24542795       1.04922141       0.98012010
H        2.69121441       0.53509704       0.31828961
H        1.71064662       1.20294859      -0.98977527
H        2.18406581      -0.48756387      -1.00449967
H        0.81684103      -0.77483608       1.17058921
H       -0.03730609      -1.72904159      -1.12363884
H       -1.18289543      -2.55576061      -0.02479475
H       -2.76350261      -0.64424871      -0.56819814
H       -1.51972670       1.57364845      -0.73894319
H        0.17077891       2.05456963       0.89528048
H       -0.63238628       0.87549683       1.98072456
16
Frame=13 idx=005312 GeodesicLength=1.0918081647087714 rxn_smarts="[C:1]([C:2]1([H:10])[C:3]([H:11])([H:12])[C:4]([H:13])=[C:5]([H:14])[C:6]1([H:15])[H:16])([H:7])([H:8])[H:9]>>[C:1]([C@:2]1([H:10])[C@:5]([C:4](=[C:3]([H:11])[H:12])[H:13])([H:14])[C:6]1([H:15])[H:16])([H:7])([H:8])[H:9]"
C        1.85983071       0.32602041      -0.34343169
C        0.58117283      -0.04658807       0.36696725
C       -0.79970990      -1.58750975      -0.37825312
C       -1.71002570      -0.52452846      -0.38778911
C       -1.13974860       0.72880396      -0.16971371
C       -0.24223937       1.05028305       0.97497075
H        2.66978470       0.56327956       0.35088941
H        1.72328713       1.18732770      -1.00157467
H        2.23228334      -0.49371413      -0.96554753
H        0.79626620      -0.77837070       1.14642971
H       -0.07638553      -1.72447936      -1.17609425
H       -1.15667111      -2.54844138      -0.01607186
H       -2.77752188      -0.65070554      -0.52543898
H       -1.52126499       1.56926624      -0.74076848
H        0.18003210       2.05251528       0.88637056
H       -0.61908994       0.87684119       1.97905573
16
Frame=14 idx=005312 GeodesicLength=1.1727796412479168 rxn_smarts="[C:1]([C:2]1([H:10])[C:3]([H:11])([H:12])[C:4]([H:13])=[C:5]([H:14])[C:6]1([H:15])[H:16])([H:7])([H:8])[H:9]>>[C:1]([C@:2]1([H:10])[C@:5]([C:4](=[C:3]([H:11])[H:12])[H:13])([H:14])[C:6]1([H:15])[H:16])([H:7])([H:8])[H:9]"
C        1.86590530       0.32450419      -0.33482619
C        0.56405160      -0.05321697       0.33693895
C       -0.79423167      -1.57848492      -0.38783788
C       -1.72030753      -0.52585653      -0.37300938
C       -1.13861032       0.72587129      -0.17153866
C       -0.23894995       1.05111503       0.96969795
H        2.64744970       0.59038309       0.38135763
H        1.73696432       1.17152300      -1.01277030
H        2.27804431      -0.49890522      -0.92490972
H        0.77646515      -0.78108082       1.12216672
H       -0.11710115      -1.72069870      -1.22570609
H       -1.13006588      -2.54076355      -0.00880523
H       -2.78983549      -0.65729329      -0.48327911
H       -1.52310405       1.56498662      -0.74235310
H        0.18886321       2.05045493       0.87773953
H       -0.60553754       0.87746186       1.97713487
16
Frame=15 idx=005312 GeodesicLength=1.253599851605103 rxn_smarts="[C:1]([C:2]1([H:10])[C:3]([H:11])([H:12])[C:4]([H:13])=[C:5]([H:14])[C:6]1([H:15])[H:16])([H:7])([H:8])[H:9]>>[C:1]([C@:2]1([H:10])[C@:5]([C:4](=[C:3]([H:11])[H:12])[H:13])([H:14])[C:6]1([H:15])[H:16])([H:7])([H:8])[H:9]"
C        1.87158702       0.32291913      -0.32615878
C        0.54762169      -0.05897539       0.30690768
C       -0.78865404      -1.56936668      -0.39788079
C       -1.72967157      -0.52721027      -0.35860048
C       -1.13736289       0.72295507      -0.17354182
C       -0.23557168       1.05171065       0.96431896
H        2.62437947       0.61650745       0.40976079
H        1.75159388       1.15554763      -1.02332973
H        2.32137119      -0.50313047      -0.88269379
H        0.75741489      -0.78303041       1.09778392
H       -0.15944056      -1.71779141      -1.27257440
H       -1.10312955      -2.53268357      -0.00288394
H       -2.80048193      -0.66400232      -0.44177964
H       -1.52520074       1.56081313      -0.74370735
H        0.19729940       2.04836951       0.86941318
H       -0.59175458       0.87736793       1.97496621
16
Frame=16 idx=005312 GeodesicLength=1.334299331430087 rxn_smarts="[C:1]([C:2]1([H:10])[C:3]([H:11])([H:12])[C:4]([H:13])=[C:5]([H:14])[C:6]1([H:15])[H:16])([H:7])([H:8])[H:9]>>[C:1]([C@:2]1([H:10])[C@:5]([C:4](=[C:3]([H:11])[H:12])[H:13])([H:14])[C:6]1([H:15])[H:16])([H:7])([H:8])[H:9]"
C        1.87688444       0.32127650      -0.31742479
C        0.53185066      -0.06391127       0.27687939
C       -0.78296963      -1.56013997      -0.40839601
C       -1.73814571      -0.52858365      -0.34455365
C       -1.13599199       0.72006840      -0.17573493
C       -0.23212408       1.05207631       0.95885319
H        2.60073457       0.64171898       0.43616318
H        1.76711108       1.13942052      -1.03321484
H        2.36226826      -0.50640661      -0.83902009
H        0.73908333      -0.78428118       1.07327659
H       -0.20337332      -1.71584732      -1.31677641
H       -1.07587378      -2.52416816       0.00177807
H       -2.80950935      -0.67082706      -0.40096674
H       -1.52752500       1.55676428      -0.74483709
H        0.20536279       2.04625759       0.86141511
H       -0.57778229       0.87658264       1.97255901
