12
Frame=0 idx=011853 GeodesicLength=0.0 rxn_smarts="[C:1]([N:2]([C:3]([C:4]#[N:5])([C:6]#[N:7])[H:12])[H:11])([H:8])([H:9])[H:10]>>[C:1]([N:2]([C:3]([C:4]#[N:5])=[C:6]=[N:7][H:12])[H:11])([H:8])([H:9])[H:10]"
C       -1.62213573      -0.40481691      -0.32378951
N       -0.49787704       0.42472351      -0.71965046
C        0.76389176       0.16507724      -0.22417661
C        1.33430202      -1.12181162      -0.38522633
N        1.78609066      -2.17295478      -0.52560160
C        1.38485913       1.03442776       0.69153896
N        1.91136810       1.96681733       1.26258194
H       -1.38201965      -1.45238898      -0.50795742
H       -2.48901856      -0.14456111      -0.92967939
H       -1.87708920      -0.28663386       0.73701410
H       -0.70556554       1.40381948      -0.82342364
H        1.39319408       0.58830198       1.74836995
12
Frame=1 idx=011853 GeodesicLength=0.12330350744819543 rxn_smarts="[C:1]([N:2]([C:3]([C:4]#[N:5])([C:6]#[N:7])[H:12])[H:11])([H:8])([H:9])[H:10]>>[C:1]([N:2]([C:3]([C:4]#[N:5])=[C:6]=[N:7][H:12])[H:11])([H:8])([H:9])[H:10]"
C       -1.62785843      -0.37417385      -0.28607221
N       -0.48426659       0.38728223      -0.75487544
C        0.76571500       0.13968483      -0.21957628
C        1.37670128      -1.12275374      -0.42316635
N        1.88208826      -2.14053215      -0.61476942
C        1.37816553       1.02415410       0.68291828
N        1.81682393       1.94442172       1.33638566
H       -1.41421542      -1.43972806      -0.37688665
H       -2.48888589      -0.14714330      -0.91327555
H       -1.87920736      -0.15587135       0.75968029
H       -0.66427567       1.36093694      -0.93454200
H        1.33921536       0.52372261       1.74417967
12
Frame=2 idx=011853 GeodesicLength=0.2464863366052179 rxn_smarts="[C:1]([N:2]([C:3]([C:4]#[N:5])([C:6]#[N:7])[H:12])[H:11])([H:8])([H:9])[H:10]>>[C:1]([N:2]([C:3]([C:4]#[N:5])=[C:6]=[N:7][H:12])[H:11])([H:8])([H:9])[H:10]"
C       -1.63344885      -0.34174269      -0.25060450
N       -0.47256447       0.34642794      -0.78434987
C        0.76657934       0.11295866      -0.21297602
C        1.41883890      -1.12210368      -0.45774817
N        1.97757535      -2.10024426      -0.69951713
C        1.36957966       1.01469594       0.67550431
N        1.72145036       1.91504269       1.40110011
H       -1.44563994      -1.41615994      -0.24867099
H       -2.48946255      -0.14906452      -0.89586301
H       -1.87863393      -0.02704794       0.77186101
H       -0.62517486       1.30852717      -1.03714765
H        1.29090098       0.45871061       1.73841190
12
Frame=3 idx=011853 GeodesicLength=0.3692869380264615 rxn_smarts="[C:1]([N:2]([C:3]([C:4]#[N:5])([C:6]#[N:7])[H:12])[H:11])([H:8])([H:9])[H:10]>>[C:1]([N:2]([C:3]([C:4]#[N:5])=[C:6]=[N:7][H:12])[H:11])([H:8])([H:9])[H:10]"
C       -1.63885054      -0.30794220      -0.21740710
N       -0.46282572       0.30236424      -0.80852697
C        0.76661999       0.08509435      -0.20476552
C        1.46124196      -1.11913279      -0.48986787
N        2.07143150      -2.05234959      -0.77905094
C        1.35859720       1.00608748       0.66911256
N        1.62738158       1.87921699       1.45757399
H       -1.47664200      -1.38268520      -0.12456131
H       -2.49099086      -0.14982563      -0.87697093
H       -1.87498036       0.09859407       0.77440923
H       -0.58868196       1.24719395      -1.13169500
H        1.24769920       0.39338433       1.73174986
12
Frame=4 idx=011853 GeodesicLength=0.49141591754598807 rxn_smarts="[C:1]([N:2]([C:3]([C:4]#[N:5])([C:6]#[N:7])[H:12])[H:11])([H:8])([H:9])[H:10]>>[C:1]([N:2]([C:3]([C:4]#[N:5])=[C:6]=[N:7][H:12])[H:11])([H:8])([H:9])[H:10]"
C       -1.64398264      -0.27325084      -0.18658523
N       -0.45512594       0.25531955      -0.82771914
C        0.76596234       0.05636763      -0.19519526
C        1.50434874      -1.11292695      -0.52015954
N        2.16227481      -1.99771966      -0.85281885
C        1.34488182       0.99856131       0.66350349
N        1.53708272       1.83773369       1.50680094
H       -1.50734583      -1.34049962      -0.00581347
H       -2.49359120      -0.14898666      -0.85654599
H       -1.86800482       0.21970505       0.76822729
H       -0.55531459       1.17755134      -1.21840155
H        1.20881459       0.32814518       1.72470730
12
Frame=5 idx=011853 GeodesicLength=0.6126458896566773 rxn_smarts="[C:1]([N:2]([C:3]([C:4]#[N:5])([C:6]#[N:7])[H:12])[H:11])([H:8])([H:9])[H:10]>>[C:1]([N:2]([C:3]([C:4]#[N:5])=[C:6]=[N:7][H:12])[H:11])([H:8])([H:9])[H:10]"
C       -1.64882330      -0.23812432      -0.15826210
N       -0.44938474       0.20532173      -0.84202656
C        0.76470684       0.02688771      -0.18412422
C        1.54825987      -1.10287635      -0.54828090
N        2.24894770      -1.93684439      -0.92170488
C        1.32819218       0.99234972       0.65848676
N        1.45300415       1.79154173       1.54967839
H       -1.53807639      -1.29080486       0.10681548
H       -2.49711202      -0.14631517      -0.83501551
H       -1.85777986       0.33536188       0.75408647
H       -0.52517807       1.09990301      -1.29746379
H        1.17324364       0.26359930       1.71781086
12
Frame=6 idx=011853 GeodesicLength=0.7329484472032458 rxn_smarts="[C:1]([N:2]([C:3]([C:4]#[N:5])([C:6]#[N:7])[H:12])[H:11])([H:8])([H:9])[H:10]>>[C:1]([N:2]([C:3]([C:4]#[N:5])=[C:6]=[N:7][H:12])[H:11])([H:8])([H:9])[H:10]"
C       -1.65315268      -0.20273868      -0.13241360
N       -0.44550485       0.15260100      -0.85166323
C        0.76314867      -0.00323239      -0.17191991
C        1.59257869      -1.08874674      -0.57480446
N        2.33098202      -1.87053947      -0.98586049
C        1.30889949       0.98715401       0.65371766
N        1.37506902       1.74164420       1.58724835
H       -1.56854715      -1.23433416       0.21344457
H       -2.50126972      -0.14175333      -0.81280049
H       -1.84431757       0.44549037       0.73260010
H       -0.49849339       1.01496569      -1.36870617
H        1.14060747       0.19948949       1.71115766
12
Frame=7 idx=011853 GeodesicLength=0.8522511328781205 rxn_smarts="[C:1]([N:2]([C:3]([C:4]#[N:5])([C:6]#[N:7])[H:12])[H:11])([H:8])([H:9])[H:10]>>[C:1]([N:2]([C:3]([C:4]#[N:5])=[C:6]=[N:7][H:12])[H:11])([H:8])([H:9])[H:10]"
C       -1.65676393      -0.16734872      -0.10909299
N       -0.44337843       0.09757071      -0.85668398
C        0.76158077      -0.03357100      -0.15881674
C        1.63681548      -1.07009690      -0.60002384
N        2.40752094      -1.79976286      -1.04552755
C        1.28723234       0.98298875       0.64908905
N        1.30383706       1.68869674       1.62050678
H       -1.59829785      -1.17170165       0.31410221
H       -2.50570944      -0.13569935      -0.79041133
H       -1.82786492       0.54981756       0.70419940
H       -0.47546113       0.92342853      -1.43220294
H        1.11048911       0.13567819       1.70486194
12
Frame=8 idx=011853 GeodesicLength=0.9703419316754733 rxn_smarts="[C:1]([N:2]([C:3]([C:4]#[N:5])([C:6]#[N:7])[H:12])[H:11])([H:8])([H:9])[H:10]>>[C:1]([N:2]([C:3]([C:4]#[N:5])=[C:6]=[N:7][H:12])[H:11])([H:8])([H:9])[H:10]"
C       -1.65944546      -0.13228883      -0.08841692
N       -0.44289011       0.04082028      -0.85712749
C        0.76018793      -0.06363388      -0.14499691
C        1.68010441      -1.04680617      -0.62394614
N        2.47781823      -1.72543356      -1.10083790
C        1.26345477       0.97996865       0.64447950
N        1.24017412       1.63335948       1.65027000
H       -1.62675632      -1.10364818       0.40850170
H       -2.51004320      -0.12863507      -0.76836889
H       -1.80882288       0.64787048       0.66931999
H       -0.45623934       0.82627075      -1.48785986
H        1.08245785       0.07215606       1.69898293
12
Frame=9 idx=011853 GeodesicLength=1.0873575637760748 rxn_smarts="[C:1]([N:2]([C:3]([C:4]#[N:5])([C:6]#[N:7])[H:12])[H:11])([H:8])([H:9])[H:10]>>[C:1]([N:2]([C:3]([C:4]#[N:5])=[C:6]=[N:7][H:12])[H:11])([H:8])([H:9])[H:10]"
C       -1.66106228      -0.09752763      -0.07037311
N       -0.44381911      -0.01740392      -0.85304724
C        0.75925645      -0.09305023      -0.13064805
C        1.72157876      -1.01923864      -0.64661504
N        2.54190515      -1.64716541      -1.15299943
C        1.23778746       0.97769834       0.64022088
N        1.18393327       1.57547182       1.67764544
H       -1.65308567      -1.02935212       0.49822709
H       -2.51392515      -0.12211179      -0.74697240
H       -1.78783570       0.74083355       0.62685013
H       -0.44073048       0.72380693      -1.53582482
H        1.05599730       0.00803911       1.69353655
12
Frame=10 idx=011853 GeodesicLength=1.2030031533476082 rxn_smarts="[C:1]([N:2]([C:3]([C:4]#[N:5])([C:6]#[N:7])[H:12])[H:11])([H:8])([H:9])[H:10]>>[C:1]([N:2]([C:3]([C:4]#[N:5])=[C:6]=[N:7][H:12])[H:11])([H:8])([H:9])[H:10]"
C       -1.66157861      -0.06348980      -0.05521332
N       -0.44595750      -0.07661925      -0.84441208
C        0.75884321      -0.12132751      -0.11555004
C        1.76048726      -0.98784815      -0.66730831
N        2.59882389      -1.56527401      -1.20275195
C        1.21039179       0.97655788       0.63646185
N        1.13681997       1.51579560       1.70318605
H       -1.67705279      -0.94961861       0.58224412
H       -2.51721120      -0.11637072      -0.72663022
H       -1.76520144       0.82775867       0.57718992
H       -0.42876081       0.61674128      -1.57608165
H        1.03039623      -0.05630538       1.68886562
12
Frame=11 idx=011853 GeodesicLength=1.3172109892490265 rxn_smarts="[C:1]([N:2]([C:3]([C:4]#[N:5])([C:6]#[N:7])[H:12])[H:11])([H:8])([H:9])[H:10]>>[C:1]([N:2]([C:3]([C:4]#[N:5])=[C:6]=[N:7][H:12])[H:11])([H:8])([H:9])[H:10]"
C       -1.66097224      -0.03042605      -0.04304911
N       -0.44907987      -0.13622042      -0.83127678
C        0.75906040      -0.14778706      -0.09977726
C        1.79621881      -0.95279644      -0.68615442
N        2.64815647      -1.48038943      -1.25009894
C        1.18146452       0.97675889       0.63343396
N        1.09952989       1.45457728       1.72741525
H       -1.69822800      -0.86475625       0.66013193
H       -2.51982238      -0.11190558      -0.70744249
H       -1.74129553       0.90816548       0.52047021
H       -0.42015778       0.50586765      -1.60856253
H        1.00512570      -0.12108807       1.68491016
12
Frame=12 idx=011853 GeodesicLength=1.4297102358941527 rxn_smarts="[C:1]([N:2]([C:3]([C:4]#[N:5])([C:6]#[N:7])[H:12])[H:11])([H:8])([H:9])[H:10]>>[C:1]([N:2]([C:3]([C:4]#[N:5])=[C:6]=[N:7][H:12])[H:11])([H:8])([H:9])[H:10]"
C       -1.65924917       0.00118310      -0.03398441
N       -0.45293190      -0.19519432      -0.81374317
C        0.75984171      -0.17178725      -0.08328926
C        1.82799094      -0.91460565      -0.70310048
N        2.68938353      -1.39362342      -1.29463318
C        1.15130477       0.97868870       0.63107427
N        1.07316516       1.39250433       1.75028536
H       -1.71644617      -0.77610519       0.73061728
H       -2.52158925      -0.10885280      -0.68961662
H       -1.71667893       0.98092019       0.45766022
H       -0.41450698       0.39285594      -1.63286189
H        0.97971629      -0.18598364       1.68159188
12
Frame=13 idx=011853 GeodesicLength=1.5407621832644582 rxn_smarts="[C:1]([N:2]([C:3]([C:4]#[N:5])([C:6]#[N:7])[H:12])[H:11])([H:8])([H:9])[H:10]>>[C:1]([N:2]([C:3]([C:4]#[N:5])=[C:6]=[N:7][H:12])[H:11])([H:8])([H:9])[H:10]"
C       -1.65666438       0.03118672      -0.02807164
N       -0.45727229      -0.25311175      -0.79188597
C        0.76114074      -0.19301006      -0.06586185
C        1.85557459      -0.87361283      -0.71815582
N        2.72256158      -1.30506269      -1.33680797
C        1.11989622       0.98250591       0.62979054
N        1.05883991       1.32964841       1.77185843
H       -1.73194784      -0.68412320       0.79339689
H       -2.52262139      -0.10742871      -0.67337651
H       -1.69181489       1.04585629       0.38911720
H       -0.41122973       0.27822983      -1.64908727
H        0.95353749      -0.25107793       1.67908397
12
Frame=14 idx=011853 GeodesicLength=1.6510041407010616 rxn_smarts="[C:1]([N:2]([C:3]([C:4]#[N:5])([C:6]#[N:7])[H:12])[H:11])([H:8])([H:9])[H:10]>>[C:1]([N:2]([C:3]([C:4]#[N:5])=[C:6]=[N:7][H:12])[H:11])([H:8])([H:9])[H:10]"
C       -1.65338567       0.05954224      -0.02537918
N       -0.46186012      -0.30968140      -0.76565881
C        0.76281037      -0.21135771      -0.04714693
C        1.87876753      -0.83006267      -0.73130278
N        2.74758431      -1.21425598      -1.37724558
C        1.08699374       0.98813912       0.63018693
N        1.05745878       1.26566432       1.79188002
H       -1.74486476      -0.58873899       0.84846370
H       -2.52289448      -0.10801172      -0.65885109
H       -1.66693591       1.10308576       0.31463682
H       -0.40962320       0.16231983      -1.65714495
H        0.92594940      -0.31664281       1.67756185
12
Frame=15 idx=011853 GeodesicLength=1.7608235162406423 rxn_smarts="[C:1]([N:2]([C:3]([C:4]#[N:5])([C:6]#[N:7])[H:12])[H:11])([H:8])([H:9])[H:10]>>[C:1]([N:2]([C:3]([C:4]#[N:5])=[C:6]=[N:7][H:12])[H:11])([H:8])([H:9])[H:10]"
C       -1.64946314       0.08611912      -0.02574598
N       -0.46646867      -0.36423348      -0.73529219
C        0.76480879      -0.22683886      -0.02700051
C        1.89734944      -0.78452882      -0.74285945
N        2.76462327      -1.12181616      -1.41585900
C        1.05293715       0.99546207       0.63259285
N        1.06821442       1.20079019       1.80932782
H       -1.75546503      -0.49090488       0.89521175
H       -2.52241621      -0.11025714      -0.64599138
H       -1.64209595       1.15218701       0.23542071
H       -0.40891938       0.04645376      -1.65688343
H        0.89689531      -0.38243281       1.67707880
12
Frame=16 idx=011853 GeodesicLength=1.8705800367473124 rxn_smarts="[C:1]([N:2]([C:3]([C:4]#[N:5])([C:6]#[N:7])[H:12])[H:11])([H:8])([H:9])[H:10]>>[C:1]([N:2]([C:3]([C:4]#[N:5])=[C:6]=[N:7][H:12])[H:11])([H:8])([H:9])[H:10]"
C       -1.64459292       0.11087969      -0.02879330
N       -0.47079046      -0.41617580      -0.70111154
C        0.76716476      -0.23974559      -0.00533822
C        1.91116515      -0.73774712      -0.75315123
N        2.77362601      -1.02862482      -1.45277108
C        1.01836009       1.00406799       0.63721967
N        1.08780925       1.13559658       1.82278758
H       -1.76372750      -0.39188307       0.93321806
H       -2.52085881      -0.11335282      -0.63459639
H       -1.61669868       1.19291887       0.15322904
H       -0.40830623      -0.06785442      -1.64825156
H        0.86684934      -0.44807950       1.67755897
