13
Frame=0 idx=009299 GeodesicLength=0.0 rxn_smarts="[C:1]([O:2][C:3](=[O:4])[C:5]([C:6](=[O:7])[H:13])([H:11])[H:12])([H:8])([H:9])[H:10]>>[C:1]([O:2][C:3](=[O:4])[C:5]([O+:7]=[C-:6][H:13])([H:11])[H:12])([H:8])([H:9])[H:10]"
C       -2.22124165       0.20287977       0.19967281
O       -0.98896295      -0.51886810       0.26241098
C        0.01800715       0.00906531      -0.42743781
O       -0.04880224       0.99011330      -1.11570273
C        1.28014278      -0.82647936      -0.25642115
C        1.95662001       0.44406091       0.86806873
O        2.80277065      -0.21692415       0.14769011
H       -2.56249601       0.28869166      -0.83165474
H       -2.92731857      -0.37357197       0.79060167
H       -2.09455812       1.20007755       0.62080104
H        1.65456228      -1.05495724      -1.25955868
H        1.14272157      -1.67782419       0.39221499
H        1.98855516       1.53373649       0.60931480
13
Frame=1 idx=009299 GeodesicLength=0.07421395566063203 rxn_smarts="[C:1]([O:2][C:3](=[O:4])[C:5]([C:6](=[O:7])[H:13])([H:11])[H:12])([H:8])([H:9])[H:10]>>[C:1]([O:2][C:3](=[O:4])[C:5]([O+:7]=[C-:6][H:13])([H:11])[H:12])([H:8])([H:9])[H:10]"
C       -2.21726132       0.20798409       0.21117879
O       -0.97967348      -0.50397748       0.27941873
C        0.00734161      -0.00900945      -0.46144064
O       -0.06953825       0.96581141      -1.15755512
C        1.28229093      -0.81965329      -0.27279937
C        1.93009456       0.45376975       0.86279148
O        2.80001854      -0.24741067       0.22342509
H       -2.57816452       0.25389640      -0.81600969
H       -2.90971502      -0.34902259       0.83591806
H       -2.08805343       1.22085920       0.59218416
H        1.68594022      -1.01905515      -1.27075354
H        1.13791316      -1.70103702       0.33366366
H        1.99880701       1.54684481       0.63997839
13
Frame=2 idx=009299 GeodesicLength=0.14740280566355018 rxn_smarts="[C:1]([O:2][C:3](=[O:4])[C:5]([C:6](=[O:7])[H:13])([H:11])[H:12])([H:8])([H:9])[H:10]>>[C:1]([O:2][C:3](=[O:4])[C:5]([O+:7]=[C-:6][H:13])([H:11])[H:12])([H:8])([H:9])[H:10]"
C       -2.21488689       0.21156006       0.22114876
O       -0.97002647      -0.48663908       0.29752817
C       -0.00334062      -0.02416551      -0.48957425
O       -0.09125755       0.94270829      -1.19557091
C        1.28338252      -0.81167578      -0.28755544
C        1.91160788       0.46494378       0.85277358
O        2.79290064      -0.28285045       0.29856238
H       -2.59278710       0.21600413      -0.80094098
H       -2.89310809      -0.32628576       0.87749325
H       -2.08774212       1.23918921       0.56109756
H        1.71346360      -0.98093198      -1.27998312
H        1.13312507      -1.72143690       0.27497208
H        2.01866915       1.55957999       0.67004891
13
Frame=3 idx=009299 GeodesicLength=0.21964855716007378 rxn_smarts="[C:1]([O:2][C:3](=[O:4])[C:5]([C:6](=[O:7])[H:13])([H:11])[H:12])([H:8])([H:9])[H:10]>>[C:1]([O:2][C:3](=[O:4])[C:5]([O+:7]=[C-:6][H:13])([H:11])[H:12])([H:8])([H:9])[H:10]"
C       -2.21288598       0.21458227       0.23051351
O       -0.96054070      -0.46920393       0.31375472
C       -0.01410396      -0.03870706      -0.51504657
O       -0.11403217       0.91824505      -1.23307675
C        1.28400420      -0.80333111      -0.30124090
C        1.89862634       0.47792699       0.83838306
O        2.77989445      -0.32035731       0.37426985
H       -2.60710068       0.17826840      -0.78476728
H       -2.87644018      -0.30362012       0.91695999
H       -2.08916416       1.25521380       0.52969515
H        1.73958410      -0.94163350      -1.28701603
H        1.12918294      -1.73958840       0.21589598
H        2.04297580       1.57220492       0.70167525
13
Frame=4 idx=009299 GeodesicLength=0.2907556761137997 rxn_smarts="[C:1]([O:2][C:3](=[O:4])[C:5]([C:6](=[O:7])[H:13])([H:11])[H:12])([H:8])([H:9])[H:10]>>[C:1]([O:2][C:3](=[O:4])[C:5]([O+:7]=[C-:6][H:13])([H:11])[H:12])([H:8])([H:9])[H:10]"
C       -2.21194019       0.21666494       0.23881892
O       -0.95183257      -0.45181641       0.32846019
C       -0.02466477      -0.05151815      -0.53660422
O       -0.13766817       0.89326110      -1.26888874
C        1.28398146      -0.79456863      -0.31344859
C        1.89371587       0.49295992       0.81862637
O        2.76144801      -0.35931968       0.44880338
H       -2.62086550       0.14064849      -0.76842976
H       -2.86092917      -0.28198636       0.95310297
H       -2.09346944       1.26851973       0.49819818
H        1.76283783      -0.90255293      -1.29190620
H        1.12599815      -1.75490795       0.15788606
H        2.07338850       1.58461594       0.73538144
13
Frame=5 idx=009299 GeodesicLength=0.3609242266447046 rxn_smarts="[C:1]([O:2][C:3](=[O:4])[C:5]([C:6](=[O:7])[H:13])([H:11])[H:12])([H:8])([H:9])[H:10]>>[C:1]([O:2][C:3](=[O:4])[C:5]([O+:7]=[C-:6][H:13])([H:11])[H:12])([H:8])([H:9])[H:10]"
C       -2.21178982       0.21812014       0.24620455
O       -0.94419052      -0.43523527       0.34119799
C       -0.03485880      -0.06295876      -0.55491071
O       -0.16203645       0.86711726      -1.30369089
C        1.28349743      -0.78571190      -0.32444795
C        1.89740495       0.51005486       0.79265909
O        2.73751502      -0.39773887       0.52128236
H       -2.63415673       0.10411664      -0.75188650
H       -2.84657073      -0.26097628       0.98617292
H       -2.09942748       1.27935619       0.46721067
H        1.78312354      -0.86530013      -1.29517571
H        1.12401473      -1.76740579       0.10178236
H        2.10747487       1.59656190       0.77360183
13
Frame=6 idx=009299 GeodesicLength=0.43060247036922356 rxn_smarts="[C:1]([O:2][C:3](=[O:4])[C:5]([C:6](=[O:7])[H:13])([H:11])[H:12])([H:8])([H:9])[H:10]>>[C:1]([O:2][C:3](=[O:4])[C:5]([O+:7]=[C-:6][H:13])([H:11])[H:12])([H:8])([H:9])[H:10]"
C       -2.21357892       0.21821482       0.25188168
O       -0.93749250      -0.41721686       0.35437388
C       -0.04411520      -0.07035254      -0.56771504
O       -0.18660262       0.84216109      -1.33524165
C        1.28219795      -0.77640084      -0.33393841
C        1.91417865       0.52887135       0.75845566
O        2.70988022      -0.43531484       0.58900068
H       -2.64617412       0.06575875      -0.73666625
H       -2.83483821      -0.24185432       1.01503331
H       -2.11071804       1.28761689       0.43484819
H        1.79788366      -0.83196924      -1.29788999
H        1.12208238      -1.77618924       0.04963478
H        2.14729676       1.60667498       0.81822316
13
Frame=7 idx=009299 GeodesicLength=0.49928851464328816 rxn_smarts="[C:1]([O:2][C:3](=[O:4])[C:5]([C:6](=[O:7])[H:13])([H:11])[H:12])([H:8])([H:9])[H:10]>>[C:1]([O:2][C:3](=[O:4])[C:5]([O+:7]=[C-:6][H:13])([H:11])[H:12])([H:8])([H:9])[H:10]"
C       -2.21495930       0.21891049       0.25720402
O       -0.93125916      -0.39996275       0.36565696
C       -0.05239917      -0.07705984      -0.57886814
O       -0.21145278       0.81445909      -1.36760802
C        1.28117426      -0.76765339      -0.34340618
C        1.94158104       0.54925006       0.71457958
O        2.67837411      -0.46741592       0.65191848
H       -2.65739969       0.02963245      -0.72058066
H       -2.82317835      -0.22141169       1.04219005
H       -2.12108183       1.29481542       0.40307731
H        1.80930364      -0.80457456      -1.30150806
H        1.12223867      -1.78232493       0.00167949
H        2.17905858       1.61333556       0.87566517
13
Frame=8 idx=009299 GeodesicLength=0.5659632723972314 rxn_smarts="[C:1]([O:2][C:3](=[O:4])[C:5]([C:6](=[O:7])[H:13])([H:11])[H:12])([H:8])([H:9])[H:10]>>[C:1]([O:2][C:3](=[O:4])[C:5]([O+:7]=[C-:6][H:13])([H:11])[H:12])([H:8])([H:9])[H:10]"
C       -2.21444919       0.22165623       0.26285277
O       -0.92508310      -0.38477280       0.37410132
C       -0.05917395      -0.08424860      -0.58955636
O       -0.23632779       0.78199238      -1.40229487
C        1.28145940      -0.75969638      -0.35336254
C        1.98145379       0.57176316       0.65797706
O        2.64504343      -0.49028021       0.70840426
H       -2.66766036      -0.00060536      -0.70300425
H       -2.81040087      -0.19832026       1.06812989
H       -2.12667093       1.30221074       0.37397783
H        1.81760144      -0.78574429      -1.30745293
H        1.12600056      -1.78588870      -0.03979995
H        2.18820756       1.61193410       0.95002776
13
Frame=9 idx=009299 GeodesicLength=0.6335876474796327 rxn_smarts="[C:1]([O:2][C:3](=[O:4])[C:5]([C:6](=[O:7])[H:13])([H:11])[H:12])([H:8])([H:9])[H:10]>>[C:1]([O:2][C:3](=[O:4])[C:5]([O+:7]=[C-:6][H:13])([H:11])[H:12])([H:8])([H:9])[H:10]"
C       -2.21821379       0.22112008       0.26526313
O       -0.91802116      -0.35905056       0.38996064
C       -0.06235197      -0.07760515      -0.58836849
O       -0.25850374       0.75988984      -1.42643504
C        1.28100828      -0.74790189      -0.35992112
C        2.04508492       0.59094486       0.59400414
O        2.61313135      -0.51055259       0.75862000
H       -2.67271267      -0.04154054      -0.68980536
H       -2.80343073      -0.18091406       1.08738009
H       -2.14841667       1.30621145       0.33838222
H        1.81702299      -0.77147458      -1.31424853
H        1.12536422      -1.78257173      -0.07289193
H        2.20003896       1.59344488       1.01806025
13
Frame=10 idx=009299 GeodesicLength=0.7024234789818125 rxn_smarts="[C:1]([O:2][C:3](=[O:4])[C:5]([C:6](=[O:7])[H:13])([H:11])[H:12])([H:8])([H:9])[H:10]>>[C:1]([O:2][C:3](=[O:4])[C:5]([O+:7]=[C-:6][H:13])([H:11])[H:12])([H:8])([H:9])[H:10]"
C       -2.21949761       0.22228613       0.26907449
O       -0.91088131      -0.33665780       0.40220113
C       -0.06432998      -0.07200699      -0.58853716
O       -0.27944048       0.73611970      -1.45041993
C        1.28270833      -0.73486015      -0.36634179
C        2.10877944       0.60258205       0.54046982
O        2.57521405      -0.52287208       0.81177619
H       -2.67704471      -0.07646844      -0.67386866
H       -2.79406727      -0.16095592       1.10751096
H       -2.16411244       1.30999877       0.30699436
H        1.82046490      -0.75279595      -1.31994301
H        1.12939713      -1.77802129      -0.10715742
H        2.19280995       1.56365198       1.06824103
13
Frame=11 idx=009299 GeodesicLength=0.7738196833425071 rxn_smarts="[C:1]([O:2][C:3](=[O:4])[C:5]([C:6](=[O:7])[H:13])([H:11])[H:12])([H:8])([H:9])[H:10]>>[C:1]([O:2][C:3](=[O:4])[C:5]([O+:7]=[C-:6][H:13])([H:11])[H:12])([H:8])([H:9])[H:10]"
C       -2.22279929       0.22122430       0.27177578
O       -0.90474332      -0.31238461       0.41530889
C       -0.06554137      -0.06147839      -0.58506776
O       -0.29856462       0.71838661      -1.46808653
C        1.28394567      -0.71965193      -0.37086863
C        2.17282233       0.60266393       0.50363541
O        2.53188849      -0.53438268       0.86703985
H       -2.67954478      -0.11484550      -0.65894584
H       -2.78742034      -0.14399933       1.12488874
H       -2.18576036       1.31037278       0.27463509
H        1.82430389      -0.72745597      -1.32328181
H        1.13258680      -1.77116972      -0.14284471
H        2.19882691       1.53272049       1.09181150
13
Frame=12 idx=009299 GeodesicLength=0.8454257037343661 rxn_smarts="[C:1]([O:2][C:3](=[O:4])[C:5]([C:6](=[O:7])[H:13])([H:11])[H:12])([H:8])([H:9])[H:10]>>[C:1]([O:2][C:3](=[O:4])[C:5]([O+:7]=[C-:6][H:13])([H:11])[H:12])([H:8])([H:9])[H:10]"
C       -2.22552953       0.22046700       0.27502974
O       -0.90052977      -0.29388104       0.42448165
C       -0.06725033      -0.05360422      -0.58329167
O       -0.31722070       0.69928607      -1.48487279
C        1.28573171      -0.70432908      -0.37511317
C        2.23200480       0.59461905       0.47999898
O        2.48294826      -0.54162927       0.92310077
H       -2.68306282      -0.14692249      -0.64339254
H       -2.78100123      -0.12731771       1.14132309
H       -2.20266690       1.30963467       0.24746139
H        1.83085541      -0.69752310      -1.32495126
H        1.13944992      -1.76388315      -0.17971933
H        2.20627117       1.50508327       1.09994514
13
Frame=13 idx=009299 GeodesicLength=0.9174251413132206 rxn_smarts="[C:1]([O:2][C:3](=[O:4])[C:5]([C:6](=[O:7])[H:13])([H:11])[H:12])([H:8])([H:9])[H:10]>>[C:1]([O:2][C:3](=[O:4])[C:5]([O+:7]=[C-:6][H:13])([H:11])[H:12])([H:8])([H:9])[H:10]"
C       -2.22937016       0.21873501       0.27770659
O       -0.89761962      -0.27594797       0.43301977
C       -0.06914412      -0.04441588      -0.58062353
O       -0.33548949       0.68166247      -1.49939338
C        1.28713581      -0.68810699      -0.37855289
C        2.29103683       0.57859872       0.46548256
O        2.43115485      -0.54647301       0.97720529
H       -2.68627738      -0.17906295      -0.62829702
H       -2.77633751      -0.11202168       1.15599959
H       -2.22131711       1.30696363       0.22081404
H        1.83704243      -0.66482874      -1.32553322
H        1.14702013      -1.75476768      -0.21576800
H        2.22216532       1.47966507       1.09794018
13
Frame=14 idx=009299 GeodesicLength=0.9895007443913311 rxn_smarts="[C:1]([O:2][C:3](=[O:4])[C:5]([C:6](=[O:7])[H:13])([H:11])[H:12])([H:8])([H:9])[H:10]>>[C:1]([O:2][C:3](=[O:4])[C:5]([O+:7]=[C-:6][H:13])([H:11])[H:12])([H:8])([H:9])[H:10]"
C       -2.23399021       0.21645105       0.28001783
O       -0.89579490      -0.25853913       0.44082014
C       -0.07140389      -0.03461944      -0.57773735
O       -0.35386975       0.66403524      -1.51288956
C        1.28827894      -0.67089702      -0.38144986
C        2.34972602       0.55542617       0.45828172
O        2.37752958      -0.54845074       1.02842892
H       -2.68945167      -0.21115516      -0.61306098
H       -2.77283588      -0.09705822       1.16958522
H       -2.24093990       1.30278350       0.19431304
H        1.84300335      -0.62955105      -1.32517955
H        1.15571470      -1.74369254      -0.25081131
H        2.24403361       1.45526734       1.08968174
13
Frame=15 idx=009299 GeodesicLength=1.0615171456666967 rxn_smarts="[C:1]([O:2][C:3](=[O:4])[C:5]([C:6](=[O:7])[H:13])([H:11])[H:12])([H:8])([H:9])[H:10]>>[C:1]([O:2][C:3](=[O:4])[C:5]([O+:7]=[C-:6][H:13])([H:11])[H:12])([H:8])([H:9])[H:10]"
C       -2.23928406       0.21383300       0.28206309
O       -0.89497427      -0.24157431       0.44787136
C       -0.07418262      -0.02456079      -0.57497789
O       -0.37270161       0.64551841      -1.52603114
C        1.28920551      -0.65253831      -0.38384703
C        2.40786776       0.52558703       0.45727353
O        2.32296787      -0.54731542       1.07639104
H       -2.69276927      -0.24311614      -0.59740176
H       -2.77028539      -0.08195737       1.18235043
H       -2.26122926       1.29731596       0.16778294
H        1.84885052      -0.59154158      -1.32379310
H        1.16574777      -1.73053958      -0.28475489
H        2.27078705       1.43088910       1.07707343
13
Frame=16 idx=009299 GeodesicLength=1.1334735091497445 rxn_smarts="[C:1]([O:2][C:3](=[O:4])[C:5]([C:6](=[O:7])[H:13])([H:11])[H:12])([H:8])([H:9])[H:10]>>[C:1]([O:2][C:3](=[O:4])[C:5]([O+:7]=[C-:6][H:13])([H:11])[H:12])([H:8])([H:9])[H:10]"
C       -2.24536150       0.21085605       0.28380427
O       -0.89511808      -0.22456636       0.45439574
C       -0.07755408      -0.01401075      -0.57230069
O       -0.39215740       0.62585853      -1.53899102
C        1.28984144      -0.63276543      -0.38562715
C        2.46549421       0.48911455       0.46159606
O        2.26818685      -0.54297430       1.12104732
H       -2.69617207      -0.27536182      -0.58123898
H       -2.76878349      -0.06667043       1.19428788
H       -2.28258519       1.29049472       0.14084123
H        1.85453972      -0.55052133      -1.32112764
H        1.17692405      -1.71507083      -0.31752057
H        2.30274554       1.40561742       1.06083354
