14
Frame=0 idx=009308 GeodesicLength=0.0 rxn_smarts="[C:1]([C:2]([C@@:3]1([C:6]#[N:7])[C:4]([H:13])([H:14])[O:5]1)([H:11])[H:12])([H:8])([H:9])[H:10]>>[C:1]([C:2]([C:3]([O+:5]=[C:4]([H:13])[H:14])=[C:6]=[N-:7])([H:11])[H:12])([H:8])([H:9])[H:10]"
C       -2.04406593      -0.03014736      -0.17353052
C       -0.76834357      -0.70016715       0.31933142
C        0.48201017      -0.07699186      -0.19023467
C        2.50491858      -0.10211031       0.37532128
O        1.58881973      -0.86272039      -0.20263093
C        0.56772361       1.22599751      -0.71310599
N        0.52337858       2.28409415      -1.18150493
H       -2.08866235       1.01523251       0.13527581
H       -2.91833065      -0.53865670       0.23332230
H       -2.10796755      -0.05711997      -1.26203699
H       -0.75451985      -0.71426558       1.41791226
H       -0.73311351      -1.75323323       0.01497718
H        3.49337819      -0.09934576      -0.06373224
H        2.25477453       0.40943414       1.29063603
14
Frame=1 idx=009308 GeodesicLength=0.031770121151404186 rxn_smarts="[C:1]([C:2]([C@@:3]1([C:6]#[N:7])[C:4]([H:13])([H:14])[O:5]1)([H:11])[H:12])([H:8])([H:9])[H:10]>>[C:1]([C:2]([C:3]([O+:5]=[C:4]([H:13])[H:14])=[C:6]=[N-:7])([H:11])[H:12])([H:8])([H:9])[H:10]"
C       -2.04237523      -0.03054442      -0.17122331
C       -0.76427988      -0.69843197       0.31889476
C        0.48777968      -0.07282903      -0.18536213
C        2.49326711      -0.10410920       0.37838582
O        1.58861853      -0.86642622      -0.21640393
C        0.56960823       1.22590667      -0.72269769
N        0.52482386       2.28485390      -1.18812404
H       -2.08670013       1.01478722       0.13800625
H       -2.91586712      -0.53988669       0.23631909
H       -2.10844144      -0.05756971      -1.25965349
H       -0.75074494      -0.71490348       1.41705595
H       -0.73298899      -1.75108787       0.01329789
H        3.48347846      -0.09421927      -0.05683842
H        2.25382186       0.40446008       1.29834326
14
Frame=2 idx=009308 GeodesicLength=0.0635028850596834 rxn_smarts="[C:1]([C:2]([C@@:3]1([C:6]#[N:7])[C:4]([H:13])([H:14])[O:5]1)([H:11])[H:12])([H:8])([H:9])[H:10]>>[C:1]([C:2]([C:3]([O+:5]=[C:4]([H:13])[H:14])=[C:6]=[N-:7])([H:11])[H:12])([H:8])([H:9])[H:10]"
C       -2.04079439      -0.03116150      -0.16917266
C       -0.76030156      -0.69663534       0.31849589
C        0.49346050      -0.06877856      -0.18069349
C        2.48168699      -0.10615069       0.38120849
O        1.58823108      -0.86993912      -0.22971790
C        0.57134756       1.22549403      -0.73265860
N        0.52675473       2.28642273      -1.19260082
H       -2.08491705       1.01424543       0.14005274
H       -2.91349032      -0.54121776       0.23925342
H       -2.10901060      -0.05869883      -1.25751181
H       -0.74710337      -0.71503843       1.41624289
H       -0.73288049      -1.74900302       0.01212863
H        3.47358004      -0.09003543      -0.05024548
H        2.25343687       0.40049649       1.30521870
14
Frame=3 idx=009308 GeodesicLength=0.09523627183227136 rxn_smarts="[C:1]([C:2]([C@@:3]1([C:6]#[N:7])[C:4]([H:13])([H:14])[O:5]1)([H:11])[H:12])([H:8])([H:9])[H:10]>>[C:1]([C:2]([C:3]([O+:5]=[C:4]([H:13])[H:14])=[C:6]=[N-:7])([H:11])[H:12])([H:8])([H:9])[H:10]"
C       -2.03933059      -0.03199260      -0.16734179
C       -0.75640112      -0.69478720       0.31810596
C        0.49904003      -0.06485461      -0.17631964
C        2.47013882      -0.10819322       0.38381590
O        1.58767720      -0.87327795      -0.24262257
C        0.57292568       1.22475995      -0.74303456
N        0.52933692       2.28871900      -1.19498107
H       -2.08329821       1.01360949       0.14146323
H       -2.91119168      -0.54264143       0.24219820
H       -2.10973372      -0.06049173      -1.25557035
H       -0.74353589      -0.71468272       1.41544483
H       -0.73279645      -1.74698672       0.01143021
H        3.46367234      -0.08668170      -0.04388785
H        2.25349668       0.39750144       1.31129948
14
Frame=4 idx=009308 GeodesicLength=0.12698696922938804 rxn_smarts="[C:1]([C:2]([C@@:3]1([C:6]#[N:7])[C:4]([H:13])([H:14])[O:5]1)([H:11])[H:12])([H:8])([H:9])[H:10]>>[C:1]([C:2]([C:3]([O+:5]=[C:4]([H:13])[H:14])=[C:6]=[N-:7])([H:11])[H:12])([H:8])([H:9])[H:10]"
C       -2.03799579      -0.03304551      -0.16573425
C       -0.75259240      -0.69289013       0.31773480
C        0.50450504      -0.06106334      -0.17224022
C        2.45862151      -0.11022052       0.38620021
O        1.58695310      -0.87648257      -0.25511413
C        0.57433228       1.22370543      -0.75380306
N        0.53271706       2.29172416      -1.19523929
H       -2.08186474       1.01287310       0.14223062
H       -2.90898502      -0.54416594       0.24514401
H       -2.11061110      -0.06296087      -1.25383300
H       -0.74005893      -0.71382394       1.41467469
H       -0.73275041      -1.74504830       0.01122748
H        3.45374017      -0.08406038      -0.03784587
H        2.25398923       0.39545879       1.31659802
14
Frame=5 idx=009308 GeodesicLength=0.15877207599527457 rxn_smarts="[C:1]([C:2]([C@@:3]1([C:6]#[N:7])[C:4]([H:13])([H:14])[O:5]1)([H:11])[H:12])([H:8])([H:9])[H:10]>>[C:1]([C:2]([C:3]([O+:5]=[C:4]([H:13])[H:14])=[C:6]=[N-:7])([H:11])[H:12])([H:8])([H:9])[H:10]"
C       -2.03678923      -0.03429340      -0.16431464
C       -0.74887549      -0.69095259       0.31736960
C        0.50985459      -0.05736498      -0.16841342
C        2.44714051      -0.11222365       0.38840541
O        1.58606873      -0.87953277      -0.26722135
C        0.57556816       1.22244645      -0.76475758
N        0.53689835       2.29521354      -1.19379688
H       -2.08063064       1.01203267       0.14248748
H       -2.90687046      -0.54580755       0.24806907
H       -2.11162814      -0.06597991      -1.25226612
H       -0.73667789      -0.71256145       1.41391889
H       -0.73273749      -1.74317097       0.01142108
H        3.44377737      -0.08204663      -0.03212128
H        2.25490165       0.39424124       1.32121975
14
Frame=6 idx=009308 GeodesicLength=0.1905603467742397 rxn_smarts="[C:1]([C:2]([C@@:3]1([C:6]#[N:7])[C:4]([H:13])([H:14])[O:5]1)([H:11])[H:12])([H:8])([H:9])[H:10]>>[C:1]([C:2]([C:3]([O+:5]=[C:4]([H:13])[H:14])=[C:6]=[N-:7])([H:11])[H:12])([H:8])([H:9])[H:10]"
C       -2.03564427      -0.03557730      -0.16291858
C       -0.74519042      -0.68901778       0.31691480
C        0.51514996      -0.05361619      -0.16469441
C        2.43572407      -0.11425424       0.39068167
O        1.58510832      -0.88225792      -0.27906531
C        0.57671978       1.22137638      -0.77522265
N        0.54117455       2.29849541      -1.19251882
H       -2.07951926       1.01112855       0.14280356
H       -2.90478457      -0.54755617       0.25094604
H       -2.11272623      -0.06897111      -1.25071644
H       -0.73333089      -0.71136509       1.41307440
H       -0.73270024      -1.74127824       0.01150161
H        3.43383951      -0.08047666      -0.02640422
H        2.25617966       0.39337036       1.32561834
14
Frame=7 idx=009308 GeodesicLength=0.2223141237558064 rxn_smarts="[C:1]([C:2]([C@@:3]1([C:6]#[N:7])[C:4]([H:13])([H:14])[O:5]1)([H:11])[H:12])([H:8])([H:9])[H:10]>>[C:1]([C:2]([C:3]([O+:5]=[C:4]([H:13])[H:14])=[C:6]=[N-:7])([H:11])[H:12])([H:8])([H:9])[H:10]"
C       -2.03449064      -0.03675154      -0.16140225
C       -0.74147825      -0.68712279       0.31628769
C        0.52045382      -0.04970413      -0.16095096
C        2.42440204      -0.11637577       0.39326048
O        1.58415678      -0.88450115      -0.29074772
C        0.57789241       1.22082054      -0.78463247
N        0.54479607       2.30102765      -1.19306852
H       -2.07843600       1.01020468       0.14366924
H       -2.90266289      -0.54938721       0.25375531
H       -2.11384464      -0.07142595      -1.24904902
H       -0.72995487      -0.71064567       1.41204838
H       -0.73258966      -1.73930009       0.01101983
H        3.42398526      -0.07923001      -0.02039233
H        2.25777058       0.39239144       1.33020233
14
Frame=8 idx=009308 GeodesicLength=0.25407184382618925 rxn_smarts="[C:1]([C:2]([C@@:3]1([C:6]#[N:7])[C:4]([H:13])([H:14])[O:5]1)([H:11])[H:12])([H:8])([H:9])[H:10]>>[C:1]([C:2]([C:3]([O+:5]=[C:4]([H:13])[H:14])=[C:6]=[N-:7])([H:11])[H:12])([H:8])([H:9])[H:10]"
C       -2.03334873      -0.03787499      -0.15982255
C       -0.73775650      -0.68525909       0.31551856
C        0.52574423      -0.04573171      -0.15730088
C        2.41314348      -0.11857320       0.39605597
O        1.58320967      -0.88638091      -0.30223980
C        0.57908000       1.22057657      -0.79337333
N        0.54806208       2.30315499      -1.19461355
H       -2.07737291       1.00926441       0.14482835
H       -2.90052222      -0.55126488       0.25656782
H       -2.11504039      -0.07361184      -1.24731498
H       -0.72653766      -0.71019182       1.41087641
H       -0.73244098      -1.73728447       0.01019413
H        3.41418349      -0.07828349      -0.01418985
H        2.25959644       0.39146042       1.33481369
14
Frame=9 idx=009308 GeodesicLength=0.28584664960466233 rxn_smarts="[C:1]([C:2]([C@@:3]1([C:6]#[N:7])[C:4]([H:13])([H:14])[O:5]1)([H:11])[H:12])([H:8])([H:9])[H:10]>>[C:1]([C:2]([C:3]([O+:5]=[C:4]([H:13])[H:14])=[C:6]=[N-:7])([H:11])[H:12])([H:8])([H:9])[H:10]"
C       -2.03223202      -0.03898308      -0.15820479
C       -0.73403300      -0.68342526       0.31461704
C        0.53100436      -0.04176495      -0.15383503
C        2.40191768      -0.12081840       0.39901987
O        1.58227584      -0.88797104      -0.31352444
C        0.58027396       1.22050136      -0.80172268
N        0.55118025       2.30510533      -1.19663883
H       -2.07631477       1.00831144       0.14612957
H       -2.89836843      -0.55315693       0.25945421
H       -2.11636700      -0.07569808      -1.24553179
H       -0.72305441      -0.70988431       1.40956915
H       -0.73227577      -1.73526300       0.00914161
H        3.40441471      -0.07762211      -0.00782741
H        2.26157861       0.39066904       1.33935353
14
Frame=10 idx=009308 GeodesicLength=0.31763918420639964 rxn_smarts="[C:1]([C:2]([C@@:3]1([C:6]#[N:7])[C:4]([H:13])([H:14])[O:5]1)([H:11])[H:12])([H:8])([H:9])[H:10]>>[C:1]([C:2]([C:3]([O+:5]=[C:4]([H:13])[H:14])=[C:6]=[N-:7])([H:11])[H:12])([H:8])([H:9])[H:10]"
C       -2.03112340      -0.04005888      -0.15653119
C       -0.73029511      -0.68161464       0.31357599
C        0.53624334      -0.03776291      -0.15052098
C        2.39073369      -0.12310792       0.40216804
O        1.58137137      -0.88922063      -0.32463487
C        0.58149286       1.22068903      -0.80957205
N        0.55397685       2.30679516      -1.19941449
H       -2.07524987       1.00734568       0.14763185
H       -2.89618247      -0.55506905       0.26241027
H       -2.11780536      -0.07762512      -1.24367988
H       -0.71949816      -0.70976700       1.40811508
H       -0.73207292      -1.73320949       0.00780638
H        3.39468225      -0.07729123      -0.00119190
H        2.26372692       0.38989700       1.34383776
14
Frame=11 idx=009308 GeodesicLength=0.3494521519190775 rxn_smarts="[C:1]([C:2]([C@@:3]1([C:6]#[N:7])[C:4]([H:13])([H:14])[O:5]1)([H:11])[H:12])([H:8])([H:9])[H:10]>>[C:1]([C:2]([C:3]([O+:5]=[C:4]([H:13])[H:14])=[C:6]=[N-:7])([H:11])[H:12])([H:8])([H:9])[H:10]"
C       -2.03004513      -0.04114077      -0.15485755
C       -0.72656950      -0.67981607       0.31243700
C        0.54144551      -0.03376933      -0.14736118
C        2.37959621      -0.12543144       0.40543299
O        1.58047987      -0.89021344      -0.33552711
C        0.58272506       1.22102587      -0.81708781
N        0.55665307       2.30840456      -1.20244352
H       -2.07420889       1.00636514       0.14916961
H       -2.89399455      -0.55699506       0.26541838
H       -2.11935600      -0.07954962      -1.24181567
H       -0.71591104      -0.70970831       1.40656176
H       -0.73185766      -1.73115137       0.00634608
H        3.38499173      -0.07725388       0.00551391
H        2.26605131       0.38923372       1.34821311
14
Frame=12 idx=009308 GeodesicLength=0.38128535281116055 rxn_smarts="[C:1]([C:2]([C@@:3]1([C:6]#[N:7])[C:4]([H:13])([H:14])[O:5]1)([H:11])[H:12])([H:8])([H:9])[H:10]>>[C:1]([C:2]([C:3]([O+:5]=[C:4]([H:13])[H:14])=[C:6]=[N-:7])([H:11])[H:12])([H:8])([H:9])[H:10]"
C       -2.02899544      -0.04223025      -0.15319775
C       -0.72286280      -0.67802041       0.31121932
C        0.54661026      -0.02977042      -0.14431416
C        2.36852043      -0.12778485       0.40879486
O        1.57959746      -0.89094769      -0.34619939
C        0.58397289       1.22153616      -0.82423274
N        0.55919326       2.30990746      -1.20572100
H       -2.07320556       1.00536852       0.15072144
H       -2.89180851      -0.55893977       0.26844737
H       -2.12099053      -0.08148213      -1.23995353
H       -0.71232028      -0.70969041       1.40492810
H       -0.73162863      -1.72908134       0.00479030
H        3.37534551      -0.07749175       0.01224532
H        2.26857194       0.38862688       1.35247186
14
Frame=13 idx=009308 GeodesicLength=0.4131338225926948 rxn_smarts="[C:1]([C:2]([C@@:3]1([C:6]#[N:7])[C:4]([H:13])([H:14])[O:5]1)([H:11])[H:12])([H:8])([H:9])[H:10]>>[C:1]([C:2]([C:3]([O+:5]=[C:4]([H:13])[H:14])=[C:6]=[N-:7])([H:11])[H:12])([H:8])([H:9])[H:10]"
C       -2.02798368      -0.04334608      -0.15156511
C       -0.71918355      -0.67622785       0.30992965
C        0.55172595      -0.02579521      -0.14140423
C        2.35749677      -0.13013737       0.41221726
O        1.57872099      -0.89148019      -0.35661585
C        0.58522226       1.22212764      -0.83115575
N        0.56170572       2.31144672      -1.20898444
H       -2.07224232       1.00434906       0.15222597
H       -2.88963100      -0.56090296       0.27150695
H       -2.12272562      -0.08348772      -1.23810168
H       -0.70872578      -0.70966371       1.40321861
H       -0.73139634      -1.72701304       0.00319537
H        3.36573038      -0.07803230       0.01897989
H        2.27128623       0.38816302       1.35655336
14
Frame=14 idx=009308 GeodesicLength=0.4449987328729436 rxn_smarts="[C:1]([C:2]([C@@:3]1([C:6]#[N:7])[C:4]([H:13])([H:14])[O:5]1)([H:11])[H:12])([H:8])([H:9])[H:10]>>[C:1]([C:2]([C:3]([O+:5]=[C:4]([H:13])[H:14])=[C:6]=[N-:7])([H:11])[H:12])([H:8])([H:9])[H:10]"
C       -2.02700824      -0.04448539      -0.14996226
C       -0.71553539      -0.67443388       0.30858141
C        0.55679506      -0.02182679      -0.13859767
C        2.34653888      -0.13248488       0.41569337
O        1.57785110      -0.89179908      -0.36679154
C        0.58647974       1.22283945      -0.83781447
N        0.56415592       2.31297804      -1.21230256
H       -2.07132781       1.00330970       0.15369096
H       -2.88746665      -0.56289262       0.27457494
H       -2.12453914      -0.08555222      -1.23626791
H       -0.70514633      -0.70962877       1.40145105
H       -0.73116033      -1.72494322       0.00156883
H        3.35616511      -0.07885328       0.02570276
H        2.27419808       0.38777294       1.36047308
14
Frame=15 idx=009308 GeodesicLength=0.47687266516222654 rxn_smarts="[C:1]([C:2]([C@@:3]1([C:6]#[N:7])[C:4]([H:13])([H:14])[O:5]1)([H:11])[H:12])([H:8])([H:9])[H:10]>>[C:1]([C:2]([C:3]([O+:5]=[C:4]([H:13])[H:14])=[C:6]=[N-:7])([H:11])[H:12])([H:8])([H:9])[H:10]"
C       -2.02607044      -0.04565142      -0.14840127
C       -0.71192474      -0.67263295       0.30718924
C        0.56181657      -0.01786080      -0.13586278
C        2.33566001      -0.13481659       0.41920394
O        1.57698323      -0.89191853      -0.37671141
C        0.58774328       1.22366586      -0.84420204
N        0.56653865       2.31450864      -1.21564075
H       -2.07047403       1.00224685       0.15509847
H       -2.88532297      -0.56491271       0.27762253
H       -2.12641050      -0.08768177      -1.23446436
H       -0.70160513      -0.70957002       1.39963890
H       -0.73092164      -1.72286855      -0.00006419
H        3.34665557      -0.07995257       0.03237044
H        2.27733216       0.38744457       1.36422327
14
Frame=16 idx=009308 GeodesicLength=0.5087487953253752 rxn_smarts="[C:1]([C:2]([C@@:3]1([C:6]#[N:7])[C:4]([H:13])([H:14])[O:5]1)([H:11])[H:12])([H:8])([H:9])[H:10]>>[C:1]([C:2]([C:3]([O+:5]=[C:4]([H:13])[H:14])=[C:6]=[N-:7])([H:11])[H:12])([H:8])([H:9])[H:10]"
C       -2.02517248      -0.04685089      -0.14689707
C       -0.70835848      -0.67081909       0.30577006
C        0.56678847      -0.01389675      -0.13317577
C        2.32487215      -0.13712177       0.42272638
O        1.57611029      -0.89185635      -0.38636499
C        0.58901002       1.22459581      -0.85033071
N        0.56886142       2.31606479      -1.21892472
H       -2.06969310       1.00115812       0.15641738
H       -2.88320813      -0.56696704       0.28062562
H       -2.12832142      -0.08989732      -1.23270717
H       -0.69812404      -0.70945963       1.39780001
H       -0.73068287      -1.72079002      -0.00166510
H        3.33720818      -0.08133064       0.03894062
H        2.28070998       0.38717077       1.36778546
