17
Frame=0 idx=000429 GeodesicLength=0.0 rxn_smarts="[C:1]([C:2]([N:3]1[C:4]([H:12])([H:13])[C@:5]1([C:6]([H:15])([H:16])[H:17])[H:14])([H:10])[H:11])([H:7])([H:8])[H:9]>>[C:1]([C:2]([N+:3]([C-:4]([H:12])[H:13])=[C:5]([C:6]([H:15])([H:16])[H:17])[H:14])([H:10])[H:11])([H:7])([H:8])[H:9]"
C       -1.73788578       1.15071452       0.07880984
C       -1.26294364      -0.22866101      -0.34012686
N       -0.05275779      -0.63140196       0.35243614
C        0.33748466      -1.86212883       0.77250949
C        1.12970429       0.00668533       0.48966081
C        1.82691683       0.63561802      -0.67191693
H       -2.64494214       1.42231402      -0.46347174
H       -1.95099178       1.17573068       1.14851262
H       -0.98222254       1.90963224      -0.12963754
H       -2.00794285      -0.99179538      -0.10131413
H       -1.10866102      -0.27390842      -1.42511263
H       -0.23640966      -2.40029686       1.52554436
H        1.12440892      -2.38001658       0.24182536
H        1.53862739       0.08106052       1.48573899
H        2.68871934       1.21940169      -0.35026640
H        1.15807699       1.29395593      -1.23593106
H        2.18081874      -0.12690399      -1.37726025
17
Frame=1 idx=000429 GeodesicLength=0.09049061439491181 rxn_smarts="[C:1]([C:2]([N:3]1[C:4]([H:12])([H:13])[C@:5]1([C:6]([H:15])([H:16])[H:17])[H:14])([H:10])[H:11])([H:7])([H:8])[H:9]>>[C:1]([C:2]([N+:3]([C-:4]([H:12])[H:13])=[C:5]([C:6]([H:15])([H:16])[H:17])[H:14])([H:10])[H:11])([H:7])([H:8])[H:9]"
C       -1.73272623       1.16004520       0.04574272
C       -1.28815875      -0.24442814      -0.31387302
N       -0.04985938      -0.64363236       0.32009591
C        0.35775297      -1.87075507       0.73584015
C        1.12072236       0.00341665       0.50040563
C        1.84026754       0.64922150      -0.63755944
H       -2.67799528       1.39916020      -0.44447560
H       -1.86729776       1.25936097       1.12366004
H       -1.00116651       1.90286172      -0.27438126
H       -2.03437278      -0.97597031       0.00838048
H       -1.19606861      -0.35488719      -1.40098674
H       -0.22041137      -2.42607459       1.47208328
H        1.15205212      -2.37771529       0.20582706
H        1.51073984       0.06952879       1.50480364
H        2.72404500       1.18667326      -0.29498462
H        1.19727822       1.35523961      -1.17252154
H        2.16519863      -0.09204495      -1.37805669
17
Frame=2 idx=000429 GeodesicLength=0.1815907706311385 rxn_smarts="[C:1]([C:2]([N:3]1[C:4]([H:12])([H:13])[C@:5]1([C:6]([H:15])([H:16])[H:17])[H:14])([H:10])[H:11])([H:7])([H:8])[H:9]>>[C:1]([C:2]([N+:3]([C-:4]([H:12])[H:13])=[C:5]([C:6]([H:15])([H:16])[H:17])[H:14])([H:10])[H:11])([H:7])([H:8])[H:9]"
C       -1.72475806       1.16899731       0.00531921
C       -1.31423159      -0.26084019      -0.28244269
N       -0.04669513      -0.65697928       0.28382738
C        0.37767952      -1.88106311       0.69377304
C        1.11052811      -0.00230802       0.51126543
C        1.85200677       0.66615901      -0.59874099
H       -2.70581910       1.38030514      -0.42396836
H       -1.77354577       1.35083425       1.07957969
H       -1.02431338       1.88053886      -0.43244590
H       -2.05392739      -0.95068613       0.13483590
H       -1.29625902      -0.44541189      -1.36302227
H       -0.20263546      -2.45429083       1.41351365
H        1.17995605      -2.37539835       0.16404828
H        1.48101205       0.05179403       1.52395048
H        2.75655057       1.15290899      -0.23478039
H        1.23637364       1.42153849      -1.09645986
H        2.14807817      -0.04609828      -1.37825258
17
Frame=3 idx=000429 GeodesicLength=0.2716961876856718 rxn_smarts="[C:1]([C:2]([N:3]1[C:4]([H:12])([H:13])[C@:5]1([C:6]([H:15])([H:16])[H:17])[H:14])([H:10])[H:11])([H:7])([H:8])[H:9]>>[C:1]([C:2]([N+:3]([C-:4]([H:12])[H:13])=[C:5]([C:6]([H:15])([H:16])[H:17])[H:14])([H:10])[H:11])([H:7])([H:8])[H:9]"
C       -1.71375827       1.17662866      -0.04384388
C       -1.33988925      -0.27688485      -0.24420652
N       -0.04331801      -0.67072300       0.24509463
C        0.39683240      -1.89301361       0.64624300
C        1.10000707      -0.01149859       0.52235521
C        1.86072887       0.68684864      -0.55541089
H       -2.72558771       1.36724148      -0.40666915
H       -1.67405682       1.44772187       1.01164215
H       -1.05085247       1.83913516      -0.60015251
H       -2.06208770      -0.91233236       0.27820215
H       -1.40768200      -0.54401157      -1.30522308
H       -0.18405006      -2.48512779       1.34912935
H        1.20639869      -2.37335825       0.11490315
H        1.45224754       0.02559748       1.54251330
H        2.78484097       1.11887239      -0.17162450
H        1.27261935       1.49213361      -1.00519827
H        2.12760740       0.01277072      -1.37775414
17
Frame=4 idx=000429 GeodesicLength=0.3598295365731547 rxn_smarts="[C:1]([C:2]([N:3]1[C:4]([H:12])([H:13])[C@:5]1([C:6]([H:15])([H:16])[H:17])[H:14])([H:10])[H:11])([H:7])([H:8])[H:9]>>[C:1]([C:2]([N+:3]([C-:4]([H:12])[H:13])=[C:5]([C:6]([H:15])([H:16])[H:17])[H:14])([H:10])[H:11])([H:7])([H:8])[H:9]"
C       -1.70020246       1.18130767      -0.10162547
C       -1.36331824      -0.29087300      -0.19890232
N       -0.03979551      -0.68407345       0.20475880
C        0.41413288      -1.90619670       0.59395874
C        1.09029472      -0.02509157       0.53316871
C        1.86546339       0.71111151      -0.50828857
H       -2.73612757       1.36018737      -0.39650079
H       -1.57371473       1.54461542       0.91858830
H       -1.07973013       1.77666820      -0.77090307
H       -2.05400963      -0.85773932       0.43408797
H       -1.52640588      -0.64555854      -1.22314157
H       -0.16702743      -2.51727647       1.27925853
H        1.22957507      -2.37218425       0.05895416
H        1.42681337      -0.01004717       1.55942291
H        2.80765128       1.08609183      -0.10838563
H        1.30330600       1.56417406      -0.89868662
H        2.10309487       0.08488442      -1.37576408
17
Frame=5 idx=000429 GeodesicLength=0.4455603496015549 rxn_smarts="[C:1]([C:2]([N:3]1[C:4]([H:12])([H:13])[C@:5]1([C:6]([H:15])([H:16])[H:17])[H:14])([H:10])[H:11])([H:7])([H:8])[H:9]>>[C:1]([C:2]([N+:3]([C-:4]([H:12])[H:13])=[C:5]([C:6]([H:15])([H:16])[H:17])[H:14])([H:10])[H:11])([H:7])([H:8])[H:9]"
C       -1.68613071       1.18129490      -0.16533261
C       -1.38229945      -0.30063291      -0.14803515
N       -0.03630545      -0.69551661       0.16453016
C        0.42837709      -1.91929499       0.53903217
C        1.08270592      -0.04289236       0.54297477
C        1.86647022       0.73738748      -0.45918715
H       -2.73877216       1.35695704      -0.39648184
H       -1.48043415       1.63441048       0.80469830
H       -1.11047561       1.69561860      -0.93426488
H       -2.02647017      -0.78659589       0.59249597
H       -1.64428061      -0.74168812      -1.11656962
H       -0.15451034      -2.54819415       1.20560277
H        1.24739696      -2.37206932      -0.00172685
H        1.40724099      -0.05410812       1.57338995
H        2.82510579       1.05563716      -0.04894536
H        1.32740010       1.63270870      -0.78105863
H        2.07498157       0.16697812      -1.37112200
17
Frame=6 idx=000429 GeodesicLength=0.5284683745742852 rxn_smarts="[C:1]([C:2]([N:3]1[C:4]([H:12])([H:13])[C@:5]1([C:6]([H:15])([H:16])[H:17])[H:14])([H:10])[H:11])([H:7])([H:8])[H:9]>>[C:1]([C:2]([N+:3]([C-:4]([H:12])[H:13])=[C:5]([C:6]([H:15])([H:16])[H:17])[H:14])([H:10])[H:11])([H:7])([H:8])[H:9]"
C       -1.67473167       1.17571654      -0.23018477
C       -1.39523447      -0.30462790      -0.09488909
N       -0.03305722      -0.70341039       0.12650782
C        0.43878769      -1.93049891       0.48464270
C        1.07823743      -0.06344207       0.55101045
C        1.86556696       0.76299271      -0.41065306
H       -2.73763660       1.35350559      -0.40680551
H       -1.40282428       1.71126475       0.67956235
H       -1.14321966       1.60319934      -1.07984821
H       -1.98078832      -0.70282413       0.74067876
H       -1.75107996      -0.82426639      -0.99168792
H       -0.14859279      -2.57469234       1.13150987
H        1.25838098      -2.37273852      -0.06382781
H        1.39499537      -0.10322201       1.58341924
H        2.83915924       1.02704643       0.00316672
H        1.34701708       1.69299982      -0.65930206
H        2.04502022       0.25299747      -1.36329948
17
Frame=7 idx=000429 GeodesicLength=0.6096927937896243 rxn_smarts="[C:1]([C:2]([N:3]1[C:4]([H:12])([H:13])[C@:5]1([C:6]([H:15])([H:16])[H:17])[H:14])([H:10])[H:11])([H:7])([H:8])[H:9]>>[C:1]([C:2]([N+:3]([C-:4]([H:12])[H:13])=[C:5]([C:6]([H:15])([H:16])[H:17])[H:14])([H:10])[H:11])([H:7])([H:8])[H:9]"
C       -1.66797651       1.16479913      -0.29285978
C       -1.40198303      -0.30290416      -0.04278818
N       -0.03007550      -0.70733794       0.09080490
C        0.44521172      -1.93893162       0.43260390
C        1.07676085      -0.08531892       0.55682748
C        1.86474305       0.78632804      -0.36372702
H       -2.73700550       1.34682623      -0.42253707
H       -1.34117370       1.77380293       0.55006413
H       -1.18031640       1.50545397      -1.20579076
H       -1.92112937      -0.61150733       0.87086187
H       -1.84160019      -0.89002282      -0.85670301
H       -0.14955657      -2.59473918       1.05991534
H        1.26288237      -2.37400788      -0.12432566
H        1.38869661      -0.15408155       1.58949340
H        2.85203317       0.99909863       0.04750035
H        1.36549492       1.74350576      -0.53739899
H        2.01499410       0.33903671      -1.35194091
17
Frame=8 idx=000429 GeodesicLength=0.6906200918935272 rxn_smarts="[C:1]([C:2]([N:3]1[C:4]([H:12])([H:13])[C@:5]1([C:6]([H:15])([H:16])[H:17])[H:14])([H:10])[H:11])([H:7])([H:8])[H:9]>>[C:1]([C:2]([N+:3]([C-:4]([H:12])[H:13])=[C:5]([C:6]([H:15])([H:16])[H:17])[H:14])([H:10])[H:11])([H:7])([H:8])[H:9]"
C       -1.66623360       1.14922897      -0.35250560
C       -1.40315870      -0.29614738       0.00673688
N       -0.02729073      -0.70754210       0.05736182
C        0.44803821      -1.94461349       0.38327958
C        1.07789283      -0.10781029       0.56058307
C        1.86493563       0.80714937      -0.31808931
H       -2.73882106       1.33618377      -0.43940100
H       -1.29258849       1.82349962       0.41806797
H       -1.22366366       1.40464289      -1.31499253
H       -1.85165155      -0.51559990       0.98140798
H       -1.91479797      -0.93986591      -0.71690202
H       -0.15648235      -2.60824838       0.99193809
H        1.26165195      -2.37570460      -0.18254192
H        1.38690295      -0.20528200       1.59216367
H        2.86503517       0.97079159       0.08489128
H        1.38501611       1.78485414      -0.41525001
H        1.98521527       0.42446373      -1.33674794
17
Frame=9 idx=000429 GeodesicLength=0.7722883397562851 rxn_smarts="[C:1]([C:2]([N:3]1[C:4]([H:12])([H:13])[C@:5]1([C:6]([H:15])([H:16])[H:17])[H:14])([H:10])[H:11])([H:7])([H:8])[H:9]>>[C:1]([C:2]([N+:3]([C-:4]([H:12])[H:13])=[C:5]([C:6]([H:15])([H:16])[H:17])[H:14])([H:10])[H:11])([H:7])([H:8])[H:9]"
C       -1.66886849       1.12957005      -0.40936957
C       -1.39945225      -0.28506912       0.05310410
N       -0.02456303      -0.70465831       0.02576256
C        0.44771150      -1.94803813       0.33632113
C        1.08126572      -0.13084670       0.56240934
C        1.86610995       0.82600077      -0.27290891
H       -2.74301953       1.32265906      -0.45414359
H       -1.25280658       1.86164064       0.28261807
H       -1.27458656       1.30041269      -1.41090139
H       -1.77531209      -0.41623921       1.07317195
H       -1.97177491      -0.97558716      -0.57510672
H       -0.16835463      -2.61590746       0.92771428
H        1.25554761      -2.37788659      -0.23857680
H        1.38831879      -0.25651890       1.59190468
H        2.87822509       0.94240324       0.11655920
H        1.40600160       1.81785817      -0.29151771
H        1.95555782       0.51020696      -1.31704064
17
Frame=10 idx=000429 GeodesicLength=0.8555579088742986 rxn_smarts="[C:1]([C:2]([N:3]1[C:4]([H:12])([H:13])[C@:5]1([C:6]([H:15])([H:16])[H:17])[H:14])([H:10])[H:11])([H:7])([H:8])[H:9]>>[C:1]([C:2]([N+:3]([C-:4]([H:12])[H:13])=[C:5]([C:6]([H:15])([H:16])[H:17])[H:14])([H:10])[H:11])([H:7])([H:8])[H:9]"
C       -1.67492382       1.10608894      -0.46417104
C       -1.39132321      -0.27007288       0.09633971
N       -0.02169512      -0.69935864      -0.00453122
C        0.44455839      -1.94984314       0.29099966
C        1.08676598      -0.15480640       0.56223677
C        1.86775224       0.84371043      -0.22711783
H       -2.74841474       1.30818353      -0.46485090
H       -1.21796192       1.88866329       0.14125738
H       -1.33409574       1.19099522      -1.49598940
H       -1.69347651      -0.31310258       1.14782180
H       -2.01428078      -0.99869550      -0.43196454
H       -0.18448694      -2.61864533       0.86667174
H        1.24508016      -2.38080731      -0.29317370
H        1.39212751      -0.30826321       1.58890641
H        2.89100825       0.91528609       0.14395531
H        1.42756091       1.84290652      -0.16464089
H        1.92580537       0.59776097      -1.29174927
17
Frame=11 idx=000429 GeodesicLength=0.9411058036261685 rxn_smarts="[C:1]([C:2]([N:3]1[C:4]([H:12])([H:13])[C@:5]1([C:6]([H:15])([H:16])[H:17])[H:14])([H:10])[H:11])([H:7])([H:8])[H:9]>>[C:1]([C:2]([N+:3]([C-:4]([H:12])[H:13])=[C:5]([C:6]([H:15])([H:16])[H:17])[H:14])([H:10])[H:11])([H:7])([H:8])[H:9]"
C       -1.68381827       1.07909277      -0.51699222
C       -1.37884242      -0.25130111       0.13607719
N       -0.01827731      -0.69202286      -0.03458642
C        0.43875635      -1.95036668       0.24662647
C        1.09440278      -0.17995500       0.55965491
C        1.86973864       0.86070638      -0.17984537
H       -2.75355982       1.29517361      -0.46908111
H       -1.18527078       1.90396138      -0.00823907
H       -1.40490117       1.07545273      -1.57081982
H       -1.60625099      -0.20643053       1.20604537
H       -2.04313877      -1.00997102      -0.28826700
H       -0.20478913      -2.61686337       0.80801728
H        1.23068011      -2.38491010      -0.34650840
H        1.39722032      -0.36057533       1.58314701
H        2.90268346       0.89186921       0.16972000
H        1.44777549       1.85948616      -0.03544568
H        1.89759151       0.68665376      -1.25950313
17
Frame=12 idx=000429 GeodesicLength=1.0270508987175768 rxn_smarts="[C:1]([C:2]([N:3]1[C:4]([H:12])([H:13])[C@:5]1([C:6]([H:15])([H:16])[H:17])[H:14])([H:10])[H:11])([H:7])([H:8])[H:9]>>[C:1]([C:2]([N+:3]([C-:4]([H:12])[H:13])=[C:5]([C:6]([H:15])([H:16])[H:17])[H:14])([H:10])[H:11])([H:7])([H:8])[H:9]"
C       -1.69432099       1.04927122      -0.56676388
C       -1.36249222      -0.22936289       0.17226431
N       -0.01434836      -0.68326992      -0.06368805
C        0.43080909      -1.94992213       0.20396320
C        1.10408687      -0.20602965       0.55441184
C        1.87094769       0.87710362      -0.13185652
H       -2.75649700       1.28507359      -0.46935853
H       -1.15604541       1.90615612      -0.16195106
H       -1.48172744       0.95575933      -1.63198513
H       -1.51658505      -0.09770899       1.24800145
H       -2.05854207      -1.00986972      -0.14703766
H       -0.22859250      -2.61116592       0.75221998
H        1.21217223      -2.39022651      -0.39881579
H        1.40368413      -0.41269136       1.57443647
H        2.91218920       0.87398261       0.19398809
H        1.46447912       1.86767730       0.09292950
H        1.87078273       0.77522329      -1.22075825
17
Frame=13 idx=000429 GeodesicLength=1.1158314656939063 rxn_smarts="[C:1]([C:2]([N:3]1[C:4]([H:12])([H:13])[C@:5]1([C:6]([H:15])([H:16])[H:17])[H:14])([H:10])[H:11])([H:7])([H:8])[H:9]>>[C:1]([C:2]([N+:3]([C-:4]([H:12])[H:13])=[C:5]([C:6]([H:15])([H:16])[H:17])[H:14])([H:10])[H:11])([H:7])([H:8])[H:9]"
C       -1.70658421       1.01669103      -0.61398036
C       -1.34186171      -0.20395796       0.20461857
N       -0.00927418      -0.67305819      -0.09357820
C        0.42075138      -1.94854941       0.16186273
C        1.11606794      -0.23325997       0.54584069
C        1.87200775       0.89287356      -0.08197987
H       -2.75646388       1.27897299      -0.46469663
H       -1.13019966       1.89472747      -0.32257166
H       -1.56857963       0.83168879      -1.67969717
H       -1.42219642       0.01352558       1.27438106
H       -2.06104685      -0.99903210      -0.00713506
H       -0.25616313      -2.60141768       0.69790211
H        1.19016367      -2.39715834      -0.45002978
H        1.41023356      -0.46473824       1.56271351
H        2.92002392       0.86217432       0.22005476
H        1.47673381       1.86728352       0.22092253
H        1.84638765       0.86323464      -1.17462723
17
Frame=14 idx=000429 GeodesicLength=1.2054890173545125 rxn_smarts="[C:1]([C:2]([N:3]1[C:4]([H:12])([H:13])[C@:5]1([C:6]([H:15])([H:16])[H:17])[H:14])([H:10])[H:11])([H:7])([H:8])[H:9]>>[C:1]([C:2]([N+:3]([C-:4]([H:12])[H:13])=[C:5]([C:6]([H:15])([H:16])[H:17])[H:14])([H:10])[H:11])([H:7])([H:8])[H:9]"
C       -1.71966707       0.98239514      -0.65672297
C       -1.31812345      -0.17666441       0.23256812
N       -0.00350558      -0.66202805      -0.12369894
C        0.40965864      -1.94603190       0.12155702
C        1.12895699      -0.26007950       0.53434059
C        1.87178983       0.90746722      -0.03195162
H       -2.75191876       1.27851383      -0.45715604
H       -1.10792665       1.86784236      -0.48302296
H       -1.65923632       0.70706769      -1.71022642
H       -1.32721187       0.12347643       1.28512789
H       -2.05171323      -0.97852955       0.12621402
H       -0.28629387      -2.58801205       0.64533753
H        1.16630360      -2.40456208      -0.49877209
H        1.41555000      -0.51406728       1.54861993
H        2.92536014       0.85581565       0.24712748
H        1.48424024       1.85965578       0.34387787
H        1.82373738       0.94774073      -1.12321939
17
Frame=15 idx=000429 GeodesicLength=1.2975404714432066 rxn_smarts="[C:1]([C:2]([N:3]1[C:4]([H:12])([H:13])[C@:5]1([C:6]([H:15])([H:16])[H:17])[H:14])([H:10])[H:11])([H:7])([H:8])[H:9]>>[C:1]([C:2]([N+:3]([C-:4]([H:12])[H:13])=[C:5]([C:6]([H:15])([H:16])[H:17])[H:14])([H:10])[H:11])([H:7])([H:8])[H:9]"
C       -1.73400793       0.94680023      -0.69542068
C       -1.29131091      -0.14731807       0.25606311
N        0.00341099      -0.64983606      -0.15472975
C        0.39777417      -1.94220265       0.08280376
C        1.14289453      -0.28620428       0.52012149
C        1.87143165       0.92039319       0.01851567
H       -2.74396327       1.28170474      -0.44909640
H       -1.09315920       1.82732389      -0.64204659
H       -1.75321005       0.58427763      -1.72396621
H       -1.23113592       0.23186737       1.28110920
H       -2.03072463      -0.94973796       0.25317674
H       -0.31878545      -2.57070264       0.59419451
H        1.14101271      -2.41250866      -0.54484427
H        1.41911850      -0.56063802       1.53268299
H        2.92970752       0.85281023       0.27561300
H        1.48865108       1.84514201       0.46251956
H        1.80229621       1.02882903      -1.06669614
17
Frame=16 idx=000429 GeodesicLength=1.3927618070057988 rxn_smarts="[C:1]([C:2]([N:3]1[C:4]([H:12])([H:13])[C@:5]1([C:6]([H:15])([H:16])[H:17])[H:14])([H:10])[H:11])([H:7])([H:8])[H:9]>>[C:1]([C:2]([N+:3]([C-:4]([H:12])[H:13])=[C:5]([C:6]([H:15])([H:16])[H:17])[H:14])([H:10])[H:11])([H:7])([H:8])[H:9]"
C       -1.74922635       0.91008792      -0.73029561
C       -1.26191846      -0.11636036       0.27498204
N        0.01142190      -0.63662896      -0.18662894
C        0.38551869      -1.93694708       0.04591519
C        1.15728263      -0.31097987       0.50374419
C        1.87071134       0.93148852       0.06920822
H       -2.73265151       1.28787815      -0.44260087
H       -1.08644270       1.77359938      -0.79741325
H       -1.84753294       0.46459970      -1.72123470
H       -1.13523329       0.33782479       1.26291323
H       -1.99905296      -0.91372543       0.37258155
H       -0.35306829      -2.54945647       0.54442497
H        1.11509618      -2.42054619      -0.58762117
H        1.42041250      -0.60377191       1.51547304
H        2.93351707       0.85087895       0.30278326
H        1.49239029       1.82410376       0.57884055
H        1.77877591       1.10795510      -1.00507170
