13
Frame=0 idx=007488 GeodesicLength=0.0 rxn_smarts="[C:1]([O:2][c:3]1[c:4]([H:11])[n:5][c:6]([H:12])[n:7]1[H:13])([H:8])([H:9])[H:10]>>[C:1]([O:2][C:4](=[C:3]=[N:7][H:13])[H:11])([H:8])([H:9])[H:10].[N:5]#[C:6][H:12]"
C       -2.19283758      -0.37735937      -0.20612835
O       -1.24451100       0.27336329       0.64250135
C        0.10522228       0.00565747       0.33844613
C        0.19808432       1.27727357      -0.27149989
N        2.67157131       1.43891888      -0.42533647
C        3.08215598       0.37156670      -0.38353768
N        0.74687777      -1.06097340       0.50220906
H       -1.94415589      -0.19462810      -1.25247886
H       -3.16368867       0.05299048       0.02848539
H       -2.20755002      -1.45007211      -0.00214513
H        0.33583596       2.08348763       0.45190480
H        3.44134813      -0.63317768      -0.33998087
H        0.17164738      -1.78704742       0.91756054
13
Frame=1 idx=007488 GeodesicLength=0.1209762157857436 rxn_smarts="[C:1]([O:2][c:3]1[c:4]([H:11])[n:5][c:6]([H:12])[n:7]1[H:13])([H:8])([H:9])[H:10]>>[C:1]([O:2][C:4](=[C:3]=[N:7][H:13])[H:11])([H:8])([H:9])[H:10].[N:5]#[C:6][H:12]"
C       -2.19094238      -0.36003347      -0.21472676
O       -1.24643708       0.26660292       0.65306206
C        0.12534824       0.00821202       0.38298625
C        0.19334318       1.25650524      -0.26359719
N        2.64091650       1.41359533      -0.47817782
C        3.03702973       0.33794340      -0.39866163
N        0.78610621      -1.05408781       0.51118673
H       -1.97363751      -0.10616850      -1.25335302
H       -3.16967070       0.02435151       0.06349123
H       -2.17350432      -1.44392280      -0.08231642
H        0.30237587       2.09916861       0.42077732
H        3.43485265      -0.64480937      -0.26801621
H        0.23421961      -1.79735708       0.92734546
13
Frame=2 idx=007488 GeodesicLength=0.2422514182152029 rxn_smarts="[C:1]([O:2][c:3]1[c:4]([H:11])[n:5][c:6]([H:12])[n:7]1[H:13])([H:8])([H:9])[H:10]>>[C:1]([O:2][C:4](=[C:3]=[N:7][H:13])[H:11])([H:8])([H:9])[H:10].[N:5]#[C:6][H:12]"
C       -2.18832491      -0.34212226      -0.22595306
O       -1.24958660       0.25916707       0.66285209
C        0.14451473       0.01108142       0.43061201
C        0.18985775       1.23466694      -0.25184443
N        2.60957337       1.38350803      -0.53038793
C        2.99090726       0.30004055      -0.42110351
N        0.82449014      -1.04483402       0.53001288
H       -2.00412492      -0.01280018      -1.24986634
H       -3.17450884      -0.01257298       0.09343032
H       -2.13453526      -1.43156513      -0.17145289
H        0.26908655       2.11146792       0.39102983
H        3.42650639      -0.65122914      -0.20330804
H        0.29614434      -1.80480821       0.94597908
13
Frame=3 idx=007488 GeodesicLength=0.3632811490690726 rxn_smarts="[C:1]([O:2][c:3]1[c:4]([H:11])[n:5][c:6]([H:12])[n:7]1[H:13])([H:8])([H:9])[H:10]>>[C:1]([O:2][C:4](=[C:3]=[N:7][H:13])[H:11])([H:8])([H:9])[H:10].[N:5]#[C:6][H:12]"
C       -2.18667624      -0.32319954      -0.23740479
O       -1.25175731       0.24968867       0.67126220
C        0.16368144       0.01199294       0.47492970
C        0.18727508       1.21040181      -0.24116171
N        2.57723453       1.35048200      -0.58444608
C        2.94831876       0.26281353      -0.43701252
N        0.86241197      -1.03656716       0.54957933
H       -2.03994367       0.08311715      -1.23967405
H       -3.17721268      -0.05326469       0.12220414
H       -2.09650121      -1.41132149      -0.26438998
H        0.23674841       2.11828090       0.35865228
H        3.41762477      -0.65113263      -0.14094156
H        0.35879614      -1.81129150       0.96840304
13
Frame=4 idx=007488 GeodesicLength=0.4845896307739287 rxn_smarts="[C:1]([O:2][c:3]1[c:4]([H:11])[n:5][c:6]([H:12])[n:7]1[H:13])([H:8])([H:9])[H:10]>>[C:1]([O:2][C:4](=[C:3]=[N:7][H:13])[H:11])([H:8])([H:9])[H:10].[N:5]#[C:6][H:12]"
C       -2.18425025      -0.30376194      -0.25121679
O       -1.25475579       0.23889865       0.67886618
C        0.18200460       0.01334074       0.52081445
C        0.18522850       1.18572765      -0.22751367
N        2.54307341       1.31331010      -0.63839095
C        2.90522359       0.22293673      -0.45452642
N        0.90001849      -1.02628057       0.57762753
H       -2.07684070       0.18168596      -1.22303441
H       -3.17761208      -0.10190624       0.14371539
H       -2.05441339      -1.38236052      -0.36432036
H        0.20436391       2.12180373       0.32749448
H        3.40642611      -0.64883198      -0.08946589
H        0.42153359      -1.81456231       0.99995046
13
Frame=5 idx=007488 GeodesicLength=0.6056318776921694 rxn_smarts="[C:1]([O:2][c:3]1[c:4]([H:11])[n:5][c:6]([H:12])[n:7]1[H:13])([H:8])([H:9])[H:10]>>[C:1]([O:2][C:4](=[C:3]=[N:7][H:13])[H:11])([H:8])([H:9])[H:10].[N:5]#[C:6][H:12]"
C       -2.18258303      -0.28339237      -0.26535723
O       -1.25708893       0.22549336       0.68532042
C        0.20020085       0.01305540       0.56362320
C        0.18327651       1.15944605      -0.21435569
N        2.50706522       1.27341031      -0.69287676
C        2.86441127       0.18391182      -0.46769992
N        0.93757097      -1.01674474       0.60610467
H       -2.11629003       0.27915625      -1.19876934
H       -3.17530021      -0.15215086       0.15997284
H       -2.01503621      -1.34414346      -0.46509329
H        0.17251313       2.12028348       0.29514868
H        3.39563027      -0.64161902      -0.04101013
H        0.48563019      -1.81670622       1.03499255
13
Frame=6 idx=007488 GeodesicLength=0.7268930459684713 rxn_smarts="[C:1]([O:2][c:3]1[c:4]([H:11])[n:5][c:6]([H:12])[n:7]1[H:13])([H:8])([H:9])[H:10]>>[C:1]([O:2][C:4](=[C:3]=[N:7][H:13])[H:11])([H:8])([H:9])[H:10].[N:5]#[C:6][H:12]"
C       -2.18050828      -0.26235163      -0.28100578
O       -1.25980726       0.20979293       0.69101789
C        0.21776063       0.01268072       0.60659095
C        0.18124530       1.13303701      -0.19881957
N        2.46811875       1.22971541      -0.74781060
C        2.82313773       0.14346194      -0.48120880
N        0.97507294      -1.00610442       0.63900641
H       -2.15516091       0.37494261      -1.16749871
H       -3.17041329      -0.20601814       0.16688070
H       -1.97485714      -1.29618324      -0.56776102
H        0.14055063       2.11533468       0.26452636
H        3.38390813      -0.63211030      -0.00043990
H        0.55095277      -1.81619756       1.07652207
13
Frame=7 idx=007488 GeodesicLength=0.8482017071330599 rxn_smarts="[C:1]([O:2][c:3]1[c:4]([H:11])[n:5][c:6]([H:12])[n:7]1[H:13])([H:8])([H:9])[H:10]>>[C:1]([O:2][C:4](=[C:3]=[N:7][H:13])[H:11])([H:8])([H:9])[H:10].[N:5]#[C:6][H:12]"
C       -2.17895482      -0.24040731      -0.29714826
O       -1.26226093       0.19107162       0.69553060
C        0.23506171       0.01093983       0.64740485
C        0.17901695       1.10584172      -0.18259298
N        2.42632013       1.18278268      -0.80312130
C        2.78290397       0.10334958      -0.49251627
N        1.01261967      -0.99595219       0.67186268
H       -2.19337950       0.46663942      -1.12967877
H       -3.16349786      -0.25896267       0.16552989
H       -1.93790252      -1.23920511      -0.66838617
H        0.10894506       2.10613455       0.23477973
H        3.37268717      -0.61823399       0.03659943
H        0.61844097      -1.81399812       1.12173656
13
Frame=8 idx=007488 GeodesicLength=0.9696965626622374 rxn_smarts="[C:1]([O:2][c:3]1[c:4]([H:11])[n:5][c:6]([H:12])[n:7]1[H:13])([H:8])([H:9])[H:10]>>[C:1]([O:2][C:4](=[C:3]=[N:7][H:13])[H:11])([H:8])([H:9])[H:10].[N:5]#[C:6][H:12]"
C       -2.17741140      -0.21782459      -0.31429255
O       -1.26478732       0.16914038       0.69865367
C        0.25190088       0.00829051       0.68715081
C        0.17648250       1.07857937      -0.16455035
N        2.38114724       1.13266864      -0.85795985
C        2.74258442       0.06303024      -0.50316514
N        1.05034003      -0.98554128       0.70582638
H       -2.22912814       0.55321525      -1.08673992
H       -3.15496494      -0.31019756       0.15435295
H       -1.90333623      -1.17409127      -0.76615883
H        0.07747175       2.09346339       0.20751224
H        3.36111075      -0.60167073       0.06735715
H        0.68859047      -1.80906234       1.17201344
13
Frame=9 idx=007488 GeodesicLength=1.0917497322716427 rxn_smarts="[C:1]([O:2][c:3]1[c:4]([H:11])[n:5][c:6]([H:12])[n:7]1[H:13])([H:8])([H:9])[H:10]>>[C:1]([O:2][C:4](=[C:3]=[N:7][H:13])[H:11])([H:8])([H:9])[H:10].[N:5]#[C:6][H:12]"
C       -2.17600987      -0.19434852      -0.33260049
O       -1.26722190       0.14360337       0.69965335
C        0.26830019       0.00449282       0.72537930
C        0.17366368       1.05099441      -0.14541895
N        2.33222025       1.07806976      -0.91306530
C        2.70225299       0.02194949      -0.51274163
N        1.08815966      -0.97511163       0.74036208
H       -2.26459435       0.63631001      -1.03729547
H       -3.14442782      -0.36142941       0.13430285
H       -1.87074743      -1.09955088      -0.86304496
H        0.04663378       2.07729443       0.18231704
H        3.34966673      -0.58190650       0.09349253
H        0.76210409      -1.80036734       1.22865965
13
Frame=10 idx=007488 GeodesicLength=1.2142188624669377 rxn_smarts="[C:1]([O:2][c:3]1[c:4]([H:11])[n:5][c:6]([H:12])[n:7]1[H:13])([H:8])([H:9])[H:10]>>[C:1]([O:2][C:4](=[C:3]=[N:7][H:13])[H:11])([H:8])([H:9])[H:10].[N:5]#[C:6][H:12]"
C       -2.17446189      -0.17027338      -0.35198925
O       -1.26963363       0.11418639       0.69835583
C        0.28413403      -0.00028503       0.76287054
C        0.17050326       1.02353458      -0.12437056
N        2.27914379       1.01962064      -0.96719585
C        2.66126147      -0.01971977      -0.52181854
N        1.12641952      -0.96404184       0.77590599
H       -2.29705845       0.71338726      -0.98378211
H       -3.13280124      -0.40941775       0.10419561
H       -1.84041948      -1.01757502      -0.95587072
H        0.01606200       2.05824704       0.16033844
H        3.33763770      -0.55999803       0.11327871
H        0.83921291      -1.78766510       1.29008190
13
Frame=11 idx=007488 GeodesicLength=1.337125908754557 rxn_smarts="[C:1]([O:2][c:3]1[c:4]([H:11])[n:5][c:6]([H:12])[n:7]1[H:13])([H:8])([H:9])[H:10]>>[C:1]([O:2][C:4](=[C:3]=[N:7][H:13])[H:11])([H:8])([H:9])[H:10].[N:5]#[C:6][H:12]"
C       -2.17303265      -0.14549226      -0.37218940
O       -1.27174695       0.08054953       0.69403136
C        0.29942674      -0.00639960       0.79916525
C        0.16705957       0.99578786      -0.10218544
N        2.22194839       0.95682560      -1.02008155
C        2.62012039      -0.06176449      -0.52950841
N        1.16524228      -0.95245308       0.81178777
H       -2.32712995       0.78448622      -0.92630940
H       -3.12045576      -0.45327444       0.06520605
H       -1.81298686      -0.92856134      -1.04419135
H       -0.01389506       2.03620386       0.14098666
H        3.32532200      -0.53522887       0.12828508
H        0.92012786      -1.77067899       1.35500336
13
Frame=12 idx=007488 GeodesicLength=1.4605356801975813 rxn_smarts="[C:1]([O:2][c:3]1[c:4]([H:11])[n:5][c:6]([H:12])[n:7]1[H:13])([H:8])([H:9])[H:10]>>[C:1]([O:2][C:4](=[C:3]=[N:7][H:13])[H:11])([H:8])([H:9])[H:10].[N:5]#[C:6][H:12]"
C       -2.17160226      -0.12012252      -0.39318613
O       -1.27340778       0.04244295       0.68598339
C        0.31403320      -0.01369338       0.83451667
C        0.16330798       0.96778701      -0.07898050
N        2.16069267       0.88963128      -1.07070762
C        2.57857214      -0.10442405      -0.53576531
N        1.20476387      -0.93972842       0.84839572
H       -2.35490874       0.84936899      -0.86512917
H       -3.10751846      -0.49283336       0.01758004
H       -1.78793489      -0.83280508      -1.12772427
H       -0.04324518       2.01148045       0.12421006
H        3.31234904      -0.50862656       0.13787930
H        1.00489842      -1.74847730       1.42292783
13
Frame=13 idx=007488 GeodesicLength=1.5846987984531629 rxn_smarts="[C:1]([O:2][c:3]1[c:4]([H:11])[n:5][c:6]([H:12])[n:7]1[H:13])([H:8])([H:9])[H:10]>>[C:1]([O:2][C:4](=[C:3]=[N:7][H:13])[H:11])([H:8])([H:9])[H:10].[N:5]#[C:6][H:12]"
C       -2.17019279      -0.09408519      -0.41493910
O       -1.27426850      -0.00062944       0.67321716
C        0.32783214      -0.02220407       0.86893909
C        0.15927904       0.93928571      -0.05518599
N        2.09527815       0.81703175      -1.11886283
C        2.53669049      -0.14811187      -0.54016131
N        1.24518237      -0.92530833       0.88607512
H       -2.38138408       0.90816490      -0.79927535
H       -3.09375240      -0.52853783      -0.03838488
H       -1.76511784      -0.72936640      -1.20692823
H       -0.07178095       1.98413880       0.10958466
H        3.29867002      -0.48020365       0.14258055
H        1.09356435      -1.72017439       1.49334110
13
Frame=14 idx=007488 GeodesicLength=1.7095324316218248 rxn_smarts="[C:1]([O:2][c:3]1[c:4]([H:11])[n:5][c:6]([H:12])[n:7]1[H:13])([H:8])([H:9])[H:10]>>[C:1]([O:2][C:4](=[C:3]=[N:7][H:13])[H:11])([H:8])([H:9])[H:10].[N:5]#[C:6][H:12]"
C       -2.16914050      -0.06741277      -0.43688343
O       -1.27389270      -0.04890029       0.65471599
C        0.34074486      -0.03221960       0.90183355
C        0.15504017       0.90976436      -0.03183209
N        2.02663994       0.73896013      -1.16353616
C        2.49527420      -0.19252924      -0.54194108
N        1.28638019      -0.90914994       0.92397075
H       -2.40670388       0.96020228      -0.72836173
H       -3.07963489      -0.55945796      -0.10176528
H       -1.74520708      -0.61840447      -1.28060573
H       -0.09916297       1.95399259       0.09606018
H        3.28411595      -0.44945213       0.14380088
H        1.18554671      -1.68539296       1.56454416
13
Frame=15 idx=007488 GeodesicLength=1.8355859837319117 rxn_smarts="[C:1]([O:2][c:3]1[c:4]([H:11])[n:5][c:6]([H:12])[n:7]1[H:13])([H:8])([H:9])[H:10]>>[C:1]([O:2][C:4](=[C:3]=[N:7][H:13])[H:11])([H:8])([H:9])[H:10].[N:5]#[C:6][H:12]"
C       -2.16823443      -0.04015232      -0.45933795
O       -1.27163413      -0.10343690       0.62859542
C        0.35237789      -0.04346144       0.93357563
C        0.15051910       0.87930839      -0.00894015
N        1.95492715       0.65466921      -1.20377972
C        2.45373033      -0.23874434      -0.54106302
N        1.32867343      -0.88962884       0.96342559
H       -2.43220114       1.00476092      -0.65016927
H       -3.06424683      -0.58683201      -0.17365545
H       -1.72786476      -0.49721624      -1.34961762
H       -0.12571190       1.92131008       0.08350398
H        3.26848817      -0.41874381       0.13989255
H        1.28117713      -1.64183270       1.63757000
13
Frame=16 idx=007488 GeodesicLength=1.9627790329592743 rxn_smarts="[C:1]([O:2][c:3]1[c:4]([H:11])[n:5][c:6]([H:12])[n:7]1[H:13])([H:8])([H:9])[H:10]>>[C:1]([O:2][C:4](=[C:3]=[N:7][H:13])[H:11])([H:8])([H:9])[H:10].[N:5]#[C:6][H:12]"
C       -2.16803422      -0.01239194      -0.48159155
O       -1.26657030      -0.16482246       0.59263369
C        0.36242856      -0.05613452       0.96319841
C        0.14578204       0.84735615       0.01194994
N        1.88231393       0.56461868      -1.23813043
C        2.41318320      -0.28664538      -0.53646593
N        1.37183906      -0.86600272       1.00380361
H       -2.45845998       1.03999287      -0.56295308
H       -3.04788937      -0.60988225      -0.25344191
H       -1.71477693      -0.36452496      -1.41230643
H       -0.15132617       1.88576550       0.07016534
H        3.25208152      -0.38892273       0.13216625
H        1.37942866      -1.58840624       1.71097211
