12
Frame=0 idx=008061 GeodesicLength=0.0 rxn_smarts="[N:1]#[C:2][C@@:3]1([H:8])[C:4]([H:9])([H:10])[N:5]=[C:6]([H:11])[N:7]1[H:12]>>[N:1]#[C:2][C@@:3]1([H:8])[C:4]([H:9])([H:10])[N:5]([H:11])[C:6][N:7]1[H:12]"
N        2.48888421      -1.14525662       1.15279215
C        1.68037832      -0.68785001       0.48008788
C        0.65868052      -0.09419078      -0.39833658
C       -0.69365228      -0.83290944      -0.33986935
N       -1.53091463       0.01344983       0.54097021
C       -0.93952269       1.20267540       0.68962396
N        0.24894710       1.24032771       0.04355832
H        1.06908329      -0.06628331      -1.40846342
H       -1.14949001      -0.88718411      -1.32914309
H       -0.62073347      -1.83908359       0.06757366
H       -2.12996219       1.12569217       0.29370014
H        0.91830185       1.97061275       0.20750612
12
Frame=1 idx=008061 GeodesicLength=0.033475013484169286 rxn_smarts="[N:1]#[C:2][C@@:3]1([H:8])[C:4]([H:9])([H:10])[N:5]=[C:6]([H:11])[N:7]1[H:12]>>[N:1]#[C:2][C@@:3]1([H:8])[C:4]([H:9])([H:10])[N:5]([H:11])[C:6][N:7]1[H:12]"
N        2.48627964      -1.14481893       1.15650301
C        1.68101982      -0.68776882       0.47965539
C        0.66064301      -0.09452804      -0.40065288
C       -0.69269829      -0.83247852      -0.34188380
N       -1.52694990       0.01693159       0.53596400
C       -0.94067985       1.20680163       0.67650512
N        0.25254688       1.24113235       0.03868318
H        1.07198529      -0.06930944      -1.41047587
H       -1.14648291      -0.89040105      -1.33199773
H       -0.61958669      -1.83750556       0.06855986
H       -2.15047065       1.12521301       0.31613540
H        0.92439366       1.96673177       0.21300431
12
Frame=2 idx=008061 GeodesicLength=0.06692636206234046 rxn_smarts="[N:1]#[C:2][C@@:3]1([H:8])[C:4]([H:9])([H:10])[N:5]=[C:6]([H:11])[N:7]1[H:12]>>[N:1]#[C:2][C@@:3]1([H:8])[C:4]([H:9])([H:10])[N:5]([H:11])[C:6][N:7]1[H:12]"
N        2.48336386      -1.14432981       1.16063014
C        1.68152418      -0.68766504       0.47945313
C        0.66269900      -0.09490815      -0.40304777
C       -0.69171798      -0.83199272      -0.34415607
N       -1.52298912       0.02058482       0.53055054
C       -0.94205430       1.21122690       0.66231913
N        0.25626252       1.24196885       0.03350510
H        1.07519068      -0.07254216      -1.41247673
H       -1.14332609      -0.89360340      -1.33514660
H       -0.61854268      -1.83583731       0.06937251
H       -2.17080398       1.12423550       0.34070037
H        0.93039392       1.96286252       0.21829626
12
Frame=3 idx=008061 GeodesicLength=0.10029836025764716 rxn_smarts="[N:1]#[C:2][C@@:3]1([H:8])[C:4]([H:9])([H:10])[N:5]=[C:6]([H:11])[N:7]1[H:12]>>[N:1]#[C:2][C@@:3]1([H:8])[C:4]([H:9])([H:10])[N:5]([H:11])[C:6][N:7]1[H:12]"
N        2.48012017      -1.14382108       1.16512569
C        1.68185111      -0.68751953       0.47951295
C        0.66483752      -0.09532088      -0.40550739
C       -0.69071087      -0.83144555      -0.34667867
N       -1.51904219       0.02442552       0.52470106
C       -0.94371213       1.21597265       0.64690438
N        0.26008808       1.24283273       0.02803195
H        1.07869960      -0.07596348      -1.41444360
H       -1.13999806      -0.89679819      -1.33858198
H       -0.61761532      -1.83405948       0.07004057
H       -2.19078341       1.12268893       0.36747648
H        0.93626550       1.95900837       0.22341856
12
Frame=4 idx=008061 GeodesicLength=0.13363175699732888 rxn_smarts="[N:1]#[C:2][C@@:3]1([H:8])[C:4]([H:9])([H:10])[N:5]=[C:6]([H:11])[N:7]1[H:12]>>[N:1]#[C:2][C@@:3]1([H:8])[C:4]([H:9])([H:10])[N:5]([H:11])[C:6][N:7]1[H:12]"
N        2.47662331      -1.14327947       1.16995727
C        1.68198649      -0.68733481       0.47987402
C        0.66704821      -0.09577728      -0.40802244
C       -0.68969210      -0.83086170      -0.34947572
N       -1.51520016       0.02849010       0.51828970
C       -0.94570834       1.22105408       0.63016793
N        0.26399743       1.24372580       0.02228416
H        1.08251861      -0.07958757      -1.41636159
H       -1.13647080      -0.90007382      -1.34235397
H       -0.61683137      -1.83217986       0.07059542
H       -2.21022798       1.12063381       0.39661509
H        0.94195670       1.95519073       0.22843013
12
Frame=5 idx=008061 GeodesicLength=0.1667775010048303 rxn_smarts="[N:1]#[C:2][C@@:3]1([H:8])[C:4]([H:9])([H:10])[N:5]=[C:6]([H:11])[N:7]1[H:12]>>[N:1]#[C:2][C@@:3]1([H:8])[C:4]([H:9])([H:10])[N:5]([H:11])[C:6][N:7]1[H:12]"
N        2.47295567      -1.14272419       1.17494637
C        1.68186765      -0.68708230       0.48059103
C        0.66930046      -0.09626394      -0.41055415
C       -0.68867670      -0.83024987      -0.35252933
N       -1.51154618       0.03281848       0.51118283
C       -0.94813533       1.22648819       0.61195840
N        0.26796830       1.24464158       0.01630634
H        1.08662677      -0.08338421      -1.41817382
H       -1.13269322      -0.90352575      -1.34645396
H       -0.61623714      -1.83016419       0.07113668
H       -2.22885084       1.11805365       0.42812724
H        0.94742056       1.95139254       0.23346237
12
Frame=6 idx=008061 GeodesicLength=0.199831701853376 rxn_smarts="[N:1]#[C:2][C@@:3]1([H:8])[C:4]([H:9])([H:10])[N:5]=[C:6]([H:11])[N:7]1[H:12]>>[N:1]#[C:2][C@@:3]1([H:8])[C:4]([H:9])([H:10])[N:5]([H:11])[C:6][N:7]1[H:12]"
N        2.46910989      -1.14215556       1.18015516
C        1.68147421      -0.68675323       0.48170285
C        0.67159567      -0.09678458      -0.41311827
C       -0.68767462      -0.82962505      -0.35588139
N       -1.50814270       0.03743643       0.50328988
C       -0.95107353       1.23228837       0.59206528
N        0.27196447       1.24559617       0.01005486
H        1.09107205      -0.08737358      -1.41988707
H       -1.12863699      -0.90720850      -1.35094199
H       -0.61585227      -1.82802143       0.07166123
H       -2.24642296       1.11496799       0.46233506
H        0.95258677       1.94763295       0.23856440
12
Frame=7 idx=008061 GeodesicLength=0.23271244761343218 rxn_smarts="[N:1]#[C:2][C@@:3]1([H:8])[C:4]([H:9])([H:10])[N:5]=[C:6]([H:11])[N:7]1[H:12]>>[N:1]#[C:2][C@@:3]1([H:8])[C:4]([H:9])([H:10])[N:5]([H:11])[C:6][N:7]1[H:12]"
N        2.46493126      -1.14145485       1.18574282
C        1.68071526      -0.68631186       0.48326407
C        0.67390851      -0.09734699      -0.41573764
C       -0.68668830      -0.82899650      -0.35962395
N       -1.50504642       0.04234775       0.49440365
C       -0.95454653       1.23842874       0.57032818
N        0.27592810       1.24656523       0.00345137
H        1.09588067      -0.09158611      -1.42149250
H       -1.12423019      -0.91117561      -1.35593166
H       -0.61570491      -1.82572486       0.07212550
H       -2.26249096       1.11136114       0.49978035
H        0.95734350       1.94389391       0.24368981
12
Frame=8 idx=008061 GeodesicLength=0.2654112502627838 rxn_smarts="[N:1]#[C:2][C@@:3]1([H:8])[C:4]([H:9])([H:10])[N:5]=[C:6]([H:11])[N:7]1[H:12]>>[N:1]#[C:2][C@@:3]1([H:8])[C:4]([H:9])([H:10])[N:5]([H:11])[C:6][N:7]1[H:12]"
N        2.46028290      -1.14064043       1.19176340
C        1.67950243      -0.68569705       0.48533428
C        0.67621938      -0.09792958      -0.41841650
C       -0.68572255      -0.82836514      -0.36380140
N       -1.50230858       0.04757581       0.48439733
C       -0.95866245       1.24488654       0.54644399
N        0.27980011       1.24756264      -0.00355878
H        1.10109360      -0.09601395      -1.42296275
H       -1.11940832      -0.91548033      -1.36147215
H       -0.61582708      -1.82324575       0.07253577
H       -2.27653345       1.10714951       0.54086894
H        0.96156400       1.94019772       0.24886787
12
Frame=9 idx=008061 GeodesicLength=0.2981148293999744 rxn_smarts="[N:1]#[C:2][C@@:3]1([H:8])[C:4]([H:9])([H:10])[N:5]=[C:6]([H:11])[N:7]1[H:12]>>[N:1]#[C:2][C@@:3]1([H:8])[C:4]([H:9])([H:10])[N:5]([H:11])[C:6][N:7]1[H:12]"
N        2.45512327      -1.13966513       1.19842749
C        1.67782398      -0.68488253       0.48801446
C        0.67854567      -0.09854723      -0.42118090
C       -0.68483515      -0.82780962      -0.36856186
N       -1.50014827       0.05315526       0.47296442
C       -0.96358142       1.25172886       0.52010929
N        0.28350374       1.24866850      -0.01107573
H        1.10685544      -0.10072498      -1.42427664
H       -1.11414146      -0.92030074      -1.36775178
H       -0.61631193      -1.82067712       0.07280711
H       -2.28796907       1.10237506       0.58641332
H        0.96513521       1.93667968       0.25411083
12
Frame=10 idx=008061 GeodesicLength=0.33020322639046634 rxn_smarts="[N:1]#[C:2][C@@:3]1([H:8])[C:4]([H:9])([H:10])[N:5]=[C:6]([H:11])[N:7]1[H:12]>>[N:1]#[C:2][C@@:3]1([H:8])[C:4]([H:9])([H:10])[N:5]([H:11])[C:6][N:7]1[H:12]"
N        2.44927924      -1.13830964       1.20566167
C        1.67534476      -0.68377579       0.49143322
C        0.68070922      -0.09917290      -0.42397370
C       -0.68401346      -0.82726659      -0.37392354
N       -1.49868093       0.05908645       0.45974030
C       -0.96928412       1.25869704       0.49133859
N        0.28683748       1.24971354      -0.01907724
H        1.11298134      -0.10561719      -1.42534232
H       -1.10821409      -0.92564761      -1.37482720
H       -0.61719208      -1.81780052       0.07305796
H       -2.29547590       1.09696075       0.63650492
H        0.96770855       1.93313245       0.25940732
12
Frame=11 idx=008061 GeodesicLength=0.362254670249086 rxn_smarts="[N:1]#[C:2][C@@:3]1([H:8])[C:4]([H:9])([H:10])[N:5]=[C:6]([H:11])[N:7]1[H:12]>>[N:1]#[C:2][C@@:3]1([H:8])[C:4]([H:9])([H:10])[N:5]([H:11])[C:6][N:7]1[H:12]"
N        2.44278438      -1.13646664       1.21387357
C        1.67214092      -0.68232324       0.49576915
C        0.68279561      -0.09986028      -0.42684463
C       -0.68343256      -0.82692511      -0.38019384
N       -1.49840632       0.06547382       0.44422298
C       -0.97610820       1.26603970       0.45969212
N        0.28971194       1.25092679      -0.02770881
H        1.11983890      -0.11093271      -1.42613789
H       -1.10167774      -0.93193822      -1.38309544
H       -0.61872809      -1.81485818       0.07303024
H       -2.29812726       1.09092018       0.69255927
H        0.96920842       1.92994389       0.26483327
12
Frame=12 idx=008061 GeodesicLength=0.39388788860830387 rxn_smarts="[N:1]#[C:2][C@@:3]1([H:8])[C:4]([H:9])([H:10])[N:5]=[C:6]([H:11])[N:7]1[H:12]>>[N:1]#[C:2][C@@:3]1([H:8])[C:4]([H:9])([H:10])[N:5]([H:11])[C:6][N:7]1[H:12]"
N        2.43440865      -1.13416318       1.22357350
C        1.66749705      -0.68034397       0.50126778
C        0.68457057      -0.10042533      -0.42980617
C       -0.68293867      -0.82656246      -0.38746796
N       -1.49918200       0.07222911       0.42594709
C       -0.98414744       1.27340867       0.42436887
N        0.29177028       1.25219766      -0.03740677
H        1.12734762      -0.11632102      -1.42650782
H       -1.09403638      -0.93876551      -1.39259654
H       -0.62087483      -1.81153252       0.07283040
H       -2.29334244       1.08340908       0.75593654
H        0.96892758       1.92686947       0.26986108
12
Frame=13 idx=008061 GeodesicLength=0.4256429025497041 rxn_smarts="[N:1]#[C:2][C@@:3]1([H:8])[C:4]([H:9])([H:10])[N:5]=[C:6]([H:11])[N:7]1[H:12]>>[N:1]#[C:2][C@@:3]1([H:8])[C:4]([H:9])([H:10])[N:5]([H:11])[C:6][N:7]1[H:12]"
N        2.42402500      -1.13042158       1.23558150
C        1.66122800      -0.67753019       0.50834673
C        0.68596959      -0.10104349      -0.43286510
C       -0.68297785      -0.82648085      -0.39642585
N       -1.50213070       0.07955365       0.40363000
C       -0.99361076       1.28093768       0.38564022
N        0.29276506       1.25371498      -0.04830426
H        1.13587073      -0.12243556      -1.42629243
H       -1.08541400      -0.94701326      -1.40425002
H       -0.62425078      -1.80799749       0.07173792
H       -2.27818288       1.07421674       0.82871267
H        0.96670860       1.92449936       0.27448864
12
Frame=14 idx=008061 GeodesicLength=0.4570349541950769 rxn_smarts="[N:1]#[C:2][C@@:3]1([H:8])[C:4]([H:9])([H:10])[N:5]=[C:6]([H:11])[N:7]1[H:12]>>[N:1]#[C:2][C@@:3]1([H:8])[C:4]([H:9])([H:10])[N:5]([H:11])[C:6][N:7]1[H:12]"
N        2.41175666      -1.12591464       1.24878720
C        1.65335933      -0.67414108       0.51630555
C        0.68651541      -0.10133693      -0.43572732
C       -0.68343614      -0.82619517      -0.40587520
N       -1.50634484       0.08698230       0.37939901
C       -1.00370734       1.28779541       0.34650795
N        0.29237113       1.25524705      -0.05958942
H        1.14401273      -0.12808279      -1.42548214
H       -1.07625732      -0.95526949      -1.41649897
H       -0.62836464      -1.80395999       0.07062043
H       -2.25225780       1.06259353       0.90317481
H        0.96235283       1.92228181       0.27837811
12
Frame=15 idx=008061 GeodesicLength=0.488277824667367 rxn_smarts="[N:1]#[C:2][C@@:3]1([H:8])[C:4]([H:9])([H:10])[N:5]=[C:6]([H:11])[N:7]1[H:12]>>[N:1]#[C:2][C@@:3]1([H:8])[C:4]([H:9])([H:10])[N:5]([H:11])[C:6][N:7]1[H:12]"
N        2.40075740      -1.12162570       1.25996346
C        1.64594680      -0.67075632       0.52324582
C        0.68640482      -0.10129070      -0.43810114
C       -0.68444163      -0.82587489      -0.41390768
N       -1.51079931       0.09389308       0.35759249
C       -1.01305451       1.29360103       0.31206517
N        0.29141794       1.25678770      -0.06899692
H        1.15040415      -0.13261784      -1.42463909
H       -1.06838717      -0.96324920      -1.42696939
H       -0.63246612      -1.80003846       0.07028357
H       -2.22327370       1.05095811       0.96615580
H        0.95749131       1.92021320       0.28330792
12
Frame=16 idx=008061 GeodesicLength=0.5197161521269028 rxn_smarts="[N:1]#[C:2][C@@:3]1([H:8])[C:4]([H:9])([H:10])[N:5]=[C:6]([H:11])[N:7]1[H:12]>>[N:1]#[C:2][C@@:3]1([H:8])[C:4]([H:9])([H:10])[N:5]([H:11])[C:6][N:7]1[H:12]"
N        2.39093424      -1.11768039       1.26941982
C        1.63902993      -0.66752736       0.52928994
C        0.68587256      -0.10098979      -0.44010318
C       -0.68578217      -0.82548734      -0.42071267
N       -1.51514434       0.10036112       0.33805886
C       -1.02170433       1.29865138       0.28131205
N        0.29015095       1.25835190      -0.07696714
H        1.15546451      -0.13625986      -1.42381367
H       -1.06156769      -0.97077048      -1.43584760
H       -0.63645587      -1.79625229       0.07063435
H       -2.19314260       1.03945162       1.01965800
H        0.95234481       1.91815150       0.28907124
