19
Frame=0 idx=008299 GeodesicLength=0.0 rxn_smarts="[C:1]([C:2]([C:3]([H:12])([H:13])[H:14])([C@@:4]1([H:15])[C:5]([H:16])([H:17])[C@:6]1([O:7][H:19])[H:18])[H:11])([H:8])([H:9])[H:10]>>[C:1]([C@:2]1([H:11])[C@:4]([C:5]([C:3]([H:12])([H:13])[H:14])([H:16])[H:17])([H:15])[C@:6]1([O:7][H:19])[H:18])([H:8])([H:9])[H:10]"
C        1.67477322       1.29656795       0.00776601
C        0.56117350       0.34340639       0.32529219
C        0.95072531      -1.49856355      -0.30623244
C       -0.73051113       0.29155616      -0.43120743
C       -1.00189530      -1.17432455      -0.43767696
C       -1.80954765       1.03612104       0.16564623
O       -2.26632180       0.86958808       1.43044709
H        1.64146642       2.22210198       0.58732400
H        2.63211005       0.81683746       0.23706319
H        1.67724870       1.55607960      -1.05353806
H        0.43576722       0.15965753       1.39449205
H        1.81048225      -1.45066104       0.38384165
H        1.31470737      -1.30149643      -1.31344201
H        0.68157331      -2.56660542      -0.25546304
H       -0.58115196       0.65562991      -1.44958077
H       -1.46885908      -1.64763202      -1.30307317
H       -1.37650304      -1.58329137       0.50071475
H       -2.32994317       1.84269132      -0.33408932
H       -1.81529427       0.13233687       1.85171613
19
Frame=1 idx=008299 GeodesicLength=0.09057223494501282 rxn_smarts="[C:1]([C:2]([C:3]([H:12])([H:13])[H:14])([C@@:4]1([H:15])[C:5]([H:16])([H:17])[C@:6]1([O:7][H:19])[H:18])[H:11])([H:8])([H:9])[H:10]>>[C:1]([C@:2]1([H:11])[C@:4]([C:5]([C:3]([H:12])([H:13])[H:14])([H:16])[H:17])([H:15])[C@:6]1([O:7][H:19])[H:18])([H:8])([H:9])[H:10]"
C        1.66444312       1.30933914       0.01627012
C        0.55535952       0.34718259       0.32447863
C        0.94703692      -1.50627851      -0.31097817
C       -0.71746936       0.28498003      -0.45861477
C       -1.01741168      -1.17328544      -0.43808383
C       -1.78576620       1.02115085       0.16520075
O       -2.28039835       0.83836270       1.41423642
H        1.61737180       2.23202530       0.59947799
H        2.62430101       0.83683904       0.24931057
H        1.67391149       1.57482896      -1.04349838
H        0.43215208       0.15260111       1.39147878
H        1.80690669      -1.46231466       0.37821491
H        1.31623924      -1.31566206      -1.31793463
H        0.67625931      -2.57317312      -0.25856118
H       -0.56834129       0.64741178      -1.47630142
H       -1.49622694      -1.64460969      -1.29755798
H       -1.37927380      -1.58197669       0.50477118
H       -2.29470278       1.83750593      -0.33234488
H       -1.77439079       0.17507273       1.89043589
19
Frame=2 idx=008299 GeodesicLength=0.18135214223586146 rxn_smarts="[C:1]([C:2]([C:3]([H:12])([H:13])[H:14])([C@@:4]1([H:15])[C:5]([H:16])([H:17])[C@:6]1([O:7][H:19])[H:18])[H:11])([H:8])([H:9])[H:10]>>[C:1]([C@:2]1([H:11])[C@:4]([C:5]([C:3]([H:12])([H:13])[H:14])([H:16])[H:17])([H:15])[C@:6]1([O:7][H:19])[H:18])([H:8])([H:9])[H:10]"
C        1.65361976       1.32204538       0.02502689
C        0.54968620       0.35031363       0.32381253
C        0.94389139      -1.51444603      -0.31633839
C       -0.70416082       0.27764824      -0.48516370
C       -1.03249385      -1.17226645      -0.43848762
C       -1.76205968       1.00522379       0.16477363
O       -2.29000476       0.80668476       1.39892456
H        1.59242064       2.24149701       0.61209357
H        2.61620085       0.85716348       0.26145220
H        1.66952553       1.59398473      -1.03301729
H        0.42913971       0.14449121       1.38850457
H        1.80393196      -1.47454853       0.37189060
H        1.31812367      -1.33005873      -1.32301034
H        0.67140096      -2.58017759      -0.26249754
H       -0.55524960       0.63869682      -1.50213860
H       -1.52331439      -1.64091310      -1.29212804
H       -1.38137966      -1.58137687       0.50846385
H       -2.26045647       1.83112021      -0.32947451
H       -1.73882144       0.22491804       1.92731364
19
Frame=3 idx=008299 GeodesicLength=0.27227281672431797 rxn_smarts="[C:1]([C:2]([C:3]([H:12])([H:13])[H:14])([C@@:4]1([H:15])[C:5]([H:16])([H:17])[C@:6]1([O:7][H:19])[H:18])[H:11])([H:8])([H:9])[H:10]>>[C:1]([C@:2]1([H:11])[C@:4]([C:5]([C:3]([H:12])([H:13])[H:14])([H:16])[H:17])([H:15])[C@:6]1([O:7][H:19])[H:18])([H:8])([H:9])[H:10]"
C        1.64220532       1.33467941       0.03413080
C        0.54415351       0.35273303       0.32337505
C        0.94127598      -1.52308804      -0.32231944
C       -0.69057313       0.26952983      -0.51078604
C       -1.04712356      -1.17132260      -0.43895787
C       -1.73851200       0.98827462       0.16426204
O       -2.29398938       0.77649282       1.38559849
H        1.56653892       2.25044023       0.62533623
H        2.60773667       0.87782984       0.27342186
H        1.66386351       1.61365921      -1.02195743
H        0.42662784       0.13532104       1.38561726
H        1.80157021      -1.48737108       0.36480891
H        1.32033338      -1.34467123      -1.32866624
H        0.66700406      -2.58764183      -0.26733063
H       -0.54183443       0.62944049      -1.52701013
H       -1.54999170      -1.63657691      -1.28691387
H       -1.38299742      -1.58152672       0.51163079
H       -2.22750552       1.82304370      -0.32611930
H       -1.70878226       0.28075420       1.96187952
19
Frame=4 idx=008299 GeodesicLength=0.363340381118471 rxn_smarts="[C:1]([C:2]([C:3]([H:12])([H:13])[H:14])([C@@:4]1([H:15])[C:5]([H:16])([H:17])[C@:6]1([O:7][H:19])[H:18])[H:11])([H:8])([H:9])[H:10]>>[C:1]([C@:2]1([H:11])[C@:4]([C:5]([C:3]([H:12])([H:13])[H:14])([H:16])[H:17])([H:15])[C@:6]1([O:7][H:19])[H:18])([H:8])([H:9])[H:10]"
C        1.63025183       1.34719140       0.04358107
C        0.53873570       0.35446974       0.32312543
C        0.93914826      -1.53223023      -0.32879971
C       -0.67682721       0.26076287      -0.53547649
C       -1.06134321      -1.17040414      -0.43977123
C       -1.71538831       0.97027259       0.16377631
O       -2.29278580       0.74771368       1.37484704
H        1.53974369       2.25884096       0.63911147
H        2.59892248       0.89876818       0.28545732
H        1.65712847       1.63364656      -1.01038691
H        0.42456405       0.12517734       1.38280707
H        1.79967514      -1.50086727       0.35726329
H        1.32298537      -1.35956375      -1.33476728
H        0.66298374      -2.59558936      -0.27289740
H       -0.52818959       0.61992581      -1.55089371
H       -1.57614120      -1.63142411      -1.28236593
H       -1.38437806      -1.58252387       0.51390155
H       -2.19642792       1.81299099      -0.32247386
H       -1.68265742       0.34284258       1.99396199
19
Frame=5 idx=008299 GeodesicLength=0.45461456067101014 rxn_smarts="[C:1]([C:2]([C:3]([H:12])([H:13])[H:14])([C@@:4]1([H:15])[C:5]([H:16])([H:17])[C@:6]1([O:7][H:19])[H:18])[H:11])([H:8])([H:9])[H:10]>>[C:1]([C@:2]1([H:11])[C@:4]([C:5]([C:3]([H:12])([H:13])[H:14])([H:16])[H:17])([H:15])[C@:6]1([O:7][H:19])[H:18])([H:8])([H:9])[H:10]"
C        1.61767087       1.35953816       0.05347851
C        0.53334612       0.35552691       0.32297230
C        0.93738179      -1.54188974      -0.33571285
C       -0.66305173       0.25142322      -0.55921731
C       -1.07515482      -1.16954021      -0.44121861
C       -1.69291628       0.95102677       0.16343760
O       -2.28651673       0.71977752       1.36720003
H        1.51187720       2.26666004       0.65345439
H        2.58954665       0.91995319       0.29797775
H        1.64945405       1.65372446      -0.99820154
H        0.42291117       0.11409014       1.37993845
H        1.79792644      -1.51510315       0.34951167
H        1.32610314      -1.37476394      -1.34114764
H        0.65920048      -2.60402901      -0.27916504
H       -0.51442203       0.61036068      -1.57367444
H       -1.60156271      -1.62540024      -1.27892822
H       -1.38566312      -1.58451638       0.51484557
H       -2.16768608       1.80063065      -0.31846286
H       -1.65844441       0.41253094       2.02291224
19
Frame=6 idx=008299 GeodesicLength=0.5460418879992829 rxn_smarts="[C:1]([C:2]([C:3]([H:12])([H:13])[H:14])([C@@:4]1([H:15])[C:5]([H:16])([H:17])[C@:6]1([O:7][H:19])[H:18])[H:11])([H:8])([H:9])[H:10]>>[C:1]([C@:2]1([H:11])[C@:4]([C:5]([C:3]([H:12])([H:13])[H:14])([H:16])[H:17])([H:15])[C@:6]1([O:7][H:19])[H:18])([H:8])([H:9])[H:10]"
C        1.60456565       1.37173839       0.06368159
C        0.52818753       0.35590791       0.32314085
C        0.93606180      -1.55203309      -0.34304975
C       -0.64905412       0.24152141      -0.58186820
C       -1.08855494      -1.16869593      -0.44291133
C       -1.67061885       0.93104339       0.16330499
O       -2.27521411       0.69374929       1.36271212
H        1.48324556       2.27388107       0.66827167
H        2.57986004       0.94140071       0.31026363
H        1.64048255       1.67413175      -0.98551780
H        0.42166199       0.10230548       1.37727570
H        1.79669024      -1.52999418       0.34122404
H        1.32950980      -1.39026338      -1.34793464
H        0.65576739      -2.61293572      -0.28610577
H       -0.50041158       0.60055744      -1.59531644
H       -1.62648289      -1.61853381      -1.27603608
H       -1.38680239      -1.58733975       0.51494973
H       -2.14050081       1.78652922      -0.31439034
H       -1.63839286       0.48702979       2.04830602
19
Frame=7 idx=008299 GeodesicLength=0.6376158446832918 rxn_smarts="[C:1]([C:2]([C:3]([H:12])([H:13])[H:14])([C@@:4]1([H:15])[C:5]([H:16])([H:17])[C@:6]1([O:7][H:19])[H:18])[H:11])([H:8])([H:9])[H:10]>>[C:1]([C@:2]1([H:11])[C@:4]([C:5]([C:3]([H:12])([H:13])[H:14])([H:16])[H:17])([H:15])[C@:6]1([O:7][H:19])[H:18])([H:8])([H:9])[H:10]"
C        1.59093607       1.38377439       0.07426851
C        0.52321946       0.35562936       0.32352326
C        0.93511033      -1.56267826      -0.35074784
C       -0.63500113       0.23116345      -0.60344120
C       -1.10160542      -1.16787422      -0.44506057
C       -1.64880823       0.91015597       0.16352365
O       -2.25896765       0.66909152       1.36189736
H        1.45374710       2.28048195       0.68359765
H        2.56977723       0.96310120       0.32277435
H        1.63045773       1.69468208      -0.97230533
H        0.42089158       0.08980921       1.37472646
H        1.79573976      -1.54563301       0.33267377
H        1.33329114      -1.40606463      -1.35501424
H        0.65258300      -2.62232468      -0.29367295
H       -0.48630350       0.59075636      -1.61579120
H       -1.65078243      -1.61075712      -1.27406463
H       -1.38799704      -1.59107484       0.51394241
H       -2.11545604       1.77041625      -0.31013259
H       -1.62083193       0.56734501       2.06930313
19
Frame=8 idx=008299 GeodesicLength=0.7292129119719915 rxn_smarts="[C:1]([C:2]([C:3]([H:12])([H:13])[H:14])([C@@:4]1([H:15])[C:5]([H:16])([H:17])[C@:6]1([O:7][H:19])[H:18])[H:11])([H:8])([H:9])[H:10]>>[C:1]([C@:2]1([H:11])[C@:4]([C:5]([C:3]([H:12])([H:13])[H:14])([H:16])[H:17])([H:15])[C@:6]1([O:7][H:19])[H:18])([H:8])([H:9])[H:10]"
C        1.57701090       1.39568658       0.08492717
C        0.51865876       0.35486496       0.32424220
C        0.93450894      -1.57372975      -0.35863295
C       -0.62073883       0.22050533      -0.62379306
C       -1.11430570      -1.16688628      -0.44734383
C       -1.62701238       0.88891556       0.16428677
O       -2.23827485       0.64616710       1.36437903
H        1.42385819       2.28659862       0.69899971
H        2.55957869       0.98507034       0.33486021
H        1.61930550       1.71533768      -0.95890915
H        0.42072975       0.07707074       1.37246821
H        1.79524105      -1.56186544       0.32378811
H        1.33720717      -1.42225410      -1.36233182
H        0.64958785      -2.63207960      -0.30152214
H       -0.47205663       0.58093683      -1.63503007
H       -1.67464953      -1.60190162      -1.27254259
H       -1.38922579      -1.59543825       0.51219238
H       -2.09173263       1.75299647      -0.30563934
H       -1.60769048       0.65000484       2.08560113
19
Frame=9 idx=008299 GeodesicLength=0.8210178191812709 rxn_smarts="[C:1]([C:2]([C:3]([H:12])([H:13])[H:14])([C@@:4]1([H:15])[C:5]([H:16])([H:17])[C@:6]1([O:7][H:19])[H:18])[H:11])([H:8])([H:9])[H:10]>>[C:1]([C@:2]1([H:11])[C@:4]([C:5]([C:3]([H:12])([H:13])[H:14])([H:16])[H:17])([H:15])[C@:6]1([O:7][H:19])[H:18])([H:8])([H:9])[H:10]"
C        1.56256181       1.40746588       0.09596993
C        0.51437444       0.35351801       0.32512237
C        0.93414848      -1.58526168      -0.36681072
C       -0.60647039       0.20954218      -0.64296299
C       -1.12668367      -1.16584800      -0.44990976
C       -1.60563961       0.86693690       0.16562421
O       -2.21262091       0.62465665       1.37077304
H        1.39315707       2.29206463       0.71493496
H        2.54890032       1.00732040       0.34724694
H        1.60707812       1.73611403      -0.94494592
H        0.42130370       0.06375812       1.37024500
H        1.79486042      -1.57888754       0.31467817
H        1.34134548      -1.43873237      -1.36983960
H        0.64670914      -2.64228454      -0.30994456
H       -0.45780412       0.57123761      -1.65295890
H       -1.69786910      -1.59207506      -1.27173163
H       -1.39056013      -1.60051541       0.50950449
H       -2.07005852       1.73373347      -0.30084182
H       -1.59673252       0.73725672       2.09584680
19
Frame=10 idx=008299 GeodesicLength=0.9129115856146839 rxn_smarts="[C:1]([C:2]([C:3]([H:12])([H:13])[H:14])([C@@:4]1([H:15])[C:5]([H:16])([H:17])[C@:6]1([O:7][H:19])[H:18])[H:11])([H:8])([H:9])[H:10]>>[C:1]([C@:2]1([H:11])[C@:4]([C:5]([C:3]([H:12])([H:13])[H:14])([H:16])[H:17])([H:15])[C@:6]1([O:7][H:19])[H:18])([H:8])([H:9])[H:10]"
C        1.54804412       1.41918587       0.10695442
C        0.51066271       0.35186011       0.32628343
C        0.93403978      -1.59713527      -0.37506918
C       -0.59205213       0.19848733      -0.66087320
C       -1.13881302      -1.16448324      -0.45237454
C       -1.58423046       0.84488830       0.16771566
O       -2.18294969       0.60470811       1.38034151
H        1.36237716       2.29711967       0.73078745
H        2.53829123       1.02987961       0.35919702
H        1.59397409       1.75690525      -0.93099707
H        0.42286921       0.05043134       1.36831304
H        1.79485273      -1.59650097       0.30534337
H        1.34549635      -1.45560178      -1.37752945
H        0.64385505      -2.65277406      -0.31847759
H       -0.44351475       0.56165477      -1.66966295
H       -1.72083540      -1.58102764      -1.27106424
H       -1.39201525      -1.60590952       0.50640677
H       -2.04954324       1.71353134      -0.29566487
H       -1.59050850       0.82478079       2.10037040
19
Frame=11 idx=008299 GeodesicLength=1.0047248537349365 rxn_smarts="[C:1]([C:2]([C:3]([H:12])([H:13])[H:14])([C@@:4]1([H:15])[C:5]([H:16])([H:17])[C@:6]1([O:7][H:19])[H:18])[H:11])([H:8])([H:9])[H:10]>>[C:1]([C@:2]1([H:11])[C@:4]([C:5]([C:3]([H:12])([H:13])[H:14])([H:16])[H:17])([H:15])[C@:6]1([O:7][H:19])[H:18])([H:8])([H:9])[H:10]"
C        1.53369740       1.43090148       0.11747215
C        0.50769647       0.35016413       0.32772324
C        0.93409630      -1.60924442      -0.38317232
C       -0.57734628       0.18755716      -0.67744555
C       -1.15064178      -1.16248450      -0.45443336
C       -1.56234091       0.82336748       0.17065831
O       -2.15023185       0.58637130       1.39208141
H        1.33197796       2.30198367       0.74596097
H        2.52796284       1.05273713       0.37011172
H        1.58007703       1.77755085      -0.91750358
H        0.42563661       0.03755925       1.36667216
H        1.79521050      -1.61455899       0.29583309
H        1.34939190      -1.47302660      -1.38522727
H        0.64087643      -2.66339570      -0.32662916
H       -0.42913509       0.55218941      -1.68510069
H       -1.74365583      -1.56845506      -1.27002992
H       -1.39348328      -1.61117682       0.50322495
H       -2.02924551       1.69326017      -0.28998910
H       -1.59054291       0.90870005       2.09979293
19
Frame=12 idx=008299 GeodesicLength=1.0966131186615153 rxn_smarts="[C:1]([C:2]([C:3]([H:12])([H:13])[H:14])([C@@:4]1([H:15])[C:5]([H:16])([H:17])[C@:6]1([O:7][H:19])[H:18])[H:11])([H:8])([H:9])[H:10]>>[C:1]([C@:2]1([H:11])[C@:4]([C:5]([C:3]([H:12])([H:13])[H:14])([H:16])[H:17])([H:15])[C@:6]1([O:7][H:19])[H:18])([H:8])([H:9])[H:10]"
C        1.51932806       1.44268695       0.12789430
C        0.50540024       0.34829765       0.32928103
C        0.93425602      -1.62168405      -0.39130768
C       -0.56252891       0.17662925      -0.69282194
C       -1.16228744      -1.16000711      -0.45606280
C       -1.54034697       0.80206088       0.17428033
O       -2.11410627       0.57001777       1.40637866
H        1.30158065       2.30645673       0.76116289
H        2.51768459       1.07602443       0.38060829
H        1.56531438       1.79838766      -0.90401546
H        0.42976148       0.02468657       1.36511154
H        1.79575830      -1.63324684       0.28612831
H        1.35315451      -1.49085577      -1.39302897
H        0.63772263      -2.67426273      -0.33481330
H       -0.41471092       0.54276540      -1.69939348
H       -1.76627079      -1.55461165      -1.26867427
H       -1.39512668      -1.61625089       0.50009281
H       -2.00972093       1.67242982      -0.28416512
H       -1.59486196       0.99047591       2.09334487
19
Frame=13 idx=008299 GeodesicLength=1.1883948632864842 rxn_smarts="[C:1]([C:2]([C:3]([H:12])([H:13])[H:14])([C@@:4]1([H:15])[C:5]([H:16])([H:17])[C@:6]1([O:7][H:19])[H:18])[H:11])([H:8])([H:9])[H:10]>>[C:1]([C@:2]1([H:11])[C@:4]([C:5]([C:3]([H:12])([H:13])[H:14])([H:16])[H:17])([H:15])[C@:6]1([O:7][H:19])[H:18])([H:8])([H:9])[H:10]"
C        1.50541205       1.45455786       0.13760556
C        0.50400023       0.34662997       0.33101435
C        0.93448362      -1.63429087      -0.39916863
C       -0.54741557       0.16598407      -0.70695615
C       -1.17368317      -1.15666003      -0.45704064
C       -1.51773051       0.78168360       0.17869613
O       -2.07601643       0.55510798       1.42188446
H        1.27196506       2.31091382       0.77538181
H        2.50792375       1.09965403       0.38989192
H        1.55007031       1.81896904      -0.89131096
H        0.43538116       0.01248484       1.36375209
H        1.79661979      -1.65231419       0.27631387
H        1.35648391      -1.50932713      -1.40078573
H        0.63426717      -2.68515824      -0.34231976
H       -0.40017575       0.53343248      -1.71258911
H       -1.78887752      -1.53904832      -1.26655825
H       -1.39680537      -1.62073709       0.49724854
H       -1.98984722       1.65218074      -0.27789247
H       -1.60605551       1.06593745       2.08283298
19
Frame=14 idx=008299 GeodesicLength=1.2802509787687517 rxn_smarts="[C:1]([C:2]([C:3]([H:12])([H:13])[H:14])([C@@:4]1([H:15])[C:5]([H:16])([H:17])[C@:6]1([O:7][H:19])[H:18])[H:11])([H:8])([H:9])[H:10]>>[C:1]([C@:2]1([H:11])[C@:4]([C:5]([C:3]([H:12])([H:13])[H:14])([H:16])[H:17])([H:15])[C@:6]1([O:7][H:19])[H:18])([H:8])([H:9])[H:10]"
C        1.49178662       1.46656131       0.14690764
C        0.50346119       0.34502847       0.33282059
C        0.93475088      -1.64715866      -0.40694290
C       -0.53208867       0.15547429      -0.71996980
C       -1.18488390      -1.15257183      -0.45728765
C       -1.49469307       0.76202897       0.18373255
O       -2.03568127       0.54203992       1.43877788
H        1.24287532       2.31513166       0.78927696
H        2.49852297       1.12371396       0.39827483
H        1.53414453       1.83966308      -0.87898096
H        0.44257012       0.00059231       1.36243398
H        1.79770907      -1.67192005       0.26627471
H        1.35944496      -1.52833857      -1.40862636
H        0.63049279      -2.69618736      -0.34953541
H       -0.38551399       0.52405548      -1.72479391
H       -1.81142968      -1.52198373      -1.26360205
H       -1.39857608      -1.62454901       0.49488266
H       -1.96989856       1.63219120      -0.27149876
H       -1.62299324       1.13622857       2.06785602
19
Frame=15 idx=008299 GeodesicLength=1.3721385140317799 rxn_smarts="[C:1]([C:2]([C:3]([H:12])([H:13])[H:14])([C@@:4]1([H:15])[C:5]([H:16])([H:17])[C@:6]1([O:7][H:19])[H:18])[H:11])([H:8])([H:9])[H:10]>>[C:1]([C@:2]1([H:11])[C@:4]([C:5]([C:3]([H:12])([H:13])[H:14])([H:16])[H:17])([H:15])[C@:6]1([O:7][H:19])[H:18])([H:8])([H:9])[H:10]"
C        1.47865622       1.47871966       0.15555749
C        0.50387299       0.34365548       0.33467669
C        0.93500944      -1.66023605      -0.41450350
C       -0.51648954       0.14520906      -0.73190739
C       -1.19586925      -1.14756666      -0.45673571
C       -1.47106498       0.74337035       0.18937530
O       -1.99368226       0.53059565       1.45649015
H        1.21462529       2.31928085       0.80245635
H        2.48966212       1.14818779       0.40550179
H        1.51775661       1.86028364      -0.86734043
H        0.45137944      -0.01074211       1.36114665
H        1.79900695      -1.69199307       0.25608574
H        1.36191122      -1.54800154      -1.41647201
H        0.62630309      -2.70727154      -0.35617008
H       -0.37068264       0.51464259      -1.73608936
H       -1.83396443      -1.50321860      -1.25965538
H       -1.40041341      -1.62748099       0.49308435
H       -1.94942810       1.61293697      -0.26490213
H       -1.64658875       1.19962852       2.04940149
19
Frame=16 idx=008299 GeodesicLength=1.4640507130055567 rxn_smarts="[C:1]([C:2]([C:3]([H:12])([H:13])[H:14])([C@@:4]1([H:15])[C:5]([H:16])([H:17])[C@:6]1([O:7][H:19])[H:18])[H:11])([H:8])([H:9])[H:10]>>[C:1]([C@:2]1([H:11])[C@:4]([C:5]([C:3]([H:12])([H:13])[H:14])([H:16])[H:17])([H:15])[C@:6]1([O:7][H:19])[H:18])([H:8])([H:9])[H:10]"
C        1.46602026       1.49107513       0.16354991
C        0.50525183       0.34253994       0.33651514
C        0.93520951      -1.67354044      -0.42182750
C       -0.50061769       0.13517403      -0.74286430
C       -1.20665054      -1.14158734      -0.45532312
C       -1.44683801       0.72579248       0.19549567
O       -1.95025492       0.52096789       1.47475132
H        1.18721198       2.32336145       0.81498368
H        2.48133215       1.17312531       0.41155624
H        1.50088070       1.88090768      -0.85637511
H        0.46179455      -0.02150412       1.35980511
H        1.80044710      -1.71255598       0.24577443
H        1.36383961      -1.56835685      -1.42429009
H        0.62162853      -2.71841123      -0.36217989
H       -0.35563344       0.50511318      -1.74658253
H       -1.85645819      -1.48273635      -1.25461154
H       -1.40234266      -1.62935186       0.49197739
H       -1.92822831       1.59461313      -0.25823733
H       -1.67659246       1.25537396       2.02788252
