14
Frame=0 idx=003977 GeodesicLength=0.0 rxn_smarts="[C:1]([O:2][C:3]([C:4]([C:5](=[O:6])[H:14])([H:12])[H:13])([H:10])[H:11])([H:7])([H:8])[H:9]>>[C:1]([O+:2]=[C-:3][H:10])([H:7])([H:8])[H:9].[C:4]([C:5](=[O:6])[H:14])([H:11])([H:12])[H:13]"
C        2.26324893       0.18042191      -0.49555894
O        1.17376975       1.06131177      -0.22229652
C        0.40436969       0.70664662       0.77720464
C       -1.12293020      -0.82555529      -0.07381804
C       -2.31976135      -0.02711033       0.19973605
O       -3.02781024      -0.16598683       1.17034884
H        2.98381231       0.73953235      -1.08749502
H        1.89803723      -0.67484652      -1.06916019
H        2.70869362      -0.16294098       0.43800497
H       -0.38664153       1.45764960       0.89697783
H       -0.10450864      -0.44326397       0.75521717
H       -1.16663535      -1.82966732       0.34792412
H       -0.77228229      -0.79494718      -1.10212759
H       -2.53136192       0.77875620      -0.53495733
14
Frame=1 idx=003977 GeodesicLength=0.1064999125336235 rxn_smarts="[C:1]([O:2][C:3]([C:4]([C:5](=[O:6])[H:14])([H:12])[H:13])([H:10])[H:11])([H:7])([H:8])[H:9]>>[C:1]([O+:2]=[C-:3][H:10])([H:7])([H:8])[H:9].[C:4]([C:5](=[O:6])[H:14])([H:11])([H:12])[H:13]"
C        2.24817235       0.22681317      -0.54230986
O        1.17830087       1.08521550      -0.15718918
C        0.40504279       0.66443286       0.81103619
C       -1.12108214      -0.86573224      -0.00378213
C       -2.30056522      -0.00601395       0.13737965
O       -3.05764383      -0.03409795       1.07954816
H        2.99149247       0.83838700      -1.04787714
H        1.85999659      -0.52616634      -1.23309101
H        2.67360878      -0.26149353       0.33485320
H       -0.37084906       1.41720787       0.99894376
H       -0.08664966      -0.50648379       0.82009938
H       -1.24006676      -1.83076820       0.48959164
H       -0.74410750      -0.94901155      -1.02009638
H       -2.43564969       0.74771115      -0.66710628
14
Frame=2 idx=003977 GeodesicLength=0.2107286089282822 rxn_smarts="[C:1]([O:2][C:3]([C:4]([C:5](=[O:6])[H:14])([H:12])[H:13])([H:10])[H:11])([H:7])([H:8])[H:9]>>[C:1]([O+:2]=[C-:3][H:10])([H:7])([H:8])[H:9].[C:4]([C:5](=[O:6])[H:14])([H:11])([H:12])[H:13]"
C        2.22007372       0.27198523      -0.59005698
O        1.18975447       1.10868407      -0.07929379
C        0.40766645       0.62614173       0.85052947
C       -1.11487427      -0.90103577       0.06831102
C       -2.26599333       0.01056562       0.06917959
O       -3.07751662       0.08397866       0.96175567
H        2.99103049       0.91207783      -1.01200406
H        1.79288856      -0.35502709      -1.37749684
H        2.62224667      -0.35771281       0.20471052
H       -0.35231732       1.37642014       1.10331436
H       -0.06860354      -0.56474387       0.89244464
H       -1.31167385      -1.81633508       0.62788214
H       -0.71280416      -1.09878103      -0.92263646
H       -2.31987727       0.70378237      -0.79663929
14
Frame=3 idx=003977 GeodesicLength=0.3195910872647398 rxn_smarts="[C:1]([O:2][C:3]([C:4]([C:5](=[O:6])[H:14])([H:12])[H:13])([H:10])[H:11])([H:7])([H:8])[H:9]>>[C:1]([O+:2]=[C-:3][H:10])([H:7])([H:8])[H:9].[C:4]([C:5](=[O:6])[H:14])([H:11])([H:12])[H:13]"
C        2.17658143       0.31830191      -0.63647977
O        1.20813168       1.12693894       0.01453748
C        0.40941091       0.58802078       0.89671291
C       -1.10535220      -0.93492081       0.13828253
C       -2.21641683       0.01721262      -0.00943275
O       -3.06327104       0.20961197       0.83029934
H        2.98015748       0.96386890      -0.98230497
H        1.69620225      -0.16099283      -1.49435719
H        2.54979785      -0.44359661       0.04986458
H       -0.33604584       1.33165657       1.20716512
H       -0.05196162      -0.62258809       0.96942740
H       -1.38484792      -1.78897287       0.75694869
H       -0.67862831      -1.24523822      -0.81317738
H       -2.18375784       0.64069774      -0.92748600
14
Frame=4 idx=003977 GeodesicLength=0.4314428921784893 rxn_smarts="[C:1]([O:2][C:3]([C:4]([C:5](=[O:6])[H:14])([H:12])[H:13])([H:10])[H:11])([H:7])([H:8])[H:9]>>[C:1]([O+:2]=[C-:3][H:10])([H:7])([H:8])[H:9].[C:4]([C:5](=[O:6])[H:14])([H:11])([H:12])[H:13]"
C        2.12355707       0.36005231      -0.67991945
O        1.24671046       1.13530598       0.11980565
C        0.41399404       0.55892799       0.94433902
C       -1.09069988      -0.95908449       0.20521987
C       -2.15385269       0.01852070      -0.08392740
O       -3.04742463       0.29690162       0.68002868
H        2.96983323       0.98122750      -0.96281730
H        1.57942583       0.05000813      -1.57709489
H        2.44751747      -0.52136827      -0.12315231
H       -0.31615920       1.29989151       1.29614232
H       -0.03801592      -0.66889149       1.05269959
H       -1.44856206      -1.74837291       0.86846814
H       -0.64581614      -1.37174168      -0.69841375
H       -2.04050759       0.56862309      -1.04137816
14
Frame=5 idx=003977 GeodesicLength=0.5547107890490796 rxn_smarts="[C:1]([O:2][C:3]([C:4]([C:5](=[O:6])[H:14])([H:12])[H:13])([H:10])[H:11])([H:7])([H:8])[H:9]>>[C:1]([O+:2]=[C-:3][H:10])([H:7])([H:8])[H:9].[C:4]([C:5](=[O:6])[H:14])([H:11])([H:12])[H:13]"
C        2.06222870       0.40525831      -0.71740943
O        1.29730412       1.12361512       0.23293334
C        0.41519100       0.52881480       0.99023521
C       -1.07699239      -0.98422839       0.26616646
C       -2.08427604       0.00518135      -0.16267153
O       -2.98651288       0.39941388       0.53606435
H        2.95361518       0.98185720      -0.95185875
H        1.45570430       0.27893826      -1.61953604
H        2.31964962      -0.57426541      -0.30872971
H       -0.30064803       1.27169893       1.36771881
H       -0.02875042      -0.71570313       1.13426606
H       -1.51334687      -1.70044712       0.96477208
H       -0.61962965      -1.49297465      -0.58106133
H       -1.89353665       0.47284085      -1.15088952
14
Frame=6 idx=003977 GeodesicLength=0.6770445510336367 rxn_smarts="[C:1]([O:2][C:3]([C:4]([C:5](=[O:6])[H:14])([H:12])[H:13])([H:10])[H:11])([H:7])([H:8])[H:9]>>[C:1]([O+:2]=[C-:3][H:10])([H:7])([H:8])[H:9].[C:4]([C:5](=[O:6])[H:14])([H:11])([H:12])[H:13]"
C        2.00687162       0.44943015      -0.74953026
O        1.36655353       1.08545499       0.33947146
C        0.42036180       0.50265783       1.02661623
C       -1.06730613      -1.00115914       0.32405023
C       -2.01451525      -0.01003622      -0.22856785
O       -2.94071626       0.45779769       0.38727059
H        2.94586724       0.95998853      -0.94857099
H        1.35312115       0.51814252      -1.62475526
H        2.17142646      -0.60130951      -0.49941946
H       -0.27502704       1.25922442       1.41590752
H       -0.02472293      -0.75412754       1.21347868
H       -1.57312767      -1.64400084       1.04713902
H       -0.61015192      -1.59649482      -0.46565569
H       -1.75863458       0.37443192      -1.23743421
14
Frame=7 idx=003977 GeodesicLength=0.7937721467486912 rxn_smarts="[C:1]([O:2][C:3]([C:4]([C:5](=[O:6])[H:14])([H:12])[H:13])([H:10])[H:11])([H:7])([H:8])[H:9]>>[C:1]([O+:2]=[C-:3][H:10])([H:7])([H:8])[H:9].[C:4]([C:5](=[O:6])[H:14])([H:11])([H:12])[H:13]"
C        1.96549112       0.49892416      -0.77612819
O        1.43879199       1.02081141       0.42706204
C        0.42527032       0.47331258       1.04603358
C       -1.06955970      -1.01689129       0.37978674
C       -1.95452581      -0.03350015      -0.28521826
O       -2.89086976       0.50566641       0.25083274
H        2.94668542       0.93476287      -0.94742447
H        1.29139030       0.75925529      -1.59850901
H        2.02410279      -0.58883247      -0.68703340
H       -0.24242008       1.25088530       1.44328611
H       -0.02545192      -0.79255821       1.28195028
H       -1.63606090      -1.57984220       1.12445152
H       -0.62760716      -1.69483829      -0.35062585
H       -1.64523661       0.26284457      -1.30846384
14
Frame=8 idx=003977 GeodesicLength=0.9060389597659978 rxn_smarts="[C:1]([O:2][C:3]([C:4]([C:5](=[O:6])[H:14])([H:12])[H:13])([H:10])[H:11])([H:7])([H:8])[H:9]>>[C:1]([O+:2]=[C-:3][H:10])([H:7])([H:8])[H:9].[C:4]([C:5](=[O:6])[H:14])([H:11])([H:12])[H:13]"
C        1.93961082       0.55497152      -0.79865311
O        1.50651616       0.93422902       0.49130887
C        0.43099966       0.43787767       1.04879576
C       -1.08497775      -1.03139676       0.43475827
C       -1.90535641      -0.06419233      -0.33435712
O       -2.83888528       0.54665519       0.12333848
H        2.95314527       0.91778963      -0.95085673
H        1.26697924       0.99008209      -1.54506284
H        1.89458312      -0.53524103      -0.86669022
H       -0.20107246       1.23931977       1.45735621
H       -0.03011839      -0.83322067       1.33923263
H       -1.70379120      -1.50476856       1.20000917
H       -0.67499400      -1.79028415      -0.23302980
H       -1.55263877       0.13817862      -1.36614957
14
Frame=9 idx=003977 GeodesicLength=1.0211996144726296 rxn_smarts="[C:1]([O:2][C:3]([C:4]([C:5](=[O:6])[H:14])([H:12])[H:13])([H:10])[H:11])([H:7])([H:8])[H:9]>>[C:1]([O+:2]=[C-:3][H:10])([H:7])([H:8])[H:9].[C:4]([C:5](=[O:6])[H:14])([H:11])([H:12])[H:13]"
C        1.93411355       0.61474707      -0.81752121
O        1.56999892       0.83072490       0.52940043
C        0.43744213       0.40221564       1.03223236
C       -1.11012158      -1.04123420       0.48927728
C       -1.87311769      -0.10067928      -0.37138364
O       -2.81303907       0.55364236       0.00406831
H        2.97750232       0.89011551      -0.95020100
H        1.29648184       1.22150945      -1.46876296
H        1.77280676      -0.44298825      -1.04338041
H       -0.15012631       1.22985708       1.45599218
H       -0.03764902      -0.86904824       1.38732563
H       -1.76675641      -1.42174696       1.27467811
H       -0.74567619      -1.87427474      -0.11474504
H       -1.49185924       0.00715966      -1.40698003
14
Frame=10 idx=003977 GeodesicLength=1.1374738704162706 rxn_smarts="[C:1]([O:2][C:3]([C:4]([C:5](=[O:6])[H:14])([H:12])[H:13])([H:10])[H:11])([H:7])([H:8])[H:9]>>[C:1]([O+:2]=[C-:3][H:10])([H:7])([H:8])[H:9].[C:4]([C:5](=[O:6])[H:14])([H:11])([H:12])[H:13]"
C        1.93375870       0.67966258      -0.83376587
O        1.62097245       0.71456057       0.54226483
C        0.44484590       0.35972714       1.00694789
C       -1.14140430      -1.04967582       0.54321829
C       -1.84484020      -0.14656568      -0.40802589
O       -2.77223324       0.56350760      -0.11283891
H        2.99629569       0.87200749      -0.96117790
H        1.34290494       1.43268572      -1.36551634
H        1.66624843      -0.31260250      -1.20816145
H       -0.09293688       1.21102161       1.45041583
H       -0.04920675      -0.90596048       1.43153010
H       -1.83072607      -1.32649937       1.34387699
H       -0.83425592      -1.95284927       0.01105996
H       -1.43942275      -0.13901960      -1.43982754
14
Frame=11 idx=003977 GeodesicLength=1.2575133531826257 rxn_smarts="[C:1]([O:2][C:3]([C:4]([C:5](=[O:6])[H:14])([H:12])[H:13])([H:10])[H:11])([H:7])([H:8])[H:9]>>[C:1]([O+:2]=[C-:3][H:10])([H:7])([H:8])[H:9].[C:4]([C:5](=[O:6])[H:14])([H:11])([H:12])[H:13]"
C        1.94408105       0.74685216      -0.84628575
O        1.66062939       0.58969129       0.52715078
C        0.45123394       0.31726220       0.96882039
C       -1.17594236      -1.05369902       0.59571220
C       -1.82765670      -0.20062749      -0.43912411
O       -2.75007187       0.54417563      -0.22730280
H        3.01932884       0.83953359      -0.97864579
H        1.43174762       1.63307062      -1.23446529
H        1.56233794      -0.13882697      -1.36251561
H       -0.02966365       1.19047901       1.43611642
H       -0.06275573      -0.93660658       1.47160390
H       -1.88640398      -1.22383503       1.40757868
H       -0.93306300      -2.01765748       0.14082689
H       -1.40380149      -0.28981193      -1.45946991
14
Frame=12 idx=003977 GeodesicLength=1.3680173741965709 rxn_smarts="[C:1]([O:2][C:3]([C:4]([C:5](=[O:6])[H:14])([H:12])[H:13])([H:10])[H:11])([H:7])([H:8])[H:9]>>[C:1]([O+:2]=[C-:3][H:10])([H:7])([H:8])[H:9].[C:4]([C:5](=[O:6])[H:14])([H:11])([H:12])[H:13]"
C        1.94402807       0.81334376      -0.85629755
O        1.68386973       0.46434111       0.48579105
C        0.45948032       0.26970787       0.93528243
C       -1.20831574      -1.05438908       0.64485010
C       -1.80168820      -0.26231733      -0.47421014
O       -2.69760911       0.53182702      -0.34855298
H        3.01899352       0.81588112      -1.02021324
H        1.51621921       1.79538112      -1.08168594
H        1.45757869       0.06323377      -1.48683729
H        0.03877386       1.15970981       1.42950612
H       -0.07869060      -0.96788009       1.51316448
H       -1.93819796      -1.10941112       1.45536943
H       -1.03802672      -2.06996682       0.27558198
H       -1.35641509      -0.44946113      -1.47174845
14
Frame=13 idx=003977 GeodesicLength=1.473544430523199 rxn_smarts="[C:1]([O:2][C:3]([C:4]([C:5](=[O:6])[H:14])([H:12])[H:13])([H:10])[H:11])([H:7])([H:8])[H:9]>>[C:1]([O+:2]=[C-:3][H:10])([H:7])([H:8])[H:9].[C:4]([C:5](=[O:6])[H:14])([H:11])([H:12])[H:13]"
C        1.93845610       0.87556631      -0.86290653
O        1.69201158       0.34193107       0.41952455
C        0.46881197       0.22393542       0.90532157
C       -1.23684227      -1.04811843       0.68858959
C       -1.77144206      -0.32678483      -0.50894308
O       -2.65267319       0.49203732      -0.47668630
H        2.99917554       0.78461738      -1.08484975
H        1.61952925       1.92132706      -0.91058206
H        1.34516869       0.29480646      -1.57543323
H        0.11388830       1.12669963       1.42873025
H       -0.09553410      -0.99428369       1.55505413
H       -1.97988915      -0.98798092       1.48655706
H       -1.14205558      -2.10220257       0.40849510
H       -1.29860509      -0.60155020      -1.47287131
14
Frame=14 idx=003977 GeodesicLength=1.5801625861081443 rxn_smarts="[C:1]([O:2][C:3]([C:4]([C:5](=[O:6])[H:14])([H:12])[H:13])([H:10])[H:11])([H:7])([H:8])[H:9]>>[C:1]([O+:2]=[C-:3][H:10])([H:7])([H:8])[H:9].[C:4]([C:5](=[O:6])[H:14])([H:11])([H:12])[H:13]"
C        1.91336921       0.93168365      -0.86815814
O        1.68136862       0.23123994       0.33416312
C        0.48049677       0.17680686       0.88914891
C       -1.25990642      -1.03793817       0.72595847
C       -1.72620219      -0.39696727      -0.54718859
O       -2.56526580       0.46268090      -0.61127059
H        2.94386817       0.76738564      -1.17476179
H        1.70922834       1.99897371      -0.74101112
H        1.22245578       0.53132857      -1.61601347
H        0.19323537       1.08644469       1.44253039
H       -0.11379149      -1.02318683       1.59887405
H       -2.01402756      -0.85886277       1.49498915
H       -1.24787305      -2.11709654       0.53769523
H       -1.21695574      -0.75249239      -1.46495562
14
Frame=15 idx=003977 GeodesicLength=1.6935163822724197 rxn_smarts="[C:1]([O:2][C:3]([C:4]([C:5](=[O:6])[H:14])([H:12])[H:13])([H:10])[H:11])([H:7])([H:8])[H:9]>>[C:1]([O+:2]=[C-:3][H:10])([H:7])([H:8])[H:9].[C:4]([C:5](=[O:6])[H:14])([H:11])([H:12])[H:13]"
C        1.87765691       0.98040568      -0.87107699
O        1.65359029       0.13382908       0.23493596
C        0.49675222       0.13201287       0.88420882
C       -1.27756923      -1.01928239       0.75562048
C       -1.66991163      -0.46340216      -0.58423845
O       -2.48606978       0.40371111      -0.75087928
H        2.85884874       0.75521978      -1.28317899
H        1.80686642       2.03235011      -0.58031987
H        1.09650108       0.77059050      -1.60766056
H        0.28146138       1.04321629       1.46794933
H       -0.13380316      -1.05054602       1.64292020
H       -2.03685644      -0.72528329       1.48284200
H       -1.35249967      -2.10839083       0.65498109
H       -1.11496711      -0.88443073      -1.44610374
14
Frame=16 idx=003977 GeodesicLength=1.8228422881597446 rxn_smarts="[C:1]([O:2][C:3]([C:4]([C:5](=[O:6])[H:14])([H:12])[H:13])([H:10])[H:11])([H:7])([H:8])[H:9]>>[C:1]([O+:2]=[C-:3][H:10])([H:7])([H:8])[H:9].[C:4]([C:5](=[O:6])[H:14])([H:11])([H:12])[H:13]"
C        1.82712119       1.02255710      -0.87278660
O        1.60782101       0.05480849       0.13030161
C        0.51738993       0.08614533       0.88990123
C       -1.29052956      -0.99573470       0.77795342
C       -1.60319872      -0.53104971      -0.61982000
O       -2.38134791       0.34500871      -0.88776739
H        2.74192014       0.76000241      -1.39995029
H        1.89427374       2.02652557      -0.44522801
H        0.97193008       0.99266031      -1.55416579
H        0.37427308       0.99350215       1.50212689
H       -0.15717748      -1.07951050       1.68715039
H       -2.04865813      -0.58995480       1.45023928
H       -1.45750078      -2.07984827       0.75880375
H       -0.99631659      -1.00511210      -1.41675847
