14
Frame=0 idx=000268 GeodesicLength=0.0 rxn_smarts="[C:1]([C@:2]12[C:3]([H:10])([H:11])[C@@:4]1([H:12])[O:5][C:6]2([H:13])[H:14])([H:7])([H:8])[H:9]>>[C:1]([C:2][C:6]([O:5][C:4](=[C:3]([H:10])[H:11])[H:12])([H:13])[H:14])([H:7])([H:8])[H:9]"
C        1.59221369      -0.32485904      -0.57999908
C        0.67124386      -0.10220565       0.55543635
C       -1.34010561      -1.24559389       0.39817260
C       -1.54641577      -0.03408953      -0.12555867
O       -1.36815192       1.10050609       0.62755975
C        0.04038064       1.29559452       0.53390361
H        1.84368190      -1.37343181      -0.73821094
H        2.51078692       0.14982076      -0.19216170
H        1.36172628       0.16904548      -1.53340357
H       -1.38003762      -2.11438737      -0.24762307
H       -1.24250374      -1.40084345       1.46001899
H       -1.77314970       0.12924220      -1.17817840
H        0.38962893       1.86757297       1.39828142
H        0.24070210       1.88362878      -0.37823725
14
Frame=1 idx=000268 GeodesicLength=0.062498311799446406 rxn_smarts="[C:1]([C@:2]12[C:3]([H:10])([H:11])[C@@:4]1([H:12])[O:5][C:6]2([H:13])[H:14])([H:7])([H:8])[H:9]>>[C:1]([C:2][C:6]([O:5][C:4](=[C:3]([H:10])[H:11])[H:12])([H:13])[H:14])([H:7])([H:8])[H:9]"
C        1.61365313      -0.31725302      -0.57437706
C        0.65415714      -0.10299010       0.53003409
C       -1.33499033      -1.24666242       0.39994065
C       -1.55923339      -0.03178093      -0.11638019
O       -1.37228071       1.10450935       0.63205881
C        0.03494370       1.29548902       0.51664663
H        1.83602206      -1.37033119      -0.74809833
H        2.53284078       0.11997782      -0.14819418
H        1.42661371       0.20017670      -1.52454647
H       -1.39985550      -2.11311190      -0.24698542
H       -1.21524628      -1.41457278       1.45757065
H       -1.84134101       0.13168639      -1.15514504
H        0.39823637       1.86530498       1.37693552
H        0.22648035       1.87955807      -0.39945968
14
Frame=2 idx=000268 GeodesicLength=0.12282907216248715 rxn_smarts="[C:1]([C@:2]12[C:3]([H:10])([H:11])[C@@:4]1([H:12])[O:5][C:6]2([H:13])[H:14])([H:7])([H:8])[H:9]>>[C:1]([C:2][C:6]([O:5][C:4](=[C:3]([H:10])[H:11])[H:12])([H:13])[H:14])([H:7])([H:8])[H:9]"
C        1.63465732      -0.30987562      -0.56784576
C        0.63737572      -0.10325512       0.50379588
C       -1.32944335      -1.24756197       0.40105092
C       -1.57160976      -0.02945006      -0.10758408
O       -1.37608651       1.10859200       0.63604741
C        0.02943041       1.29566307       0.49871355
H        1.82779619      -1.36585903      -0.76032378
H        2.55238859       0.08761339      -0.10342365
H        1.49204452       0.23171293      -1.51198829
H       -1.41906386      -2.11178241      -0.24592497
H       -1.18701638      -1.42799746       1.45378983
H       -1.90928213       0.13346249      -1.12938744
H        0.40671195       1.86340142       1.35462751
H        0.21209726       1.87533636      -0.42154713
14
Frame=3 idx=000268 GeodesicLength=0.18092514321236594 rxn_smarts="[C:1]([C@:2]12[C:3]([H:10])([H:11])[C@@:4]1([H:12])[O:5][C:6]2([H:13])[H:14])([H:7])([H:8])[H:9]>>[C:1]([C:2][C:6]([O:5][C:4](=[C:3]([H:10])[H:11])[H:12])([H:13])[H:14])([H:7])([H:8])[H:9]"
C        1.65496231      -0.30283700      -0.56041235
C        0.62095998      -0.10293911       0.47695695
C       -1.32334813      -1.24826566       0.40148523
C       -1.58336151      -0.02709027      -0.09932311
O       -1.37956775       1.11280527       0.63939294
C        0.02386598       1.29619419       0.48025009
H        1.81903257      -1.35994276      -0.77480390
H        2.56912615       0.05273711      -0.05839809
H        1.55735311       0.26328742      -1.49562342
H       -1.43739119      -2.11044135      -0.24443983
H       -1.15789823      -1.44100646       1.44867952
H       -1.97637444       0.13448288      -1.10106022
H        0.41491731       1.86192781       1.33159996
H        0.19772384       1.87108790      -0.44430376
14
Frame=4 idx=000268 GeodesicLength=0.23655921678510394 rxn_smarts="[C:1]([C@:2]12[C:3]([H:10])([H:11])[C@@:4]1([H:12])[O:5][C:6]2([H:13])[H:14])([H:7])([H:8])[H:9]>>[C:1]([C:2][C:6]([O:5][C:4](=[C:3]([H:10])[H:11])[H:12])([H:13])[H:14])([H:7])([H:8])[H:9]"
C        1.67414083      -0.29629518      -0.55206595
C        0.60503293      -0.10191208       0.44999302
C       -1.31650086      -1.24867352       0.40112314
C       -1.59419006      -0.02468297      -0.09180030
O       -1.38271120       1.11711142       0.64195438
C        0.01831538       1.29712170       0.46152987
H        1.80976879      -1.35258270      -0.79094982
H        2.58276479       0.01575718      -0.01411350
H        1.62122450       0.29406470      -1.47556625
H       -1.45434573      -2.10896957      -0.24268183
H       -1.12807980      -1.45344799       1.44211891
H       -2.04174310       0.13472090      -1.07042349
H        0.42267450       1.86089492       1.30820763
H        0.18364903       1.86689319      -0.46732581
14
Frame=5 idx=000268 GeodesicLength=0.28985424850919095 rxn_smarts="[C:1]([C@:2]12[C:3]([H:10])([H:11])[C@@:4]1([H:12])[O:5][C:6]2([H:13])[H:14])([H:7])([H:8])[H:9]>>[C:1]([C:2][C:6]([O:5][C:4](=[C:3]([H:10])[H:11])[H:12])([H:13])[H:14])([H:7])([H:8])[H:9]"
C        1.69196538      -0.29036960      -0.54286123
C        0.58965902      -0.10014896       0.42324435
C       -1.30882559      -1.24876885       0.39994264
C       -1.60396478      -0.02220234      -0.08517357
O       -1.38554396       1.12156585       0.64365939
C        0.01281646       1.29851108       0.44277582
H        1.80012973      -1.34387480      -0.80833445
H        2.59325464      -0.02296878       0.02878999
H        1.68284265       0.32351365      -1.45213340
H       -1.46972478      -2.10740851      -0.24073504
H       -1.09769743      -1.46526073       1.43417017
H       -2.10483964       0.13415301      -1.03781743
H        0.42988750       1.86035196       1.28480650
H        0.17004080       1.86290702      -0.49033373
14
Frame=6 idx=000268 GeodesicLength=0.34132523888810445 rxn_smarts="[C:1]([C@:2]12[C:3]([H:10])([H:11])[C@@:4]1([H:12])[O:5][C:6]2([H:13])[H:14])([H:7])([H:8])[H:9]>>[C:1]([C:2][C:6]([O:5][C:4](=[C:3]([H:10])[H:11])[H:12])([H:13])[H:14])([H:7])([H:8])[H:9]"
C        1.70846309      -0.28530801      -0.53298414
C        0.57483611      -0.09778577       0.39696601
C       -1.30030912      -1.24883485       0.39807361
C       -1.61272743      -0.01951823      -0.07959018
O       -1.38822110       1.12664782       0.64465662
C        0.00728871       1.30073853       0.42422898
H        1.79048544      -1.33435571      -0.82694796
H        2.60073862      -0.06339097       0.07011722
H        1.74199211       0.35143601      -1.42598375
H       -1.48351178      -2.10634696      -0.23870225
H       -1.06680742      -1.47677223       1.42537915
H       -2.16547640       0.13298711      -1.00387186
H        0.43640036       1.86077432       1.26201003
H        0.15684880       1.85972893      -0.51335148
14
Frame=7 idx=000268 GeodesicLength=0.39102101940884815 rxn_smarts="[C:1]([C@:2]12[C:3]([H:10])([H:11])[C@@:4]1([H:12])[O:5][C:6]2([H:13])[H:14])([H:7])([H:8])[H:9]>>[C:1]([C:2][C:6]([O:5][C:4](=[C:3]([H:10])[H:11])[H:12])([H:13])[H:14])([H:7])([H:8])[H:9]"
C        1.72316912      -0.28050404      -0.52233030
C        0.56053722      -0.09449412       0.37108810
C       -1.29114768      -1.24797125       0.39552814
C       -1.62020653      -0.01704107      -0.07500456
O       -1.39054953       1.13109016       0.64415426
C        0.00201545       1.30276207       0.40574858
H        1.77978779      -1.32247149      -0.84631174
H        2.60506898      -0.10499669       0.10900406
H        1.79820724       0.37776662      -1.39639637
H       -1.49560147      -2.10430333      -0.23588149
H       -1.03584957      -1.48659912       1.41483745
H       -2.22252727       0.13006204      -0.96806568
H        0.44228764       1.86057864       1.23912850
H        0.14480862       1.85612157      -0.53549896
14
Frame=8 idx=000268 GeodesicLength=0.4386763412644265 rxn_smarts="[C:1]([C@:2]12[C:3]([H:10])([H:11])[C@@:4]1([H:12])[O:5][C:6]2([H:13])[H:14])([H:7])([H:8])[H:9]>>[C:1]([C:2][C:6]([O:5][C:4](=[C:3]([H:10])[H:11])[H:12])([H:13])[H:14])([H:7])([H:8])[H:9]"
C        1.73598452      -0.27680381      -0.51130436
C        0.54698165      -0.09051349       0.34674689
C       -1.28100269      -1.24701661       0.39233090
C       -1.62633403      -0.01431946      -0.07187926
O       -1.39291425       1.13624255       0.64277096
C       -0.00320859       1.30575818       0.38824477
H        1.76897217      -1.31046119      -0.86547981
H        2.60683039      -0.14700666       0.14471876
H        1.84968464       0.40114819      -1.36580295
H       -1.50530458      -2.10279529      -0.23322658
H       -1.00491082      -1.49591059       1.40380998
H       -2.27560189       0.12649445      -0.93235093
H        0.44712049       1.86134104       1.21807289
H        0.13370300       1.85384269      -0.55665127
14
Frame=9 idx=000268 GeodesicLength=0.48475409323147445 rxn_smarts="[C:1]([C@:2]12[C:3]([H:10])([H:11])[C@@:4]1([H:12])[O:5][C:6]2([H:13])[H:14])([H:7])([H:8])[H:9]>>[C:1]([C:2][C:6]([O:5][C:4](=[C:3]([H:10])[H:11])[H:12])([H:13])[H:14])([H:7])([H:8])[H:9]"
C        1.74653666      -0.27402194      -0.49988487
C        0.53420391      -0.08570293       0.32449207
C       -1.26993884      -1.24559049       0.38827989
C       -1.63088990      -0.01146165      -0.07018016
O       -1.39519511       1.14141494       0.64042972
C       -0.00817132       1.30921285       0.37196509
H        1.75776203      -1.29832233      -0.88265153
H        2.60638962      -0.18769330       0.17608749
H        1.89510603       0.42063510      -1.33516423
H       -1.51234895      -2.10099086      -0.23101686
H       -0.97461053      -1.50436790       1.39178366
H       -2.32382021       0.12222152      -0.89684592
H        0.45093202       1.86237094       1.19879770
H        0.12404458       1.85229606      -0.57609205
14
Frame=10 idx=000268 GeodesicLength=0.5300564076336096 rxn_smarts="[C:1]([C@:2]12[C:3]([H:10])([H:11])[C@@:4]1([H:12])[O:5][C:6]2([H:13])[H:14])([H:7])([H:8])[H:9]>>[C:1]([C:2][C:6]([O:5][C:4](=[C:3]([H:10])[H:11])[H:12])([H:13])[H:14])([H:7])([H:8])[H:9]"
C        1.75568026      -0.27191298      -0.48812449
C        0.52189833      -0.08040333       0.30316309
C       -1.25841999      -1.24383354       0.38377113
C       -1.63461566      -0.00850967      -0.06952763
O       -1.39748132       1.14674414       0.63730473
C       -0.01302820       1.31302514       0.35625932
H        1.74663047      -1.28554620      -0.89947779
H        2.60406694      -0.22836854       0.20494977
H        1.93718163       0.43799231      -1.30361905
H       -1.51796139      -2.09918334      -0.22866815
H       -0.94447480      -1.51205578       1.37910174
H       -2.36877128       0.11714162      -0.86096873
H        0.45411854       1.86359799       1.18053626
H        0.11517648       1.85131218      -0.59470021
14
Frame=11 idx=000268 GeodesicLength=0.5748692872596624 rxn_smarts="[C:1]([C@:2]12[C:3]([H:10])([H:11])[C@@:4]1([H:12])[O:5][C:6]2([H:13])[H:14])([H:7])([H:8])[H:9]>>[C:1]([C:2][C:6]([O:5][C:4](=[C:3]([H:10])[H:11])[H:12])([H:13])[H:14])([H:7])([H:8])[H:9]"
C        1.76369788      -0.27037805      -0.47605391
C        0.50993882      -0.07475115       0.28237034
C       -1.24662580      -1.24178944       0.37897703
C       -1.63778114      -0.00548641      -0.06974629
O       -1.39981703       1.15223702       0.63347695
C       -0.01783237       1.31712052       0.34089686
H        1.73578264      -1.27189328      -0.91646042
H        2.59993657      -0.26943779       0.23179597
H        1.97685074       0.45382292      -1.27086694
H       -1.52256588      -2.09744189      -0.22594203
H       -0.91442273      -1.51899860       1.36590570
H       -2.41086559       0.11125072      -0.82456939
H        0.45679839       1.86495539       1.16298664
H        0.10690550       1.85079004      -0.61277051
14
Frame=12 idx=000268 GeodesicLength=0.6194015124623614 rxn_smarts="[C:1]([C@:2]12[C:3]([H:10])([H:11])[C@@:4]1([H:12])[O:5][C:6]2([H:13])[H:14])([H:7])([H:8])[H:9]>>[C:1]([C:2][C:6]([O:5][C:4](=[C:3]([H:10])[H:11])[H:12])([H:13])[H:14])([H:7])([H:8])[H:9]"
C        1.77046721      -0.26946708      -0.46362723
C        0.49831814      -0.06871049       0.26238764
C       -1.23450509      -1.23944665       0.37375501
C       -1.64036927      -0.00234269      -0.07075289
O       -1.40214406       1.15780699       0.62915403
C       -0.02256771       1.32148580       0.32595936
H        1.72519573      -1.25776028      -0.93269802
H        2.59423084      -0.31020448       0.25640873
H        2.01358972       0.46764015      -1.23752341
H       -1.52588053      -2.09557230      -0.22331571
H       -0.88451057      -1.52540919       1.35203275
H       -2.45004028       0.10482840      -0.78766046
H        0.45900713       1.86650638       1.14614124
H        0.09920876       1.85064545      -0.63026104
14
Frame=13 idx=000268 GeodesicLength=0.6636912816167858 rxn_smarts="[C:1]([C@:2]12[C:3]([H:10])([H:11])[C@@:4]1([H:12])[O:5][C:6]2([H:13])[H:14])([H:7])([H:8])[H:9]>>[C:1]([C:2][C:6]([O:5][C:4](=[C:3]([H:10])[H:11])[H:12])([H:13])[H:14])([H:7])([H:8])[H:9]"
C        1.77602654      -0.26907407      -0.45107356
C        0.48697364      -0.06238631       0.24304079
C       -1.22220645      -1.23679802       0.36846847
C       -1.64242288       0.00083363      -0.07256863
O       -1.40457163       1.16346594       0.62412971
C       -0.02723690       1.32602507       0.31153892
H        1.71479380      -1.24292348      -0.94876406
H        2.58699726      -0.35089605       0.27875959
H        2.04766527       0.47990467      -1.20363304
H       -1.52826523      -2.09374239      -0.22011013
H       -0.85484810      -1.53099163       1.33792347
H       -2.48579100       0.09764610      -0.75105355
H        0.46067375       1.86792343       1.13028097
H        0.09221192       1.85101311      -0.64693895
14
Frame=14 idx=000268 GeodesicLength=0.7078118668605392 rxn_smarts="[C:1]([C@:2]12[C:3]([H:10])([H:11])[C@@:4]1([H:12])[O:5][C:6]2([H:13])[H:14])([H:7])([H:8])[H:9]>>[C:1]([C:2][C:6]([O:5][C:4](=[C:3]([H:10])[H:11])[H:12])([H:13])[H:14])([H:7])([H:8])[H:9]"
C        1.78039735      -0.26927055      -0.43835459
C        0.47592987      -0.05576157       0.22454821
C       -1.20972181      -1.23388251       0.36296137
C       -1.64404052       0.00410238      -0.07507227
O       -1.40711100       1.16921699       0.61867103
C       -0.03184226       1.33078722       0.29772275
H        1.70465049      -1.22794206      -0.96381946
H        2.57867959      -0.39080594       0.29878805
H        2.07873310       0.49017667      -1.16985701
H       -1.52956943      -2.09185645      -0.21684062
H       -0.82542614      -1.53601287       1.32340156
H       -2.51837027       0.09001023      -0.71478693
H        0.46188512       1.86937965       1.11541672
H        0.08580591       1.85185881      -0.66277881
14
Frame=15 idx=000268 GeodesicLength=0.7519631054900462 rxn_smarts="[C:1]([C@:2]12[C:3]([H:10])([H:11])[C@@:4]1([H:12])[O:5][C:6]2([H:13])[H:14])([H:7])([H:8])[H:9]>>[C:1]([C:2][C:6]([O:5][C:4](=[C:3]([H:10])[H:11])[H:12])([H:13])[H:14])([H:7])([H:8])[H:9]"
C        1.78381691      -0.26994701      -0.42544399
C        0.46505775      -0.04892729       0.20641373
C       -1.19715838      -1.23072960       0.35741099
C       -1.64542431       0.00740807      -0.07808161
O       -1.40974413       1.17504103       0.61278823
C       -0.03643812       1.33569201       0.28417021
H        1.69490820      -1.21227369      -0.97872605
H        2.56906669      -0.43078116       0.31706381
H        2.10789595       0.49923067      -1.13536059
H       -1.53019087      -2.08997272      -0.21314715
H       -0.79604609      -1.54044825       1.30855111
H       -2.54827633       0.08186898      -0.67852239
H        0.46275668       1.87081624       1.10108180
H        0.07977606       1.85302272      -0.67819810
14
Frame=16 idx=000268 GeodesicLength=0.7962586520622071 rxn_smarts="[C:1]([C@:2]12[C:3]([H:10])([H:11])[C@@:4]1([H:12])[O:5][C:6]2([H:13])[H:14])([H:7])([H:8])[H:9]>>[C:1]([C:2][C:6]([O:5][C:4](=[C:3]([H:10])[H:11])[H:12])([H:13])[H:14])([H:7])([H:8])[H:9]"
C        1.78631667      -0.27110776      -0.41231004
C        0.45431947      -0.04189594       0.18858149
C       -1.18452476      -1.22736089       0.35183519
C       -1.64665850       0.01074873      -0.08145071
O       -1.41245407       1.18092738       0.60659449
C       -0.04104842       1.34073155       0.27079481
H        1.68560012      -1.19590414      -0.99346438
H        2.55819083      -0.47088066       0.33369625
H        2.13532799       0.50714647      -1.10003006
H       -1.53014371      -2.08805764      -0.20910577
H       -0.76661804      -1.54439474       1.29332717
H       -2.57566160       0.07333419      -0.64221911
H        0.46335720       1.87229511       1.08709088
H        0.07399681       1.85441834      -0.69334021
