11
Frame=0 idx=001614 GeodesicLength=0.0 rxn_smarts="[N:1]([C:2](=[O:3])[C:4]([C:5](=[O:6])[H:11])([H:9])[H:10])([H:7])[H:8]>>[N:1]([C:2](=[O:3])/[C:4](=[C:5](/[O:6][H:10])[H:11])[H:9])([H:7])[H:8]"
N       -1.96711821      -0.36120421       0.12096337
C       -0.85832272       0.35285659      -0.22430840
O       -0.93405603       1.43779923      -0.77481170
C        0.44166364      -0.26105447       0.10536907
C        1.63545599       0.35610843      -0.36721875
O        2.56189228       0.18084997       0.47273266
H       -1.89981841      -1.15163919       0.73417531
H       -2.85557595       0.09936553       0.03234984
H        0.51644483      -1.34885660       0.06888109
H        1.54793067      -0.23265898       1.10956072
H        1.81150388       0.92843367      -1.27769317
11
Frame=1 idx=001614 GeodesicLength=0.040011958700946176 rxn_smarts="[N:1]([C:2](=[O:3])[C:4]([C:5](=[O:6])[H:11])([H:9])[H:10])([H:7])[H:8]>>[N:1]([C:2](=[O:3])/[C:4](=[C:5](/[O:6][H:10])[H:11])[H:9])([H:7])[H:8]"
N       -1.96458986      -0.36032840       0.11447452
C       -0.85394227       0.35803915      -0.21420263
O       -0.92676298       1.45154286      -0.74721176
C        0.44433773      -0.26194650       0.11649683
C        1.63692853       0.33430654      -0.38556928
O        2.57152569       0.17746031       0.45028928
H       -1.90405885      -1.15573235       0.72177191
H       -2.85530615       0.09027206       0.00155425
H        0.50778721      -1.35084865       0.10382975
H        1.55677845      -0.22089602       1.11866286
H        1.78730250       0.93813099      -1.28009573
11
Frame=2 idx=001614 GeodesicLength=0.08004301814990114 rxn_smarts="[N:1]([C:2](=[O:3])[C:4]([C:5](=[O:6])[H:11])([H:9])[H:10])([H:7])[H:8]>>[N:1]([C:2](=[O:3])/[C:4](=[C:5](/[O:6][H:10])[H:11])[H:9])([H:7])[H:8]"
N       -1.96196834      -0.35928249       0.10818521
C       -0.84976967       0.36406891      -0.20244466
O       -0.91995456       1.46484952      -0.71990417
C        0.44701358      -0.26213474       0.12809877
C        1.63738720       0.31347734      -0.40325271
O        2.58096821       0.17306050       0.42685031
H       -1.90800602      -1.16035084       0.70844686
H       -2.85423565       0.08089520      -0.03005736
H        0.49941915      -1.35148658       0.13849346
H        1.56619606      -0.20887775       1.12742656
H        1.76295004       0.94578091      -1.28184227
11
Frame=3 idx=001614 GeodesicLength=0.12008399869133846 rxn_smarts="[N:1]([C:2](=[O:3])[C:4]([C:5](=[O:6])[H:11])([H:9])[H:10])([H:7])[H:8]>>[N:1]([C:2](=[O:3])/[C:4](=[C:5](/[O:6][H:10])[H:11])[H:9])([H:7])[H:8]"
N       -1.95926180      -0.35800237       0.10225591
C       -0.84584606       0.37086480      -0.18909046
O       -0.91367047       1.47756633      -0.69334535
C        0.44966601      -0.26167023       0.14011750
C        1.63680337       0.29374719      -0.42015136
O        2.59008178       0.16770137       0.40267689
H       -1.91156902      -1.16549550       0.69421453
H       -2.85226070       0.07139838      -0.06214904
H        0.49136495      -1.35088470       0.17262098
H        1.57608871      -0.19684318       1.13590277
H        1.73860323       0.95161793      -1.28305236
11
Frame=4 idx=001614 GeodesicLength=0.1601665061864255 rxn_smarts="[N:1]([C:2](=[O:3])[C:4]([C:5](=[O:6])[H:11])([H:9])[H:10])([H:7])[H:8]>>[N:1]([C:2](=[O:3])/[C:4](=[C:5](/[O:6][H:10])[H:11])[H:9])([H:7])[H:8]"
N       -1.95649310      -0.35641828       0.09695240
C       -0.84220010       0.37821992      -0.17446307
O       -0.90792381       1.48960245      -0.66788833
C        0.45228236      -0.26070430       0.15234998
C        1.63523494       0.27507061      -0.43629063
O        2.59875471       0.16141012       0.37801738
H       -1.91467287      -1.17087840       0.67958644
H       -2.84931898       0.06177671      -0.09469639
H        0.48361627      -1.34928246       0.20591863
H        1.58631763      -0.18504017       1.14409851
H        1.71440295       0.95624381      -1.28358492
11
Frame=5 idx=001614 GeodesicLength=0.20015009944444612 rxn_smarts="[N:1]([C:2](=[O:3])[C:4]([C:5](=[O:6])[H:11])([H:9])[H:10])([H:7])[H:8]>>[N:1]([C:2](=[O:3])/[C:4](=[C:5](/[O:6][H:10])[H:11])[H:9])([H:7])[H:8]"
N       -1.95363538      -0.35446079       0.09222254
C       -0.83880272       0.38595702      -0.15889698
O       -0.90260094       1.50090640      -0.64366356
C        0.45482349      -0.25927972       0.16475389
C        1.63269505       0.25736210      -0.45162738
O        2.60670051       0.15467015       0.35325537
H       -1.91712385      -1.17698350       0.66361962
H       -2.84529154       0.05261066      -0.12647892
H        0.47621117      -1.34673946       0.23847384
H        1.59659779      -0.17337394       1.15214878
H        1.69042644       0.95933109      -1.28380719
11
Frame=6 idx=001614 GeodesicLength=0.24015373746267038 rxn_smarts="[N:1]([C:2](=[O:3])[C:4]([C:5](=[O:6])[H:11])([H:9])[H:10])([H:7])[H:8]>>[N:1]([C:2](=[O:3])/[C:4](=[C:5](/[O:6][H:10])[H:11])[H:9])([H:7])[H:8]"
N       -1.95072248      -0.35216754       0.08830068
C       -0.83567488       0.39398487      -0.14245356
O       -0.89772411       1.51172761      -0.62017926
C        0.45730136      -0.25751741       0.17723528
C        1.62922798       0.24046193      -0.46639818
O        2.61403670       0.14710416       0.32812537
H       -1.91904359      -1.18289397       0.64780573
H       -2.84011751       0.04309154      -0.15915049
H        0.46904759      -1.34346936       0.27020366
H        1.60706047      -0.16204973       1.15992339
H        1.66660846       0.96172792      -1.28341261
11
Frame=7 idx=001614 GeodesicLength=0.28016107977205823 rxn_smarts="[N:1]([C:2](=[O:3])[C:4]([C:5](=[O:6])[H:11])([H:9])[H:10])([H:7])[H:8]>>[N:1]([C:2](=[O:3])/[C:4](=[C:5](/[O:6][H:10])[H:11])[H:9])([H:7])[H:8]"
N       -1.94782368      -0.34943306       0.08528673
C       -0.83280836       0.40215754      -0.12552497
O       -0.89322752       1.52207142      -0.59758734
C        0.45969912      -0.25548889       0.18969402
C        1.62491319       0.22428935      -0.48059001
O        2.62063596       0.13907803       0.30295683
H       -1.92032436      -1.18891756       0.63162668
H       -2.83375624       0.03356226      -0.19188944
H        0.46213709      -1.33959634       0.30109804
H        1.61751800      -0.15103947       1.16753583
H        1.64303680       0.96331673      -1.28260639
11
Frame=8 idx=001614 GeodesicLength=0.3201288925933206 rxn_smarts="[N:1]([C:2](=[O:3])[C:4]([C:5](=[O:6])[H:11])([H:9])[H:10])([H:7])[H:8]>>[N:1]([C:2](=[O:3])/[C:4](=[C:5](/[O:6][H:10])[H:11])[H:9])([H:7])[H:8]"
N       -1.94500362      -0.34624129       0.08337530
C       -0.83018441       0.41015118      -0.10892114
O       -0.88910269       1.53171387      -0.57649453
C        0.46200156      -0.25336672       0.20173837
C        1.61995895       0.20891465      -0.49412558
O        2.62636906       0.13084094       0.27826896
H       -1.92084761      -1.19485348       0.61544728
H       -2.82631089       0.02425825      -0.22375799
H        0.45550980      -1.33535967       0.33056924
H        1.62755575      -0.14055712       1.17507018
H        1.62005410       0.96449940      -1.28117009
11
Frame=9 idx=001614 GeodesicLength=0.36002859152289385 rxn_smarts="[N:1]([C:2](=[O:3])[C:4]([C:5](=[O:6])[H:11])([H:9])[H:10])([H:7])[H:8]>>[N:1]([C:2](=[O:3])/[C:4](=[C:5](/[O:6][H:10])[H:11])[H:9])([H:7])[H:8]"
N       -1.94229931      -0.34270920       0.08262501
C       -0.82776715       0.41762955      -0.09352774
O       -0.88537885       1.54043015      -0.55753677
C        0.46420659      -0.25136942       0.21285903
C        1.61464321       0.19451422      -0.50694232
O        2.63118827       0.12253844       0.25459493
H       -1.92063987      -1.20007453       0.60045110
H       -2.81796721       0.01514551      -0.25414357
H        0.44918258      -1.33108585       0.35772009
H        1.63674215      -0.13098388       1.18259494
H        1.59808960       0.96596501      -1.27869470
11
Frame=10 idx=001614 GeodesicLength=0.39980346405413575 rxn_smarts="[N:1]([C:2](=[O:3])[C:4]([C:5](=[O:6])[H:11])([H:9])[H:10])([H:7])[H:8]>>[N:1]([C:2](=[O:3])/[C:4](=[C:5](/[O:6][H:10])[H:11])[H:9])([H:7])[H:8]"
N       -1.93969148      -0.33932746       0.08221800
C       -0.82548990       0.42409083      -0.08065455
O       -0.88202576       1.54776913      -0.54189206
C        0.46634781      -0.24973057       0.22251361
C        1.60947896       0.18126133      -0.51883072
O        2.63508243       0.11482871       0.23293252
H       -1.91961398      -1.20474137       0.58649977
H       -2.80963449       0.00744444      -0.27996723
H        0.44331924      -1.32710687       0.38182223
H        1.64440513      -0.12238334       1.19042595
H        1.57782204       0.96789517      -1.27506751
11
Frame=11 idx=001614 GeodesicLength=0.43948484863551196 rxn_smarts="[N:1]([C:2](=[O:3])[C:4]([C:5](=[O:6])[H:11])([H:9])[H:10])([H:7])[H:8]>>[N:1]([C:2](=[O:3])/[C:4](=[C:5](/[O:6][H:10])[H:11])[H:9])([H:7])[H:8]"
N       -1.93709612      -0.33629467       0.08188199
C       -0.82330356       0.42966087      -0.06997168
O       -0.87900910       1.55396521      -0.52898227
C        0.46845974      -0.24844872       0.23080406
C        1.60452928       0.16909870      -0.52998406
O        2.63826782       0.10756220       0.21296853
H       -1.91809679      -1.20844074       0.57434771
H       -2.80146273       0.00066280      -0.30229899
H        0.43783854      -1.32348628       0.40301587
H        1.65073593      -0.11477405       1.19853022
H        1.55913701       0.97049467      -1.27031139
11
Frame=12 idx=001614 GeodesicLength=0.47909873337624015 rxn_smarts="[N:1]([C:2](=[O:3])[C:4]([C:5](=[O:6])[H:11])([H:9])[H:10])([H:7])[H:8]>>[N:1]([C:2](=[O:3])/[C:4](=[C:5](/[O:6][H:10])[H:11])[H:9])([H:7])[H:8]"
N       -1.93447180      -0.33371873       0.08121166
C       -0.82117356       0.43446640      -0.06121968
O       -0.87625624       1.55921951      -0.51840630
C        0.47058245      -0.24748141       0.23792701
C        1.59986399       0.15786291      -0.54050719
O        2.64091971       0.10086726       0.19456850
H       -1.91618026      -1.21151039       0.56351973
H       -2.79378004      -0.00502699      -0.32109525
H        0.43273007      -1.32020925       0.42176546
H        1.65589371      -0.10792724       1.20699501
H        1.54187198       0.97345792      -1.26475896
11
Frame=13 idx=001614 GeodesicLength=0.5186615838343672 rxn_smarts="[N:1]([C:2](=[O:3])[C:4]([C:5](=[O:6])[H:11])([H:9])[H:10])([H:7])[H:8]>>[N:1]([C:2](=[O:3])/[C:4](=[C:5](/[O:6][H:10])[H:11])[H:9])([H:7])[H:8]"
N       -1.93179286      -0.33153289       0.08025488
C       -0.81907524       0.43870523      -0.05388910
O       -0.87370280       1.56376919      -0.50955543
C        0.47272869      -0.24675496       0.24413786
C        1.59541633       0.14739765      -0.55056043
O        2.64316047       0.09465362       0.17735454
H       -1.91398971      -1.21404617       0.55383413
H       -2.78653394      -0.00991715      -0.33727430
H        0.42791433      -1.31720087       0.43854490
H        1.66011975      -0.10169240       1.21578990
H        1.52575496       0.97661874      -1.25863696
11
Frame=14 idx=001614 GeodesicLength=0.5581894663831204 rxn_smarts="[N:1]([C:2](=[O:3])[C:4]([C:5](=[O:6])[H:11])([H:9])[H:10])([H:7])[H:8]>>[N:1]([C:2](=[O:3])/[C:4](=[C:5](/[O:6][H:10])[H:11])[H:9])([H:7])[H:8]"
N       -1.92905017      -0.32966961       0.07903490
C       -0.81699427       0.44251681      -0.04764620
O       -0.87130140       1.56777978      -0.50204440
C        0.47490922      -0.24620359       0.24964078
C        1.59113697       0.13756168      -0.56025124
O        2.64507940       0.08884676       0.16106567
H       -1.91157091      -1.21625142       0.54493505
H       -2.77972269      -0.01411378      -0.35129479
H        0.42334521      -1.31438838       0.45377588
H        1.66358589      -0.09589678       1.22491564
H        1.51058274       0.97981853      -1.25213131
11
Frame=15 idx=001614 GeodesicLength=0.5976932232314464 rxn_smarts="[N:1]([C:2](=[O:3])[C:4]([C:5](=[O:6])[H:11])([H:9])[H:10])([H:7])[H:8]>>[N:1]([C:2](=[O:3])/[C:4](=[C:5](/[O:6][H:10])[H:11])[H:9])([H:7])[H:8]"
N       -1.92624938      -0.32803467       0.07765141
C       -0.81492300       0.44603225      -0.04216563
O       -0.86901297       1.57140202      -0.49550646
C        0.47712759      -0.24577422       0.25460888
C        1.58695924       0.12823787      -0.56967203
O        2.64673330       0.08338685       0.14546005
H       -1.90896370      -1.21822971       0.53660152
H       -2.77324602      -0.01779929      -0.36372154
H        0.41897282      -1.31171072       0.46778772
H        1.66644619      -0.09044079       1.23435326
H        1.49615592       0.98293041      -1.24539717
11
Frame=16 idx=001614 GeodesicLength=0.6371843446818415 rxn_smarts="[N:1]([C:2](=[O:3])[C:4]([C:5](=[O:6])[H:11])([H:9])[H:10])([H:7])[H:8]>>[N:1]([C:2](=[O:3])/[C:4](=[C:5](/[O:6][H:10])[H:11])[H:9])([H:7])[H:8]"
N       -1.92340407      -0.32653207       0.07621125
C       -0.81286173       0.44937546      -0.03713247
O       -0.86680957       1.57478508      -0.48956942
C        0.47938233      -0.24541343       0.25920590
C        1.58279199       0.11931804      -0.57891286
O        2.64815821       0.07816736       0.13027984
H       -1.90620379      -1.22003779       0.52867806
H       -2.76693489      -0.02119795      -0.37517114
H        0.41474695      -1.30909968       0.48089430
H        1.66885634      -0.08522873       1.24406763
H        1.48227823       0.98586372      -1.23855109
