14
Frame=0 idx=000820 GeodesicLength=0.0 rxn_smarts="[C:1]1([H:7])([H:8])[C@@:2]2([H:9])[C:3]([H:10])([H:11])[C:4]([H:12])=[C:5]([H:13])[C@@:6]12[H:14]>>[C:1]1([H:7])([H:8])[C@@:2]2([H:9])[C:3]([H:10])=[C:4]([H:12])[C:5]([H:13])=[C:6]12.[H:11][H:14]"
C       -1.73162378       0.24580634       0.18923908
C       -0.40073598       0.80034371      -0.45293367
C        1.02987011       0.78384953      -0.14066123
C        1.29700084      -0.23340386       0.82830597
C        0.24350130      -1.08619904       0.80305255
C       -0.64906772      -0.64549320      -0.23934391
H       -1.98921627       0.28489611       1.24295500
H       -2.54320744       0.50834312      -0.47873278
H       -0.64212627       1.17966050      -1.43738893
H        1.70378348       1.60556655      -0.35206018
H        1.11962329      -0.25828452      -1.37658780
H        2.21310210      -0.32838021       1.39512998
H        0.10078912      -1.98189757       1.39133922
H        0.24830717      -0.87480740      -1.37231334
14
Frame=1 idx=000820 GeodesicLength=0.07797259865176268 rxn_smarts="[C:1]1([H:7])([H:8])[C@@:2]2([H:9])[C:3]([H:10])([H:11])[C:4]([H:12])=[C:5]([H:13])[C@@:6]12[H:14]>>[C:1]1([H:7])([H:8])[C@@:2]2([H:9])[C:3]([H:10])=[C:4]([H:12])[C:5]([H:13])=[C:6]12.[H:11][H:14]"
C       -1.72883653       0.24599479       0.18955657
C       -0.39840550       0.79854094      -0.45168709
C        1.03526517       0.77943285      -0.14628375
C        1.29462371      -0.23025450       0.83417057
C        0.24241018      -1.08687760       0.80685266
C       -0.64939020      -0.64931599      -0.23821275
H       -1.97852204       0.30178855       1.24444701
H       -2.54290645       0.49962129      -0.47889110
H       -0.64175401       1.18871556      -1.43170985
H        1.69630461       1.61786969      -0.33113441
H        1.12401226      -0.26637969      -1.40515774
H        2.20721462      -0.32282824       1.40708828
H        0.10469331      -1.98512999       1.39242715
H        0.23529088      -0.89117767      -1.39146555
14
Frame=2 idx=000820 GeodesicLength=0.1559117720698816 rxn_smarts="[C:1]1([H:7])([H:8])[C@@:2]2([H:9])[C:3]([H:10])([H:11])[C:4]([H:12])=[C:5]([H:13])[C@@:6]12[H:14]>>[C:1]1([H:7])([H:8])[C@@:2]2([H:9])[C:3]([H:10])=[C:4]([H:12])[C:5]([H:13])=[C:6]12.[H:11][H:14]"
C       -1.72593197       0.24620276       0.18981334
C       -0.39589421       0.79676309      -0.45039770
C        1.04085183       0.77506779      -0.15175702
C        1.29212646      -0.22673422       0.84044882
C        0.24141321      -1.08742960       0.81083683
C       -0.64953931      -0.65310791      -0.23699266
H       -1.96792604       0.31845914       1.24552350
H       -2.54240398       0.49098673      -0.47907181
H       -0.64109110       1.19784108      -1.42586651
H        1.68827994       1.62955510      -0.30994439
H        1.12826107      -0.27431485      -1.43439000
H        2.20144128      -0.31724250       1.41895090
H        0.10881963      -1.98827614       1.39360087
H        0.22159319      -0.90777048      -1.41075417
14
Frame=3 idx=000820 GeodesicLength=0.23382990656122338 rxn_smarts="[C:1]1([H:7])([H:8])[C@@:2]2([H:9])[C:3]([H:10])([H:11])[C:4]([H:12])=[C:5]([H:13])[C@@:6]12[H:14]>>[C:1]1([H:7])([H:8])[C@@:2]2([H:9])[C:3]([H:10])=[C:4]([H:12])[C:5]([H:13])=[C:6]12.[H:11][H:14]"
C       -1.72292354       0.24640620       0.19000101
C       -0.39321303       0.79502052      -0.44903879
C        1.04660804       0.77078851      -0.15699775
C        1.28948470      -0.22282280       0.84718791
C        0.24050732      -1.08785466       0.81501601
C       -0.64950320      -0.65686714      -0.23568379
H       -1.95746610       0.33486412       1.24618826
H       -2.54170073       0.48241631      -0.47929532
H       -0.64013365       1.20706139      -1.41982111
H        1.67982769       1.64049882      -0.28871025
H        1.13237411      -0.28199330      -1.46428833
H        2.19576472      -0.31161377       1.43077341
H        0.11318001      -1.99135198       1.39484301
H        0.20719364      -0.92455222      -1.43017427
14
Frame=4 idx=000820 GeodesicLength=0.31174771375194393 rxn_smarts="[C:1]1([H:7])([H:8])[C@@:2]2([H:9])[C:3]([H:10])([H:11])[C:4]([H:12])=[C:5]([H:13])[C@@:6]12[H:14]>>[C:1]1([H:7])([H:8])[C@@:2]2([H:9])[C:3]([H:10])=[C:4]([H:12])[C:5]([H:13])=[C:6]12.[H:11][H:14]"
C       -1.71982302       0.24658242       0.19011299
C       -0.39037229       0.79332271      -0.44758333
C        1.05251197       0.76662321      -0.16192511
C        1.28667573      -0.21850613       0.85443074
C        0.23969007      -1.08815576       0.81939803
C       -0.64927089      -0.66059287      -0.23428677
H       -1.94717726       0.35095883       1.24645150
H       -2.54079887       0.47388662      -0.47958366
H       -0.63887817       1.21639685      -1.41353957
H        1.67108188       1.65060190      -0.26764903
H        1.13635769      -0.28931687      -1.49486301
H        2.19015779      -0.30592724       1.44262175
H        0.11778536      -1.99437376       1.39613645
H        0.19206000      -0.94149990      -1.44972099
14
Frame=5 idx=000820 GeodesicLength=0.3896706701995506 rxn_smarts="[C:1]1([H:7])([H:8])[C@@:2]2([H:9])[C:3]([H:10])([H:11])[C:4]([H:12])=[C:5]([H:13])[C@@:6]12[H:14]>>[C:1]1([H:7])([H:8])[C@@:2]2([H:9])[C:3]([H:10])=[C:4]([H:12])[C:5]([H:13])=[C:6]12.[H:11][H:14]"
C       -1.71664220       0.24670855       0.19014116
C       -0.38738214       0.79167468      -0.44600804
C        1.05854310       0.76259164      -0.16646582
C        1.28367740      -0.21377535       0.86221798
C        0.23895630      -1.08833651       0.82399481
C       -0.64883245      -0.66428809      -0.23280074
H       -1.93709572       0.36670371       1.24632082
H       -2.53969796       0.46537344      -0.47995939
H       -0.63732201       1.22586414      -1.40698772
H        1.66218287       1.65980428      -0.24695664
H        1.14020775      -0.29619543      -1.52613459
H        2.18459869      -0.30017569       1.45455565
H        0.12264310      -1.99735345       1.39747274
H        0.17616327      -0.95859593      -1.46939021
14
Frame=6 idx=000820 GeodesicLength=0.467611089900269 rxn_smarts="[C:1]1([H:7])([H:8])[C@@:2]2([H:9])[C:3]([H:10])([H:11])[C:4]([H:12])=[C:5]([H:13])[C@@:6]12[H:14]>>[C:1]1([H:7])([H:8])[C@@:2]2([H:9])[C:3]([H:10])=[C:4]([H:12])[C:5]([H:13])=[C:6]12.[H:11][H:14]"
C       -1.71338557       0.24676596       0.19008195
C       -0.38424605       0.79007533      -0.44429761
C        1.06468891       0.75869525      -0.17056511
C        1.28047392      -0.20863209       0.87057606
C        0.23830382      -1.08840503       0.82881412
C       -0.64817922      -0.66795954      -0.23122558
H       -1.92724294       0.38207090       1.24580895
H       -2.53839650       0.45685823      -0.48043701
H       -0.63546083       1.23546395      -1.40014765
H        1.65326282       1.66808643      -0.22678072
H        1.14392173      -0.30254266      -1.55813857
H        2.17904730      -0.29433618       1.46665007
H        0.12776145      -2.00030484       1.39884455
H        0.15945114      -0.97583569      -1.48918344
14
Frame=7 idx=000820 GeodesicLength=0.5455844781852611 rxn_smarts="[C:1]1([H:7])([H:8])[C@@:2]2([H:9])[C:3]([H:10])([H:11])[C:4]([H:12])=[C:5]([H:13])[C@@:6]12[H:14]>>[C:1]1([H:7])([H:8])[C@@:2]2([H:9])[C:3]([H:10])=[C:4]([H:12])[C:5]([H:13])=[C:6]12.[H:11][H:14]"
C       -1.71005633       0.24673586       0.18992599
C       -0.38096545       0.78851806      -0.44244411
C        1.07093871       0.75492916      -0.17417780
C        1.27705002      -0.20308026       0.87952718
C        0.23772879      -1.08836842       0.83386693
C       -0.64730209      -0.67161792      -0.22956185
H       -1.91763939       0.39704064       1.24492078
H       -2.53688613       0.44832437      -0.48103521
H       -0.63328793       1.24518912      -1.39300069
H        1.64444389       1.67547398      -0.20722620
H        1.14749661      -0.30827523      -1.59091676
H        2.17348131      -0.28840022       1.47896119
H        0.13314506      -2.00323540       1.40025613
H        0.14185293      -0.99323375      -1.50909558
14
Frame=8 idx=000820 GeodesicLength=0.6235922101854858 rxn_smarts="[C:1]1([H:7])([H:8])[C@@:2]2([H:9])[C:3]([H:10])([H:11])[C:4]([H:12])=[C:5]([H:13])[C@@:6]12[H:14]>>[C:1]1([H:7])([H:8])[C@@:2]2([H:9])[C:3]([H:10])=[C:4]([H:12])[C:5]([H:13])=[C:6]12.[H:11][H:14]"
C       -1.70665161       0.24660529       0.18966642
C       -0.37753526       0.78699306      -0.44044656
C        1.07729080       0.75127922      -0.17727243
C        1.27339696      -0.19712929       0.88908398
C        0.23722976      -1.08823503       0.83916287
C       -0.64619164      -0.67527506      -0.22780802
H       -1.90829339       0.41160280       1.24366418
H       -2.53516183       0.43975437      -0.48177119
H       -0.63079083       1.25503499      -1.38553302
H        1.63582083       1.68199837      -0.18835679
H        1.15091573      -0.31332838      -1.62453114
H        2.16786645      -0.28234649       1.49155504
H        0.13880261      -2.00614886       1.40171356
H        0.12330144      -1.01080499      -1.52912690
14
Frame=9 idx=000820 GeodesicLength=0.701638378065071 rxn_smarts="[C:1]1([H:7])([H:8])[C@@:2]2([H:9])[C:3]([H:10])([H:11])[C:4]([H:12])=[C:5]([H:13])[C@@:6]12[H:14]>>[C:1]1([H:7])([H:8])[C@@:2]2([H:9])[C:3]([H:10])=[C:4]([H:12])[C:5]([H:13])=[C:6]12.[H:11][H:14]"
C       -1.70315709       0.24636469       0.18930168
C       -0.37394280       0.78548537      -0.43830702
C        1.08375166       0.74771617      -0.17983370
C        1.26951961      -0.19080561       0.89923263
C        0.23681329      -1.08802025       0.84470108
C       -0.64483883      -0.67894561      -0.22596574
H       -1.89919373       0.42575260       1.24205538
H       -2.53320725       0.43114294      -0.48265089
H       -0.62795741       1.26498189      -1.37774769
H        1.62747851       1.68770802      -0.17019968
H        1.15416018      -0.31763285      -1.65905411
H        2.16212928      -0.27611488       1.50453645
H        0.14474465      -2.00905359       1.40321673
H        0.10369991      -1.02857889      -1.54928510
14
Frame=10 idx=000820 GeodesicLength=0.7797274304164497 rxn_smarts="[C:1]1([H:7])([H:8])[C@@:2]2([H:9])[C:3]([H:10])([H:11])[C:4]([H:12])=[C:5]([H:13])[C@@:6]12[H:14]>>[C:1]1([H:7])([H:8])[C@@:2]2([H:9])[C:3]([H:10])=[C:4]([H:12])[C:5]([H:13])=[C:6]12.[H:11][H:14]"
C       -1.69956466       0.24600295       0.18881746
C       -0.37017521       0.78398198      -0.43603508
C        1.09033345       0.74422302      -0.18184300
C        1.26540800      -0.18411424       0.90999040
C        0.23647730      -1.08772728       0.85049723
C       -0.64322731      -0.68264282      -0.22403645
H       -1.89033952       0.43949381       1.24009082
H       -2.53101332       0.42247193      -0.48369796
H       -0.62476568       1.27501236      -1.36965175
H        1.61946833       1.69266362      -0.15273992
H        1.15720396      -0.32111945      -1.69456494
H        2.15626209      -0.26970548       1.51794035
H        0.15097969      -2.01194505       1.40478213
H        0.08295287      -1.04659536      -1.56954928
14
Frame=11 idx=000820 GeodesicLength=0.8578518874475001 rxn_smarts="[C:1]1([H:7])([H:8])[C@@:2]2([H:9])[C:3]([H:10])([H:11])[C:4]([H:12])=[C:5]([H:13])[C@@:6]12[H:14]>>[C:1]1([H:7])([H:8])[C@@:2]2([H:9])[C:3]([H:10])=[C:4]([H:12])[C:5]([H:13])=[C:6]12.[H:11][H:14]"
C       -1.69585913       0.24551195       0.18820406
C       -0.36621553       0.78246548      -0.43364149
C        1.09705185       0.74077478      -0.18329214
C        1.26106410      -0.17707633       0.92135107
C        0.23622399      -1.08736577       0.85655861
C       -0.64134390      -0.68638192      -0.22202075
H       -1.88171700       0.45283415       1.23777443
H       -2.52856193       0.41372966      -0.48492758
H       -0.62119685       1.28510506      -1.36125814
H        1.61183294       1.69692546      -0.13595013
H        1.16001949      -0.32372027      -1.73114593
H        2.15022389      -0.26308779       1.53183230
H        0.15751647      -2.01482131       1.40642484
H        0.06096161      -1.06489315      -1.58990915
14
Frame=12 idx=000820 GeodesicLength=0.9360171836691138 rxn_smarts="[C:1]1([H:7])([H:8])[C@@:2]2([H:9])[C:3]([H:10])([H:11])[C:4]([H:12])=[C:5]([H:13])[C@@:6]12[H:14]>>[C:1]1([H:7])([H:8])[C@@:2]2([H:9])[C:3]([H:10])=[C:4]([H:12])[C:5]([H:13])=[C:6]12.[H:11][H:14]"
C       -1.69201941       0.24488250       0.18744872
C       -0.36204129       0.78091561      -0.43114271
C        1.10392721       0.73734472      -0.18417336
C        1.25649209      -0.16971318       0.93330488
C        0.23606029      -1.08694554       0.86289010
C       -0.63916966      -0.69018061      -0.21992399
H       -1.87330561       0.46578080       1.23510424
H       -2.52583063       0.40490577      -0.48635647
H       -0.61722646       1.29523369      -1.35257970
H        1.60460700       1.70055123      -0.11978417
H        1.16258048      -0.32535137      -1.76889277
H        2.14396774      -0.25622187       1.54628616
H        0.16436421      -2.01767792       1.40816202
H        0.03759403      -1.08352383      -1.61034294
14
Frame=13 idx=000820 GeodesicLength=1.014205313391349 rxn_smarts="[C:1]1([H:7])([H:8])[C@@:2]2([H:9])[C:3]([H:10])([H:11])[C:4]([H:12])=[C:5]([H:13])[C@@:6]12[H:14]>>[C:1]1([H:7])([H:8])[C@@:2]2([H:9])[C:3]([H:10])=[C:4]([H:12])[C:5]([H:13])=[C:6]12.[H:11][H:14]"
C       -1.68802134       0.24410601       0.18653892
C       -0.35762760       0.77931326      -0.42855243
C        1.11098299       0.73390721      -0.18448038
C        1.25170083      -0.16204973       0.94583699
C        0.23599237      -1.08647581       0.86949798
C       -0.63668422      -0.69405566      -0.21775194
H       -1.86508403       0.47834094       1.23207729
H       -2.52280040       0.39598935      -0.48800432
H       -0.61282859       1.30537126      -1.34363943
H        1.59781683       1.70359493      -0.10418703
H        1.16484813      -0.32592792      -1.80789948
H        2.13744582      -0.24906893       1.56137419
H        0.17153175      -2.02050818       1.41001232
H        0.01272746      -1.10253673      -1.63082269
14
Frame=14 idx=000820 GeodesicLength=1.0923989999975654 rxn_smarts="[C:1]1([H:7])([H:8])[C@@:2]2([H:9])[C:3]([H:10])([H:11])[C:4]([H:12])=[C:5]([H:13])[C@@:6]12[H:14]>>[C:1]1([H:7])([H:8])[C@@:2]2([H:9])[C:3]([H:10])=[C:4]([H:12])[C:5]([H:13])=[C:6]12.[H:11][H:14]"
C       -1.68384296       0.24317116       0.18545468
C       -0.35294844       0.77763615      -0.42589106
C        1.11824212       0.73044205      -0.18420180
C        1.24669380      -0.15410505       0.95894031
C        0.23602507      -1.08596316       0.87639212
C       -0.63386439      -0.69802583      -0.21550951
H       -1.85703269       0.49052535       1.22867973
H       -2.51944429       0.38696431      -0.48989561
H       -0.60797201       1.31549152      -1.33445407
H        1.59147803       1.70611116      -0.08909314
H        1.16678126      -0.32535732      -1.84826372
H        2.13062708      -0.24160522       1.57714697
H        0.17902429      -2.02330136       1.41200503
H       -0.01376686      -1.12198376      -1.65130993
14
Frame=15 idx=000820 GeodesicLength=1.170575334526007 rxn_smarts="[C:1]1([H:7])([H:8])[C@@:2]2([H:9])[C:3]([H:10])([H:11])[C:4]([H:12])=[C:5]([H:13])[C@@:6]12[H:14]>>[C:1]1([H:7])([H:8])[C@@:2]2([H:9])[C:3]([H:10])=[C:4]([H:12])[C:5]([H:13])=[C:6]12.[H:11][H:14]"
C       -1.67945720       0.24206678       0.18417640
C       -0.34797451       0.77586157      -0.42317951
C        1.12573073       0.72692938      -0.18332714
C        1.24147932      -0.14590293       0.97260042
C        0.23616506      -1.08541585       0.88357901
C       -0.63068444      -0.70211029      -0.21320501
H       -1.84912710       0.50234266       1.22489758
H       -2.51573780       0.37781525      -0.49205583
H       -0.60262482       1.32556530      -1.32504796
H        1.58560243       1.70814931      -0.07443138
H        1.16833734      -0.32353319      -1.89008452
H        2.12347171      -0.23380193       1.59366192
H        0.18684404      -2.02604377       1.41417129
H       -0.04202477      -1.14192230      -1.67175527
14
Frame=16 idx=000820 GeodesicLength=1.2487118882393542 rxn_smarts="[C:1]1([H:7])([H:8])[C@@:2]2([H:9])[C:3]([H:10])([H:11])[C:4]([H:12])=[C:5]([H:13])[C@@:6]12[H:14]>>[C:1]1([H:7])([H:8])[C@@:2]2([H:9])[C:3]([H:10])=[C:4]([H:12])[C:5]([H:13])=[C:6]12.[H:11][H:14]"
C       -1.67483502       0.24077964       0.18267975
C       -0.34267359       0.77396538      -0.42044140
C        1.13347618       0.72335330      -0.18184176
C        1.23606497      -0.13746492       0.98680550
C        0.23641882      -1.08484070       0.89106683
C       -0.62711452      -0.70632942      -0.21084853
H       -1.84134259       0.51380085       1.22070955
H       -2.51165154       0.36852375      -0.49451527
H       -0.59675024       1.33556329      -1.31544731
H        1.58019551       1.70975444      -0.06012594
H        1.16947212      -0.32033579      -1.93346331
H        2.11594434      -0.22563501       1.61096949
H        0.19499176      -2.02872124       1.41654682
H       -0.07219620      -1.16241358      -1.69209443
