12
Frame=0 idx=010078 GeodesicLength=0.0 rxn_smarts="[N:1]([C:2](=[O:3])[C:4]([O:5][C:6](=[O:7])[H:12])([H:10])[H:11])([H:8])[H:9]>>[N:1]1([H:9])[C@@:2]2([O:3]1)[C:4]([H:10])([H:11])[O:5][C:6]([H:8])([H:12])[O:7]2"
N       -0.46748413      -1.27467822       0.63593537
C       -0.78254834       0.09995946       0.39550988
O       -1.89867344       0.06688406       0.99946259
C        0.39763049       1.00515337       0.72671394
O        1.32736737       0.67082669      -0.31908144
C        0.60647299      -0.16100184      -1.13397208
O       -0.68433773       0.18950106      -1.13340762
H        0.57804850      -1.25366579      -0.46677935
H       -1.10672765      -1.78971645       0.02110983
H        0.12447670       2.05973866       0.67421959
H        0.83218819       0.75675299       1.69279138
H        1.07358709      -0.36975397      -2.09250212
12
Frame=1 idx=010078 GeodesicLength=0.1003144460419115 rxn_smarts="[N:1]([C:2](=[O:3])[C:4]([O:5][C:6](=[O:7])[H:12])([H:10])[H:11])([H:8])[H:9]>>[N:1]1([H:9])[C@@:2]2([O:3]1)[C:4]([H:10])([H:11])[O:5][C:6]([H:8])([H:12])[O:7]2"
N       -0.48232582      -1.27809552       0.63909628
C       -0.78468338       0.09685155       0.40294187
O       -1.89316604       0.06166612       1.02161434
C        0.39654447       1.00372604       0.72468809
O        1.32941915       0.67354646      -0.31871297
C        0.61857610      -0.15581948      -1.14474644
O       -0.67240385       0.18822431      -1.14944682
H        0.57019145      -1.26116298      -0.46969165
H       -1.13020392      -1.79740219       0.03789889
H        0.11723464       2.05630906       0.66687698
H        0.83484030       0.76256040       1.69087029
H        1.09597690      -0.35040376      -2.10138886
12
Frame=2 idx=010078 GeodesicLength=0.2005883886397052 rxn_smarts="[N:1]([C:2](=[O:3])[C:4]([O:5][C:6](=[O:7])[H:12])([H:10])[H:11])([H:8])[H:9]>>[N:1]1([H:9])[C@@:2]2([O:3]1)[C:4]([H:10])([H:11])[O:5][C:6]([H:8])([H:12])[O:7]2"
N       -0.49742734      -1.28164604       0.64208828
C       -0.78691971       0.09357533       0.41054619
O       -1.88726552       0.05644261       1.04442678
C        0.39532767       1.00216746       0.72251479
O        1.33147256       0.67629989      -0.31837196
C        0.63111246      -0.15053707      -1.15568129
O       -0.66007387       0.18668941      -1.16588665
H        0.56212447      -1.26869299      -0.47285043
H       -1.15438129      -1.80501812       0.05530024
H        0.10980020       2.05266547       0.65931395
H        0.83737650       0.76848064       1.68879391
H        1.11885387      -0.33042659      -2.11019381
12
Frame=3 idx=010078 GeodesicLength=0.3008328556321433 rxn_smarts="[N:1]([C:2](=[O:3])[C:4]([O:5][C:6](=[O:7])[H:12])([H:10])[H:11])([H:8])[H:9]>>[N:1]1([H:9])[C@@:2]2([O:3]1)[C:4]([H:10])([H:11])[O:5][C:6]([H:8])([H:12])[O:7]2"
N       -0.51281412      -1.28533364       0.64489088
C       -0.78926310       0.09012776       0.41833436
O       -1.88094136       0.05119162       1.06792331
C        0.39397515       1.00046966       0.72018533
O        1.33352469       0.67908404      -0.31806165
C        0.64409877      -0.14515065      -1.16677979
O       -0.64732173       0.18490284      -1.18274588
H        0.55384428      -1.27625279      -0.47625739
H       -1.17928016      -1.81255084       0.07334413
H        0.10216428       2.04879565       0.65151781
H        0.83979103       0.77452034       1.68655171
H        1.14222226      -0.30980400      -2.11890281
12
Frame=4 idx=010078 GeodesicLength=0.4010583449225725 rxn_smarts="[N:1]([C:2](=[O:3])[C:4]([O:5][C:6](=[O:7])[H:12])([H:10])[H:11])([H:8])[H:9]>>[N:1]1([H:9])[C@@:2]2([O:3]1)[C:4]([H:10])([H:11])[O:5][C:6]([H:8])([H:12])[O:7]2"
N       -0.52851659      -1.28916173       0.64748175
C       -0.79172186       0.08650594       0.42631764
O       -1.87415178       0.04588664       1.09213555
C        0.39248033       0.99862378       0.71768923
O        1.33557342       0.68189343      -0.31778530
C        0.65755325      -0.13965794      -1.17804545
O       -0.63411912       0.18287101      -1.20004468
H        0.54534342      -1.28383990      -0.47991624
H       -1.20492209      -1.81998344       0.09206105
H        0.09431622       2.04468661       0.64347151
H        0.84207446       0.78068895       1.68413296
H        1.16609035      -0.28851337      -2.12749802
12
Frame=5 idx=010078 GeodesicLength=0.5012675218908338 rxn_smarts="[N:1]([C:2](=[O:3])[C:4]([O:5][C:6](=[O:7])[H:12])([H:10])[H:11])([H:8])[H:9]>>[N:1]1([H:9])[C@@:2]2([O:3]1)[C:4]([H:10])([H:11])[O:5][C:6]([H:8])([H:12])[O:7]2"
N       -0.54456323      -1.29313303       0.64983826
C       -0.79430067       0.08270683       0.43451048
O       -1.86686390       0.04050199       1.11708526
C        0.39083834       0.99662169       0.71501805
O        1.33761606       0.68472597      -0.31754601
C        0.67149302      -0.13405308      -1.18948198
O       -0.62043811       0.18060225      -1.21780172
H        0.53661709      -1.29144935      -0.48382912
H       -1.23132343      -1.82729979       0.11148010
H        0.08624611       2.04032510       0.63516268
H        0.84422030       0.78699476       1.68152724
H        1.19045843      -0.26654333      -2.13596324
12
Frame=6 idx=010078 GeodesicLength=0.6014838930671738 rxn_smarts="[N:1]([C:2](=[O:3])[C:4]([O:5][C:6](=[O:7])[H:12])([H:10])[H:11])([H:8])[H:9]>>[N:1]1([H:9])[C@@:2]2([O:3]1)[C:4]([H:10])([H:11])[O:5][C:6]([H:8])([H:12])[O:7]2"
N       -0.56099672      -1.29724806       0.65192856
C       -0.79700824       0.07872846       0.44292820
O       -1.85902366       0.03500002       1.14281014
C        0.38904148       0.99445262       0.71215896
O        1.33964956       0.68757508      -0.31734731
C        0.68594062      -0.12832980      -1.20109334
O       -0.60624425       0.17810372      -1.23604319
H        0.52764957      -1.29907745      -0.48800628
H       -1.25850821      -1.83448099       0.13164628
H        0.07794039       2.03569452       0.62657031
H        0.84621801       0.79345073       1.67872043
H        1.21534145      -0.24386886      -2.14427275
12
Frame=7 idx=010078 GeodesicLength=0.7017052250880699 rxn_smarts="[N:1]([C:2](=[O:3])[C:4]([O:5][C:6](=[O:7])[H:12])([H:10])[H:11])([H:8])[H:9]>>[N:1]1([H:9])[C@@:2]2([O:3]1)[C:4]([H:10])([H:11])[O:5][C:6]([H:8])([H:12])[O:7]2"
N       -0.57785777      -1.30150686       0.65372058
C       -0.79985266       0.07456978       0.45158421
O       -1.85058883       0.02934733       1.16933227
C        0.38708344       0.99210616       0.70910156
O        1.34167048       0.69043606      -0.31719268
C        0.70091717      -0.12247870      -1.21288391
O       -0.59150523       0.17538383      -1.25478886
H        0.51842977      -1.30671803      -0.49245434
H       -1.28648847      -1.84150829       0.15260801
H        0.06938806       2.03077881       0.61768084
H        0.84805948       0.80006451       1.67569853
H        1.24074457      -0.22047460      -2.15240622
12
Frame=8 idx=010078 GeodesicLength=0.801937484957482 rxn_smarts="[N:1]([C:2](=[O:3])[C:4]([O:5][C:6](=[O:7])[H:12])([H:10])[H:11])([H:8])[H:9]>>[N:1]1([H:9])[C@@:2]2([O:3]1)[C:4]([H:10])([H:11])[O:5][C:6]([H:8])([H:12])[O:7]2"
N       -0.59519855      -1.30590420       0.65517534
C       -0.80284566       0.07023115       0.46049706
O       -1.84149113       0.02349342       1.19669535
C        0.38495488       0.98957209       0.70583213
O        1.34367457       0.69330416      -0.31708534
C        0.71644815      -0.11649423      -1.22485573
O       -0.57618284       0.17244641      -1.27406093
H        0.50893856      -1.31436396      -0.49718305
H       -1.31528525      -1.84835354       0.17440168
H        0.06057200       2.02556018       0.60847137
H        0.84973450       0.80685363       1.67244475
H        1.26668075      -0.19634511      -2.16033263
12
Frame=9 idx=010078 GeodesicLength=0.9022294038454488 rxn_smarts="[N:1]([C:2](=[O:3])[C:4]([O:5][C:6](=[O:7])[H:12])([H:10])[H:11])([H:8])[H:9]>>[N:1]1([H:9])[C@@:2]2([O:3]1)[C:4]([H:10])([H:11])[O:5][C:6]([H:8])([H:12])[O:7]2"
N       -0.61312945      -1.31041911       0.65620510
C       -0.80598966       0.06571320       0.46970863
O       -1.83162238       0.01735560       1.22495770
C        0.38264300       0.98683391       0.70233597
O        1.34566915       0.69617500      -0.31702483
C        0.73256645      -0.11036740      -1.23700479
O       -0.56023244       0.16929929      -1.29389128
H        0.49913769      -1.32198667      -0.50221854
H       -1.34490753      -1.85498535       0.19710409
H        0.05146085       2.02001307       0.59891003
H        0.85122206       0.81384748       1.66893901
H        1.29318226      -0.17147902      -2.16802108
12
Frame=10 idx=010078 GeodesicLength=1.0025380611471633 rxn_smarts="[N:1]([C:2](=[O:3])[C:4]([O:5][C:6](=[O:7])[H:12])([H:10])[H:11])([H:8])[H:9]>>[N:1]1([H:9])[C@@:2]2([O:3]1)[C:4]([H:10])([H:11])[O:5][C:6]([H:8])([H:12])[O:7]2"
N       -0.63166994      -1.31504992       0.65680663
C       -0.80930003       0.06101771       0.47921556
O       -1.82094029       0.01090480       1.25413132
C        0.38014238       0.98388439       0.69860232
O        1.34764272       0.69903784      -0.31701458
C        0.74929040      -0.10409073      -1.24933606
O       -0.54361693       0.16595796      -1.31429929
H        0.48901143      -1.32959548      -0.50756157
H       -1.37536311      -1.86139222       0.22074513
H        0.04205200       2.01412313       0.58898272
H        0.85251326       0.82105461       1.66517034
H        1.32023811      -0.14585210      -2.17544252
12
Frame=11 idx=010078 GeodesicLength=1.1028467120905656 rxn_smarts="[N:1]([C:2](=[O:3])[C:4]([O:5][C:6](=[O:7])[H:12])([H:10])[H:11])([H:8])[H:9]>>[N:1]1([H:9])[C@@:2]2([O:3]1)[C:4]([H:10])([H:11])[O:5][C:6]([H:8])([H:12])[O:7]2"
N       -0.65088451      -1.31978341       0.65693898
C       -0.81278395       0.05614551       0.48903733
O       -1.80937344       0.00408849       1.28424358
C        0.37744485       0.98071081       0.69461787
O        1.34959132       0.70188463      -0.31705669
C        0.76664360      -0.09765433      -1.26184932
O       -0.52629566       0.16243751      -1.33530905
H        0.47852816      -1.33717951      -0.51322789
H       -1.40665030      -1.86755716       0.24537874
H        0.03233054       2.00786833       0.57866790
H        0.85359258       0.82849361       1.66112075
H        1.34785682      -0.11945448      -2.18256220
12
Frame=12 idx=010078 GeodesicLength=1.2031550688858774 rxn_smarts="[N:1]([C:2](=[O:3])[C:4]([O:5][C:6](=[O:7])[H:12])([H:10])[H:11])([H:8])[H:9]>>[N:1]1([H:9])[C@@:2]2([O:3]1)[C:4]([H:10])([H:11])[O:5][C:6]([H:8])([H:12])[O:7]2"
N       -0.67085851      -1.32459782       0.65654405
C       -0.81645232       0.05109873       0.49919691
O       -1.79681485      -0.00317215       1.31534137
C        0.37453741       0.97730056       0.69036808
O        1.35151061       0.70470801      -0.31715184
C        0.78465577      -0.09104722      -1.27454240
O       -0.50822104       0.15875511      -1.35694988
H        0.46764868      -1.34472538      -0.51923598
H       -1.43877313      -1.87345221       0.27106102
H        0.02227253       2.00122592       0.56793642
H        0.85443922       0.83619345       1.65677234
H        1.37605563      -0.09228700      -2.18934008
12
Frame=13 idx=010078 GeodesicLength=1.3034432591398069 rxn_smarts="[N:1]([C:2](=[O:3])[C:4]([O:5][C:6](=[O:7])[H:12])([H:10])[H:11])([H:8])[H:9]>>[N:1]1([H:9])[C@@:2]2([O:3]1)[C:4]([H:10])([H:11])[O:5][C:6]([H:8])([H:12])[O:7]2"
N       -0.69167872      -1.32946663       0.65557116
C       -0.82031568       0.04588170       0.50971990
O       -1.78316861      -0.01095356       1.34745581
C        0.37140904       0.97364059       0.68583767
O        1.35339689       0.70749798      -0.31730241
C        0.80335580      -0.08425843      -1.28741150
O       -0.48934414       0.15492254      -1.37924528
H        0.45632392      -1.35221730      -0.52560907
H       -1.47172274      -1.87905678       0.29785231
H        0.01185794       1.99417165       0.55676046
H        0.85503653       0.84418194       1.65210502
H        1.40484976      -0.06434370      -2.19573405
12
Frame=14 idx=010078 GeodesicLength=1.4036906765693524 rxn_smarts="[N:1]([C:2](=[O:3])[C:4]([O:5][C:6](=[O:7])[H:12])([H:10])[H:11])([H:8])[H:9]>>[N:1]1([H:9])[C@@:2]2([O:3]1)[C:4]([H:10])([H:11])[O:5][C:6]([H:8])([H:12])[O:7]2"
N       -0.71346296      -1.33434481       0.65394703
C       -0.82438535       0.04050558       0.52063231
O       -1.76831243      -0.01935724       1.38062143
C        0.36804864       0.96971862       0.68101146
O        1.35524459       0.71024822      -0.31750724
C        0.82277414      -0.07727963      -1.30044833
O       -0.46961189       0.15096121      -1.40222056
H        0.44449575      -1.35963193      -0.53236381
H       -1.50547276      -1.88435611       0.32582024
H        0.00106621       1.98667933       0.54511200
H        0.85536221       0.85249219       1.64709270
H        1.43425383      -0.03563544      -2.20169723
12
Frame=15 idx=010078 GeodesicLength=1.503900117299583 rxn_smarts="[N:1]([C:2](=[O:3])[C:4]([O:5][C:6](=[O:7])[H:12])([H:10])[H:11])([H:8])[H:9]>>[N:1]1([H:9])[C@@:2]2([O:3]1)[C:4]([H:10])([H:11])[O:5][C:6]([H:8])([H:12])[O:7]2"
N       -0.73634993      -1.33917977       0.65158658
C       -0.82867698       0.03497998       0.53196582
O       -1.75207891      -0.02851300       1.41489823
C        0.36443709       0.96552174       0.67586926
O        1.35704611       0.71294784      -0.31776586
C        0.84294992      -0.07010258      -1.31364245
O       -0.44895969       0.14688816      -1.42591059
H        0.43208581      -1.36694571      -0.53953514
H       -1.54000491      -1.88931834       0.35504200
H       -0.01013724       1.97871969       0.53294879
H        0.85538643       0.86117253       1.64170942
H        1.46430230      -0.00617054      -2.20716605
12
Frame=16 idx=010078 GeodesicLength=1.6040586897730376 rxn_smarts="[N:1]([C:2](=[O:3])[C:4]([O:5][C:6](=[O:7])[H:12])([H:10])[H:11])([H:8])[H:9]>>[N:1]1([H:9])[C@@:2]2([O:3]1)[C:4]([H:10])([H:11])[O:5][C:6]([H:8])([H:12])[O:7]2"
N       -0.76050134      -1.34390011       0.64839870
C       -0.83320664       0.02932157       0.54375287
O       -1.73429108      -0.03856431       1.45032490
C        0.36055600       0.96103752       0.67039416
O        1.35879842       0.71558422      -0.31807607
C        0.86392017      -0.06272062      -1.32697920
O       -0.42732664       0.14272334      -1.45034623
H        0.41900472      -1.37412975      -0.54715394
H       -1.57527675      -1.89392555       0.38560658
H       -0.02178409       1.97026328       0.52023152
H        0.85507707       0.87027316       1.63592870
H        1.49503014       0.02403725      -2.21208200
