12
Frame=0 idx=006076 GeodesicLength=0.0 rxn_smarts="[O:1]=[C:2]([C:3]([C:4]([C:5]#[C:6][H:12])([H:10])[H:11])([H:8])[H:9])[H:7]>>[O:1]=[C:5]1[C:4]([H:10])([H:11])[C:3]([H:8])([H:9])[C:2]([H:7])=[C:6]1[H:12]"
O        0.10138223      -1.51185883      -0.58474299
C       -0.21585296      -0.58037419       0.93603870
C       -0.75851505       0.66046158       0.34497593
C        0.04582945       0.79603481      -0.98894194
C        0.95754838      -0.40914783      -1.03383415
C        1.05182175      -0.93709623       0.35887689
H       -0.65883904      -1.08717772       1.78954646
H       -0.49484949       1.49363732       1.00436464
H       -1.84639923       0.64075141       0.25725526
H       -0.62403976       0.80199835      -1.85002613
H        0.63265529       1.71413519      -1.01451028
H        1.80925842      -1.58136389       0.78099758
12
Frame=1 idx=006076 GeodesicLength=0.18225073305039052 rxn_smarts="[O:1]=[C:2]([C:3]([C:4]([C:5]#[C:6][H:12])([H:10])[H:11])([H:8])[H:9])[H:7]>>[O:1]=[C:5]1[C:4]([H:10])([H:11])[C:3]([H:8])([H:9])[C:2]([H:7])=[C:6]1[H:12]"
O        0.08284625      -1.52547352      -0.60196183
C       -0.24413298      -0.59756451       0.92823095
C       -0.75459209       0.66414547       0.34878562
C        0.04384438       0.79245462      -0.98658683
C        0.97176974      -0.39979129      -1.02210356
C        1.07382029      -0.93308789       0.35760736
H       -0.69187292      -1.09029991       1.78794168
H       -0.47501716       1.47980185       1.02343700
H       -1.84269115       0.67729726       0.26462415
H       -0.61999279       0.77562578      -1.85230825
H        0.61437204       1.71962244      -1.02989753
H        1.84164640      -1.56273029       0.78223124
12
Frame=2 idx=006076 GeodesicLength=0.36448339492132964 rxn_smarts="[O:1]=[C:2]([C:3]([C:4]([C:5]#[C:6][H:12])([H:10])[H:11])([H:8])[H:9])[H:7]>>[O:1]=[C:5]1[C:4]([H:10])([H:11])[C:3]([H:8])([H:9])[C:2]([H:7])=[C:6]1[H:12]"
O        0.06298465      -1.53928801      -0.61980595
C       -0.27277002      -0.61452714       0.91982944
C       -0.75051662       0.66747064       0.35274159
C        0.04192416       0.78867172      -0.98413912
C        0.98517586      -0.39092386      -1.01043377
C        1.09670843      -0.92845617       0.35654993
H       -0.72563647      -1.09268065       1.78562645
H       -0.45541578       1.46491835       1.04246937
H       -1.83784667       0.71364101       0.27244132
H       -0.61567010       0.74979923      -1.85403439
H        0.59619455       1.72418762      -1.04515858
H        1.87486800      -1.54281276       0.78391372
12
Frame=3 idx=006076 GeodesicLength=0.5466949652253832 rxn_smarts="[O:1]=[C:2]([C:3]([C:4]([C:5]#[C:6][H:12])([H:10])[H:11])([H:8])[H:9])[H:7]>>[O:1]=[C:5]1[C:4]([H:10])([H:11])[C:3]([H:8])([H:9])[C:2]([H:7])=[C:6]1[H:12]"
O        0.04152986      -1.55329710      -0.63823894
C       -0.30176322      -0.63117913       0.91092372
C       -0.74630077       0.67042996       0.35683605
C        0.04010102       0.78466778      -0.98157661
C        0.99773027      -0.38266148      -0.99885577
C        1.12058000      -0.92315323       0.35570396
H       -0.76012219      -1.09436916       1.78258672
H       -0.43614959       1.44901730       1.06143593
H       -1.83186297       0.74967907       0.28065988
H       -0.61104901       0.72458209      -1.85523938
H        0.57824376       1.72779069      -1.06020617
H        1.90906284      -1.52150680       0.78597061
12
Frame=4 idx=006076 GeodesicLength=0.72888560856684 rxn_smarts="[O:1]=[C:2]([C:3]([C:4]([C:5]#[C:6][H:12])([H:10])[H:11])([H:8])[H:9])[H:7]>>[O:1]=[C:5]1[C:4]([H:10])([H:11])[C:3]([H:8])([H:9])[C:2]([H:7])=[C:6]1[H:12]"
O        0.01821120      -1.56749158      -0.65724861
C       -0.33114375      -0.64746421       0.90158827
C       -0.74195315       0.67301410       0.36106329
C        0.03840640       0.78041652      -0.97887856
C        1.00941402      -0.37511990      -0.98738852
C        1.14553739      -0.91711944       0.35507541
H       -0.79534182      -1.09542360       1.77881792
H       -0.41729697       1.43211681       1.08032459
H       -1.82473979       0.78534135       0.28923925
H       -0.60611104       0.70001511      -1.85596043
H        0.56063290       1.73039654      -1.07496341
H        1.94438460      -1.49868171       0.78833079
12
Frame=5 idx=006076 GeodesicLength=0.9110418020942415 rxn_smarts="[O:1]=[C:2]([C:3]([C:4]([C:5]#[C:6][H:12])([H:10])[H:11])([H:8])[H:9])[H:7]>>[O:1]=[C:5]1[C:4]([H:10])([H:11])[C:3]([H:8])([H:9])[C:2]([H:7])=[C:6]1[H:12]"
O       -0.00726510      -1.58185077      -0.67683459
C       -0.36096146      -0.66334623       0.89188675
C       -0.73747986       0.67520621       0.36541800
C        0.03687623       0.77588592      -0.97602304
C        1.02021360      -0.36842192      -0.97604135
C        1.17169361      -0.91028259       0.35466997
H       -0.83131271      -1.09589536       1.77433757
H       -0.39893066       1.41422014       1.09913486
H       -1.81647694       0.82056298       0.29812660
H       -0.60083076       0.67613201      -1.85623647
H        0.54347902       1.73197250      -1.08935274
H        1.98099505      -1.47418290       0.79091445
12
Frame=6 idx=006076 GeodesicLength=1.0931695243384747 rxn_smarts="[O:1]=[C:2]([C:3]([C:4]([C:5]#[C:6][H:12])([H:10])[H:11])([H:8])[H:9])[H:7]>>[O:1]=[C:5]1[C:4]([H:10])([H:11])[C:3]([H:8])([H:9])[C:2]([H:7])=[C:6]1[H:12]"
O       -0.03519380      -1.59634920      -0.69704341
C       -0.39130927      -0.67881924       0.88185159
C       -0.73288359       0.67698387       0.36989895
C        0.03554343       0.77103090      -0.97298995
C        1.03013275      -0.36269375      -0.96480156
C        1.19917196      -0.90254608       0.35451120
H       -0.86807411      -1.09583640       1.76916009
H       -0.38108783       1.39530530       1.11787950
H       -1.80706712       0.85532646       0.30729628
H       -0.59519038       0.65293531      -1.85610596
H        0.52688639       1.73248337      -1.10331187
H        2.01907159      -1.44782054       0.79365513
12
Frame=7 idx=006076 GeodesicLength=1.2752686349069255 rxn_smarts="[O:1]=[C:2]([C:3]([C:4]([C:5]#[C:6][H:12])([H:10])[H:11])([H:8])[H:9])[H:7]>>[O:1]=[C:5]1[C:4]([H:10])([H:11])[C:3]([H:8])([H:9])[C:2]([H:7])=[C:6]1[H:12]"
O       -0.06590722      -1.61094605      -0.71794435
C       -0.42229863      -0.69389177       0.87150060
C       -0.72816552       0.67831307       0.37450622
C        0.03444688       0.76579651      -0.96975621
C        1.03917209      -0.35808076      -0.95364061
C        1.22810956      -0.89378733       0.35462981
H       -0.90566993      -1.09528616       1.76331173
H       -0.36380434       1.37532842       1.13657956
H       -1.79649512       0.88961529       0.31671836
H       -0.58916229       0.63042154      -1.85560657
H        0.51096985       1.73188709      -1.11677475
H        2.05880466      -1.41936986       0.79647622
12
Frame=8 idx=006076 GeodesicLength=1.4573364546914709 rxn_smarts="[O:1]=[C:2]([C:3]([C:4]([C:5]#[C:6][H:12])([H:10])[H:11])([H:8])[H:9])[H:7]>>[O:1]=[C:5]1[C:4]([H:10])([H:11])[C:3]([H:8])([H:9])[C:2]([H:7])=[C:6]1[H:12]"
O       -0.09978690      -1.62557694      -0.73963273
C       -0.45405819      -0.70858340       0.86083891
C       -0.72332772       0.67914706       0.37924125
C        0.03363339       0.76011536      -0.96629522
C        1.04732673      -0.35475662      -0.94251038
C        1.25866364      -0.88385017       0.35506691
H       -0.94414535      -1.09427173       1.75682925
H       -0.34712188       1.35422494       1.15526427
H       -1.78474014       0.92340973       0.32635850
H       -0.58270586       0.60858186      -1.85477763
H        0.49586075       1.73013050      -1.12966875
H        2.10040153      -1.38857059       0.79928561
12
Frame=9 idx=006076 GeodesicLength=1.6393819778728507 rxn_smarts="[O:1]=[C:2]([C:3]([C:4]([C:5]#[C:6][H:12])([H:10])[H:11])([H:8])[H:9])[H:7]>>[O:1]=[C:5]1[C:4]([H:10])([H:11])[C:3]([H:8])([H:9])[C:2]([H:7])=[C:6]1[H:12]"
O       -0.13726850      -1.64015410      -0.76225363
C       -0.48674194      -0.72292633       0.84985144
C       -0.71837255       0.67942178       0.38410550
C        0.03315754       0.75390085      -0.96257332
C        1.05457746      -0.35292747      -0.93132482
C        1.29100990      -0.87251024       0.35588319
H       -0.98354952      -1.09281277       1.74975257
H       -0.33107953       1.33190290       1.17395856
H       -1.77176400       0.95669590       0.33619543
H       -0.57576466       0.58739014      -1.85365204
H        0.48170838       1.72714100      -1.14191752
H        2.14408741      -1.35512165       0.80197464
12
Frame=10 idx=006076 GeodesicLength=1.821392606813501 rxn_smarts="[O:1]=[C:2]([C:3]([C:4]([C:5]#[C:6][H:12])([H:10])[H:11])([H:8])[H:9])[H:7]>>[O:1]=[C:5]1[C:4]([H:10])([H:11])[C:3]([H:8])([H:9])[C:2]([H:7])=[C:6]1[H:12]"
O       -0.17889053      -1.65453378      -0.78595105
C       -0.52050766      -0.73694948       0.83853503
C       -0.71331044       0.67905906       0.38910278
C        0.03309415       0.74705003      -0.95854933
C        1.06089408      -0.35285969      -0.91997807
C        1.32536242      -0.85952123       0.35713449
H       -1.02393012      -1.09091430       1.74214235
H       -0.31576228       1.30826193       1.19270808
H       -1.75754202       0.98941800       0.34616676
H       -0.56825030       0.56683228      -1.85227505
H        0.46871179       1.72282561      -1.15341683
H        2.19013091      -1.31866842       0.80438083
12
Frame=11 idx=006076 GeodesicLength=2.0033682632702186 rxn_smarts="[O:1]=[C:2]([C:3]([C:4]([C:5]#[C:6][H:12])([H:10])[H:11])([H:8])[H:9])[H:7]>>[O:1]=[C:5]1[C:4]([H:10])([H:11])[C:3]([H:8])([H:9])[C:2]([H:7])=[C:6]1[H:12]"
O       -0.22528305      -1.66852083      -0.81093067
C       -0.55554601      -0.75069280       0.82686978
C       -0.70815626       0.67795830       0.39423707
C        0.03353193       0.73942843      -0.95416945
C        1.06622438      -0.35487797      -0.90829937
C        1.36196509      -0.84453771       0.35889926
H       -1.06534154      -1.08858334       1.73406137
H       -0.30126185       1.28317165       1.21155291
H       -1.74203261       1.02152346       0.35621948
H       -0.56004331       0.54686885      -1.85068529
H        0.45710518       1.71705665      -1.16405396
H        2.23883807      -1.27879468       0.80629888
12
Frame=12 idx=006076 GeodesicLength=2.1853011541137706 rxn_smarts="[O:1]=[C:2]([C:3]([C:4]([C:5]#[C:6][H:12])([H:10])[H:11])([H:8])[H:9])[H:7]>>[O:1]=[C:5]1[C:4]([H:10])([H:11])[C:3]([H:8])([H:9])[C:2]([H:7])=[C:6]1[H:12]"
O       -0.27721376      -1.68182899      -0.83743372
C       -0.59206949      -0.76420003       0.81483701
C       -0.70293507       0.67599555       0.39951355
C        0.03458509       0.73086533      -0.94936348
C        1.07049051      -0.35939464      -0.89604277
C        1.40111028      -0.82711772       0.36125725
H       -1.10783626      -1.08582999       1.72558722
H       -0.28771116       1.25648121       1.23054229
H       -1.72519559       1.05293027       0.36627160
H       -0.55097125       0.52744616      -1.84892521
H        0.44718225       1.70966437      -1.17369024
H        2.29056444      -1.23501152       0.80744649
12
Frame=13 idx=006076 GeodesicLength=2.36719400405614 rxn_smarts="[O:1]=[C:2]([C:3]([C:4]([C:5]#[C:6][H:12])([H:10])[H:11])([H:8])[H:9])[H:7]>>[O:1]=[C:5]1[C:4]([H:10])([H:11])[C:3]([H:8])([H:9])[C:2]([H:7])=[C:6]1[H:12]"
O       -0.33559952      -1.69405199      -0.86576510
C       -0.63034176      -0.77752296       0.80240807
C       -0.69768772       0.67301590       0.40494155
C        0.03639604       0.72113466      -0.94403790
C        1.07358680      -0.36692110      -0.88284173
C        1.44314241      -0.80668177       0.36428580
H       -1.15148347      -1.08267140       1.71680833
H       -0.27527602       1.22800376       1.24973247
H       -1.70698457       1.08354840       0.37623209
H       -0.54079091       0.50846606      -1.84703546
H        0.43930307       1.70041255      -1.18216491
H        2.34573564      -1.18673210       0.80743678
12
Frame=14 idx=006076 GeodesicLength=2.5490233461492946 rxn_smarts="[O:1]=[C:2]([C:3]([C:4]([C:5]#[C:6][H:12])([H:10])[H:11])([H:8])[H:9])[H:7]>>[O:1]=[C:5]1[C:4]([H:10])([H:11])[C:3]([H:8])([H:9])[C:2]([H:7])=[C:6]1[H:12]"
O       -0.40154094      -1.70459990      -0.89627156
C       -0.67067891      -0.79071948       0.78955476
C       -0.69247198       0.66883237       0.41053403
C        0.03914541       0.70994307      -0.93806614
C        1.07536943      -0.37809988      -0.86815853
C        1.48847111      -0.78250474       0.36802400
H       -1.19636075      -1.07914438       1.70783070
H       -0.26418085       1.19751774       1.26919686
H       -1.68735077       1.11325813       0.38596056
H       -0.52915236       0.48977629      -1.84505886
H        0.43390533       1.68898948      -1.18927913
H        2.40484528      -1.13324871       0.80573332
12
Frame=15 idx=006076 GeodesicLength=2.7307895778367075 rxn_smarts="[O:1]=[C:2]([C:3]([C:4]([C:5]#[C:6][H:12])([H:10])[H:11])([H:8])[H:9])[H:7]>>[O:1]=[C:5]1[C:4]([H:10])([H:11])[C:3]([H:8])([H:9])[C:2]([H:7])=[C:6]1[H:12]"
O       -0.47629207      -1.71265092      -0.92936773
C       -0.71352220      -0.80385352       0.77622500
C       -0.68737040       0.66321565       0.41632210
C        0.04305371       0.69689557      -0.93127820
C        1.07567074      -0.39369457      -0.85118687
C        1.53757072      -0.75366543       0.37243331
H       -1.24262300      -1.07531015       1.69876046
H       -0.25467874       1.16473140       1.28903712
H       -1.66621836       1.14196040       0.39531802
H       -0.51556227       0.47109098      -1.84303390
H        0.43149754       1.67496758      -1.19481412
H        2.46847433      -1.07368697       0.80158481
12
Frame=16 idx=006076 GeodesicLength=2.912486463583381 rxn_smarts="[O:1]=[C:2]([C:3]([C:4]([C:5]#[C:6][H:12])([H:10])[H:11])([H:8])[H:9])[H:7]>>[O:1]=[C:5]1[C:4]([H:10])([H:11])[C:3]([H:8])([H:9])[C:2]([H:7])=[C:6]1[H:12]"
O       -0.56115337      -1.71709150      -0.96548879
C       -0.75949468      -0.81697460       0.76233061
C       -0.68249025       0.65590472       0.42237042
C        0.04837881       0.68147446      -0.92344408
C        1.07432802      -0.41455533      -0.83072670
C        1.59097088      -0.71905658       0.37729660
H       -1.29056531      -1.07126419       1.68967677
H       -0.24704630       1.12926263       1.30940451
H       -1.64345133       1.16961251       0.40417574
H       -0.49932627       0.45189980      -1.84098238
H        0.43260379       1.65779449      -1.19854259
H        2.53724603      -1.00700642       0.79392989
