10
Frame=0 idx=000438 GeodesicLength=0.0 rxn_smarts="[O:1]([c:2]1[c:3]([H:8])[n:4]([H:9])[n:5][c:6]1[H:10])[H:7]>>[N-:4]([N+:5]#[C:6][H:10])[H:9].[O:1]([C:2]#[C:3][H:8])[H:7]"
O        2.16604610       0.12878105      -0.15820757
C        0.98241284      -0.43864561       0.06047446
C        0.18675756      -1.31372980       0.35981871
N       -1.93781912      -0.13745542      -0.01656419
N       -1.29470582       0.90265995      -0.24823552
C       -0.20474929       1.35400043      -0.44616515
H        2.84796711      -0.52804240       0.01168060
H       -0.39411574      -2.16633037       0.61064865
H       -2.51613771      -0.01009418       0.81365992
H        0.16434407       2.20885635      -0.98710990
10
Frame=1 idx=000438 GeodesicLength=0.05718488228928306 rxn_smarts="[O:1]([c:2]1[c:3]([H:8])[n:4]([H:9])[n:5][c:6]1[H:10])[H:7]>>[N-:4]([N+:5]#[C:6][H:10])[H:9].[O:1]([C:2]#[C:3][H:8])[H:7]"
O        2.18493479       0.11888290      -0.15448709
C        0.98812806      -0.41897180       0.06764328
C        0.18049140      -1.29324177       0.35265092
N       -1.91772424      -0.14601606      -0.00599044
N       -1.30363150       0.91615368      -0.22854111
C       -0.20946905       1.36480887      -0.42974491
H        2.85168349      -0.55673032       0.00074889
H       -0.38877098      -2.15139493       0.61303344
H       -2.54281880      -0.03102858       0.79041613
H        0.15717682       2.19753802      -1.00572910
10
Frame=2 idx=000438 GeodesicLength=0.11474158657868516 rxn_smarts="[O:1]([c:2]1[c:3]([H:8])[n:4]([H:9])[n:5][c:6]1[H:10])[H:7]>>[N-:4]([N+:5]#[C:6][H:10])[H:9].[O:1]([C:2]#[C:3][H:8])[H:7]"
O        2.20360626       0.10751328      -0.15370884
C        0.99405925      -0.39926165       0.07351068
C        0.17453800      -1.27408133       0.34148511
N       -1.89798841      -0.15330452       0.00476160
N       -1.31230925       0.92947746      -0.20812948
C       -0.21423404       1.37556935      -0.41403663
H        2.85456685      -0.58522957      -0.00789185
H       -0.38322851      -2.13435741       0.62075579
H       -2.56828545      -0.05347478       0.76458686
H        0.14927529       2.18714915      -1.02133325
10
Frame=3 idx=000438 GeodesicLength=0.17230079876726465 rxn_smarts="[O:1]([c:2]1[c:3]([H:8])[n:4]([H:9])[n:5][c:6]1[H:10])[H:7]>>[N-:4]([N+:5]#[C:6][H:10])[H:9].[O:1]([C:2]#[C:3][H:8])[H:7]"
O        2.22108313       0.09279145      -0.16425502
C        1.00073730      -0.37633030       0.09084953
C        0.16933922      -1.25532692       0.32821919
N       -1.87843794      -0.16108196       0.01297919
N       -1.32140918       0.94107401      -0.19068703
C       -0.21927280       1.38681648      -0.39561747
H        2.85603133      -0.61509879      -0.02120901
H       -0.37638302      -2.11373335       0.63786963
H       -2.59461349      -0.07805646       0.73065893
H        0.14292544       2.17894584      -1.02880793
10
Frame=4 idx=000438 GeodesicLength=0.2286000633967805 rxn_smarts="[O:1]([c:2]1[c:3]([H:8])[n:4]([H:9])[n:5][c:6]1[H:10])[H:7]>>[N-:4]([N+:5]#[C:6][H:10])[H:9].[O:1]([C:2]#[C:3][H:8])[H:7]"
O        2.23701990       0.07744656      -0.17467723
C        1.00741865      -0.35668698       0.10010619
C        0.16489238      -1.23654610       0.31537910
N       -1.85924240      -0.16828734       0.02212104
N       -1.33040049       0.95162894      -0.17387451
C       -0.22430656       1.39748989      -0.37732150
H        2.85630914      -0.64467595      -0.03344456
H       -0.36839066      -2.09002267       0.66029930
H       -2.61982205      -0.10319645       0.69326297
H        0.13652208       2.17285011      -1.03185081
10
Frame=5 idx=000438 GeodesicLength=0.2844447701513322 rxn_smarts="[O:1]([c:2]1[c:3]([H:8])[n:4]([H:9])[n:5][c:6]1[H:10])[H:7]>>[N-:4]([N+:5]#[C:6][H:10])[H:9].[O:1]([C:2]#[C:3][H:8])[H:7]"
O        2.25118122       0.05829902      -0.19429132
C        1.01360084      -0.33907142       0.10183990
C        0.16086180      -1.21786887       0.30340098
N       -1.84041345      -0.17481545       0.03103782
N       -1.33918254       0.96183367      -0.15602466
C       -0.22923991       1.40818068      -0.35783611
H        2.85644433      -0.67284715      -0.03856638
H       -0.35947847      -2.06260496       0.68881230
H       -2.64364222      -0.13053417       0.65107726
H        0.12986839       2.16942865      -1.02944979
10
Frame=6 idx=000438 GeodesicLength=0.3397661565594084 rxn_smarts="[O:1]([c:2]1[c:3]([H:8])[n:4]([H:9])[n:5][c:6]1[H:10])[H:7]>>[N-:4]([N+:5]#[C:6][H:10])[H:9].[O:1]([C:2]#[C:3][H:8])[H:7]"
O        2.26417454       0.03840010      -0.21376313
C        1.02037010      -0.32277406       0.10099269
C        0.15753552      -1.19794470       0.29923728
N       -1.82169295      -0.18191329       0.03937103
N       -1.34815597       0.97015968      -0.14077214
C       -0.23426633       1.41831148      -0.33709288
H        2.85527226      -0.70273572      -0.05234461
H       -0.34969233      -2.03221944       0.72454003
H       -2.66739309      -0.15923940       0.59989159
H        0.12384826       2.16995535      -1.02005985
10
Frame=7 idx=000438 GeodesicLength=0.3952089992774417 rxn_smarts="[O:1]([c:2]1[c:3]([H:8])[n:4]([H:9])[n:5][c:6]1[H:10])[H:7]>>[N-:4]([N+:5]#[C:6][H:10])[H:9].[O:1]([C:2]#[C:3][H:8])[H:7]"
O        2.27501242       0.01376076      -0.24531040
C        1.02690558      -0.30698216       0.09624293
C        0.15452200      -1.17787308       0.29885512
N       -1.80336820      -0.18865043       0.04685176
N       -1.35705897       0.97820549      -0.12409704
C       -0.23926078       1.42870328      -0.31408140
H        2.85393856      -0.73164167      -0.06098056
H       -0.33944098      -1.99810654       0.76643140
H       -2.68897139      -0.19097309       0.54097125
H        0.11772177       2.17355744      -1.00488308
10
Frame=8 idx=000438 GeodesicLength=0.45029926827296063 rxn_smarts="[O:1]([c:2]1[c:3]([H:8])[n:4]([H:9])[n:5][c:6]1[H:10])[H:7]>>[N-:4]([N+:5]#[C:6][H:10])[H:9].[O:1]([C:2]#[C:3][H:8])[H:7]"
O        2.28357030      -0.01327709      -0.28120976
C        1.03341336      -0.29285704       0.08827031
C        0.15195988      -1.15738758       0.30453076
N       -1.78533831      -0.19636513       0.05370489
N       -1.36640919       0.98400096      -0.11071995
C       -0.24441373       1.43837331      -0.28833355
H        2.85114813      -0.76143667      -0.07621286
H       -0.32826516      -1.95800321       0.81955636
H       -2.70844142      -0.22506226       0.47074858
H        0.11277613       2.18201471      -0.98033479
10
Frame=9 idx=000438 GeodesicLength=0.5051881103237789 rxn_smarts="[O:1]([c:2]1[c:3]([H:8])[n:4]([H:9])[n:5][c:6]1[H:10])[H:7]>>[N-:4]([N+:5]#[C:6][H:10])[H:9].[O:1]([C:2]#[C:3][H:8])[H:7]"
O        2.29223133      -0.03865310      -0.30851475
C        1.03889532      -0.27904239       0.07856282
C        0.14856646      -1.13855160       0.30359803
N       -1.76879894      -0.20052002       0.07036695
N       -1.37577566       0.99120052      -0.09440556
C       -0.24990042       1.44717178      -0.26747166
H        2.84819812      -0.78897999      -0.08231502
H       -0.31688712      -1.92273170       0.85759057
H       -2.72179713      -0.25588494       0.40833326
H        0.10526804       2.18599143      -0.96574463
10
Frame=10 idx=000438 GeodesicLength=0.5599350176943206 rxn_smarts="[O:1]([c:2]1[c:3]([H:8])[n:4]([H:9])[n:5][c:6]1[H:10])[H:7]>>[N-:4]([N+:5]#[C:6][H:10])[H:9].[O:1]([C:2]#[C:3][H:8])[H:7]"
O        2.30062389      -0.06358395      -0.33084866
C        1.04327463      -0.26541678       0.06670056
C        0.14414918      -1.12062425       0.29758665
N       -1.75337699      -0.20087096       0.09696949
N       -1.38472732       1.00015209      -0.07392782
C       -0.25537643       1.45531069      -0.25060147
H        2.84499004      -0.81398338      -0.07900101
H       -0.30499133      -1.89244347       0.88276422
H       -2.72958095      -0.28443604       0.35000828
H        0.09501529       2.18589605      -0.95965024
10
Frame=11 idx=000438 GeodesicLength=0.6143407597354474 rxn_smarts="[O:1]([c:2]1[c:3]([H:8])[n:4]([H:9])[n:5][c:6]1[H:10])[H:7]>>[N-:4]([N+:5]#[C:6][H:10])[H:9].[O:1]([C:2]#[C:3][H:8])[H:7]"
O        2.31082812      -0.08563224      -0.34133908
C        1.04645761      -0.25218482       0.05113980
C        0.13807454      -1.10406494       0.28352981
N       -1.73950425      -0.19638898       0.13895450
N       -1.39381082       1.01094828      -0.05198030
C       -0.26124238       1.46302130      -0.24002878
H        2.84131038      -0.83755742      -0.06614785
H       -0.29217809      -1.87051631       0.89092048
H       -2.73157143      -0.30950271       0.29954220
H        0.08163634       2.18187783      -0.96459080
10
Frame=12 idx=000438 GeodesicLength=0.6683566067371031 rxn_smarts="[O:1]([c:2]1[c:3]([H:8])[n:4]([H:9])[n:5][c:6]1[H:10])[H:7]>>[N-:4]([N+:5]#[C:6][H:10])[H:9].[O:1]([C:2]#[C:3][H:8])[H:7]"
O        2.31907834      -0.11145230      -0.35574794
C        1.04779572      -0.24010037       0.03096560
C        0.12991658      -1.08750854       0.26771896
N       -1.72633160      -0.18739017       0.19207431
N       -1.40240151       1.02403905      -0.02650250
C       -0.26685570       1.47127796      -0.23124376
H        2.83714210      -0.85711946      -0.04247738
H       -0.27963297      -1.85205881       0.89283983
H       -2.72474503      -0.33677821       0.24539611
H        0.06603407       2.17709086      -0.97302323
10
Frame=13 idx=000438 GeodesicLength=0.7222692857848895 rxn_smarts="[O:1]([c:2]1[c:3]([H:8])[n:4]([H:9])[n:5][c:6]1[H:10])[H:7]>>[N-:4]([N+:5]#[C:6][H:10])[H:9].[O:1]([C:2]#[C:3][H:8])[H:7]"
O        2.32595684      -0.13567163      -0.36432719
C        1.04761831      -0.22769710       0.01046886
C        0.12048864      -1.07006252       0.25260271
N       -1.71380457      -0.17877558       0.23798023
N       -1.41080193       1.03632977      -0.00237977
C       -0.27297463       1.47957259      -0.22239159
H        2.82849036      -0.87932023      -0.02324341
H       -0.26871955      -1.83110368       0.89590723
H       -2.70598455      -0.36589492       0.19577766
H        0.04973108       2.17262329      -0.98039471
10
Frame=14 idx=000438 GeodesicLength=0.776254055133818 rxn_smarts="[O:1]([c:2]1[c:3]([H:8])[n:4]([H:9])[n:5][c:6]1[H:10])[H:7]>>[N-:4]([N+:5]#[C:6][H:10])[H:9].[O:1]([C:2]#[C:3][H:8])[H:7]"
O        2.32970155      -0.16420457      -0.38221001
C        1.04681264      -0.21695791      -0.01331964
C        0.11193793      -1.05237251       0.24655680
N       -1.70343876      -0.17579709       0.26326398
N       -1.41941698       1.04661915       0.02265044
C       -0.27907177       1.48793490      -0.20771593
H        2.81833788      -0.90273364      -0.01141743
H       -0.25769869      -1.79914452       0.91877002
H       -2.68151199      -0.39731698       0.13936204
H        0.03434820       2.17397317      -0.97594029
10
Frame=15 idx=000438 GeodesicLength=0.8305023066529462 rxn_smarts="[O:1]([c:2]1[c:3]([H:8])[n:4]([H:9])[n:5][c:6]1[H:10])[H:7]>>[N-:4]([N+:5]#[C:6][H:10])[H:9].[O:1]([C:2]#[C:3][H:8])[H:7]"
O        2.33025559      -0.19574857      -0.40577569
C        1.04477072      -0.20790407      -0.04048592
C        0.10384004      -1.03497168       0.24509957
N       -1.69450310      -0.17628125       0.27760065
N       -1.42933310       1.05350688       0.03979274
C       -0.28528430       1.49520716      -0.19003185
H        2.80664480      -0.92454245      -0.00195343
H       -0.24602116      -1.76035308       0.95151117
H       -2.65346720      -0.42935452       0.08512910
H        0.02309771       2.18044157      -0.96088634
10
Frame=16 idx=000438 GeodesicLength=0.8850832017609714 rxn_smarts="[O:1]([c:2]1[c:3]([H:8])[n:4]([H:9])[n:5][c:6]1[H:10])[H:7]>>[N-:4]([N+:5]#[C:6][H:10])[H:9].[O:1]([C:2]#[C:3][H:8])[H:7]"
O        2.32894735      -0.22855068      -0.43087747
C        1.04181963      -0.20025890      -0.06996968
C        0.09637050      -1.01836080       0.24588635
N       -1.68658599      -0.17924423       0.28528504
N       -1.43934141       1.05874014       0.05671302
C       -0.29134219       1.50145253      -0.17059658
H        2.79409362      -0.94525571       0.00588525
H       -0.23356132      -1.71674373       0.98921489
H       -2.62297258      -0.45983700       0.03042155
H        0.01257239       2.18805839      -0.94196238
