16
Frame=0 idx=004120 GeodesicLength=0.0 rxn_smarts="[C:1]([O:2][C@@:3]([C:4]([H:11])([H:12])[H:13])([C:5]([O:6][H:16])([H:14])[H:15])[H:10])([H:7])([H:8])[H:9]>>[C:1]([O+:2]=[C-:3][C:4]([H:11])([H:12])[H:13])([H:7])([H:8])[H:9].[C:5]([O:6][H:16])([H:10])([H:14])[H:15]"
C        1.72798304       1.25128924       0.01029515
O        0.90999311       0.24608440       0.60190773
C        0.42175246      -0.65456141      -0.28238613
C       -0.11680344      -1.84924577       0.44204050
C       -1.54141192       0.34810712      -0.58888349
O       -1.40602625       1.41309398       0.25900981
H        2.57799164       0.78821588      -0.49130112
H        1.15034559       1.83681685      -0.70874876
H        2.06774249       1.89833743       0.81767974
H       -0.31869431      -0.14305223      -1.09199536
H        0.73660711      -2.45743485       0.75038671
H       -0.73141356      -2.45687624      -0.22148595
H       -0.69135945      -1.60818123       1.34693071
H       -1.87004118       0.68917589      -1.57244478
H       -2.15790189      -0.47125765      -0.21290999
H       -0.75876340       1.16948860       0.94190520
16
Frame=1 idx=004120 GeodesicLength=0.07989353897037776 rxn_smarts="[C:1]([O:2][C@@:3]([C:4]([H:11])([H:12])[H:13])([C:5]([O:6][H:16])([H:14])[H:15])[H:10])([H:7])([H:8])[H:9]>>[C:1]([O+:2]=[C-:3][C:4]([H:11])([H:12])[H:13])([H:7])([H:8])[H:9].[C:5]([O:6][H:16])([H:10])([H:14])[H:15]"
C        1.74277680       1.24077816       0.01891468
O        0.89808489       0.25417094       0.60321797
C        0.40743234      -0.64302067      -0.28298393
C       -0.10332481      -1.85356508       0.43410296
C       -1.55759900       0.34726737      -0.58278361
O       -1.41890681       1.43457239       0.24010653
H        2.61257733       0.76105506      -0.43071271
H        1.20093759       1.80961589      -0.74023888
H        2.04839041       1.90999405       0.82195277
H       -0.33445995      -0.12326399      -1.11123558
H        0.76040285      -2.45777639       0.72062608
H       -0.72113461      -2.45906675      -0.22876915
H       -0.66795987      -1.62756022       1.34873350
H       -1.91832367       0.66475071      -1.56302214
H       -2.17263235      -0.46011982      -0.17825228
H       -0.77626114       1.20216835       0.93034379
16
Frame=2 idx=004120 GeodesicLength=0.1592430478699216 rxn_smarts="[C:1]([O:2][C@@:3]([C:4]([H:11])([H:12])[H:13])([C:5]([O:6][H:16])([H:14])[H:15])[H:10])([H:7])([H:8])[H:9]>>[C:1]([O+:2]=[C-:3][C:4]([H:11])([H:12])[H:13])([H:7])([H:8])[H:9].[C:5]([O:6][H:16])([H:10])([H:14])[H:15]"
C        1.75719218       1.22968298       0.02772985
O        0.88602207       0.26244388       0.60447351
C        0.39296440      -0.63148687      -0.28345648
C       -0.08947534      -1.85757101       0.42576755
C       -1.57365432       0.34656274      -0.57646840
O       -1.43262346       1.45546387       0.22123764
H        2.64432648       0.73395734      -0.36775349
H        1.25304381       1.77930397      -0.77050562
H        2.02888823       1.92225103       0.82320811
H       -0.35065474      -0.10281329      -1.13031238
H        0.78440135      -2.45719778       0.69012623
H       -0.71057437      -2.46102172      -0.23627374
H       -0.64382445      -1.64682249       1.34994531
H       -1.96556210       0.64041922      -1.55212906
H       -2.18657428      -0.44838993      -0.14377543
H       -0.79389545       1.23521805       0.91818641
16
Frame=3 idx=004120 GeodesicLength=0.23806256202515408 rxn_smarts="[C:1]([O:2][C@@:3]([C:4]([H:11])([H:12])[H:13])([C:5]([O:6][H:16])([H:14])[H:15])[H:10])([H:7])([H:8])[H:9]>>[C:1]([O+:2]=[C-:3][C:4]([H:11])([H:12])[H:13])([H:7])([H:8])[H:9].[C:5]([O:6][H:16])([H:10])([H:14])[H:15]"
C        1.77120636       1.21800737       0.03671739
O        0.87385325       0.27088350       0.60566432
C        0.37837578      -0.61999045      -0.28378946
C       -0.07526247      -1.86124262       0.41705084
C       -1.58954477       0.34601002      -0.56993772
O       -1.44721268       1.47571478       0.20256408
H        2.67311238       0.70717829      -0.30252987
H        1.30656808       1.74569153      -0.79936668
H        2.00936506       1.93505017       0.82126319
H       -0.36727258      -0.08168097      -1.14920840
H        0.80855730      -2.45567496       0.65894299
H       -0.69972434      -2.46274129      -0.24397598
H       -0.61895750      -1.66590985       1.35056056
H       -2.01164164       0.61631352      -1.53983444
H       -2.19975865      -0.43610434      -0.10963101
H       -0.81166358       1.26849529       0.90551020
16
Frame=4 idx=004120 GeodesicLength=0.3163747790022966 rxn_smarts="[C:1]([O:2][C@@:3]([C:4]([H:11])([H:12])[H:13])([C:5]([O:6][H:16])([H:14])[H:15])[H:10])([H:7])([H:8])[H:9]>>[C:1]([O+:2]=[C-:3][C:4]([H:11])([H:12])[H:13])([H:7])([H:8])[H:9].[C:5]([O:6][H:16])([H:10])([H:14])[H:15]"
C        1.78480087       1.20576900       0.04584218
O        0.86164090       0.27946531       0.60678363
C        0.36369534      -0.60856723      -0.28396695
C       -0.06070216      -1.86456862       0.40797705
C       -1.60523205       0.34563005      -0.56319884
O       -1.46269568       1.49527316       0.18427423
H        2.69883150       0.68101233      -0.23516391
H        1.36139785       1.70858928      -0.82664267
H        1.98994671       1.94833923       0.81591678
H       -0.38430001      -0.05984621      -1.16791003
H        0.83281591      -2.45320140       0.62714240
H       -0.68858925      -2.46423529      -0.25184837
H       -0.59337238      -1.68476876       1.35058639
H       -2.05643748       0.59259344      -1.52623125
H       -2.21223527      -0.42331704      -0.07599495
H       -0.82956481       1.30183276       0.89243432
16
Frame=5 idx=004120 GeodesicLength=0.394218462158473 rxn_smarts="[C:1]([O:2][C@@:3]([C:4]([H:11])([H:12])[H:13])([C:5]([O:6][H:16])([H:14])[H:15])[H:10])([H:7])([H:8])[H:9]>>[C:1]([O+:2]=[C-:3][C:4]([H:11])([H:12])[H:13])([H:7])([H:8])[H:9].[C:5]([O:6][H:16])([H:10])([H:14])[H:15]"
C        1.79796416       1.19296389       0.05510349
O        0.84942010       0.28816659       0.60782419
C        0.34894587      -0.59723644      -0.28398066
C       -0.04579031      -1.86753425       0.39854590
C       -1.62069651       0.34543198      -0.55625527
O       -1.47906724       1.51415279       0.16643292
H        2.72140125       0.65575478      -0.16577312
H        1.41744566       1.66783428      -0.85208241
H        1.97076356       1.96196914       0.80703282
H       -0.40173967      -0.03727385      -1.18640441
H        0.85715046      -2.44976935       0.59473983
H       -0.67716118      -2.46549357      -0.25988134
H       -0.56704613      -1.70336145       1.35001047
H       -2.09993746       0.56928470      -1.51140455
H       -2.22404328      -0.41003877      -0.04290392
H       -0.84760928       1.33514952       0.87899605
16
Frame=6 idx=004120 GeodesicLength=0.47158457787391195 rxn_smarts="[C:1]([O:2][C@@:3]([C:4]([H:11])([H:12])[H:13])([C:5]([O:6][H:16])([H:14])[H:15])[H:10])([H:7])([H:8])[H:9]>>[C:1]([O+:2]=[C-:3][C:4]([H:11])([H:12])[H:13])([H:7])([H:8])[H:9].[C:5]([O:6][H:16])([H:10])([H:14])[H:15]"
C        1.81067140       1.17963040       0.06443389
O        0.83728143       0.29694891       0.60879120
C        0.33416412      -0.58604715      -0.28379630
C       -0.03056082      -1.87013684       0.38880508
C       -1.63587415       0.34544855      -0.54913306
O       -1.49632675       1.53228000       0.14931019
H        2.74073851       0.63177261      -0.09456139
H        1.47451082       1.62324049      -0.87548448
H        1.95195002       1.97587659       0.79434760
H       -0.41954197      -0.01394217      -1.20467050
H        0.88148305      -2.44539264       0.56184317
H       -0.66545418      -2.46653371      -0.26803570
H       -0.54002804      -1.72162542       1.34885843
H       -2.14194767       0.54663609      -1.49549316
H       -2.23525962      -0.39636476      -0.01063058
H       -0.86580616       1.36820903       0.86541560
16
Frame=7 idx=004120 GeodesicLength=0.5484788388846813 rxn_smarts="[C:1]([O:2][C@@:3]([C:4]([H:11])([H:12])[H:13])([C:5]([O:6][H:16])([H:14])[H:15])[H:10])([H:7])([H:8])[H:9]>>[C:1]([O+:2]=[C-:3][C:4]([H:11])([H:12])[H:13])([H:7])([H:8])[H:9].[C:5]([O:6][H:16])([H:10])([H:14])[H:15]"
C        1.82289932       1.16578644       0.07379729
O        0.82528409       0.30577499       0.60969168
C        0.31937839      -0.57503272      -0.28338322
C       -0.01502620      -1.87237563       0.37877900
C       -1.65071710       0.34570465      -0.54185454
O       -1.51444274       1.54965167       0.13305372
H        2.75677767       0.60942638      -0.02172714
H        1.53240388       1.57465701      -0.89658157
H        1.93364095       1.98990048       0.77765890
H       -0.43767081       0.01018756      -1.22268345
H        0.90576580      -2.44009022       0.52850743
H       -0.65346799      -2.46735706      -0.27628798
H       -0.51232746      -1.73952294       1.34713780
H       -2.18237685       0.52477078      -1.47863230
H       -2.24594798      -0.38234879       0.02068915
H       -0.88417298       1.40086740       0.85183524
16
Frame=8 idx=004120 GeodesicLength=0.6249386246208168 rxn_smarts="[C:1]([O:2][C@@:3]([C:4]([H:11])([H:12])[H:13])([C:5]([O:6][H:16])([H:14])[H:15])[H:10])([H:7])([H:8])[H:9]>>[C:1]([O+:2]=[C-:3][C:4]([H:11])([H:12])[H:13])([H:7])([H:8])[H:9].[C:5]([O:6][H:16])([H:10])([H:14])[H:15]"
C        1.83464450       1.15147075       0.08314743
O        0.81349592       0.31461003       0.61054201
C        0.30461602      -0.56422984      -0.28271187
C        0.00078859      -1.87426854       0.36849404
C       -1.66518372       0.34622137      -0.53444614
O       -1.53336881       1.56627240       0.11782421
H        2.76949676       0.58912181       0.05253085
H        1.59094794       1.52195579      -0.91511145
H        1.91597020       2.00388589       0.75674698
H       -0.45608366       0.03515658      -1.24042789
H        0.92994278      -2.43390387       0.49477919
H       -0.64122715      -2.46798649      -0.28461842
H       -0.48396728      -1.75703867       1.34487440
H       -2.22114086       0.50381734      -1.46097916
H       -2.25620116      -0.36806717       0.05091823
H       -0.90273006       1.43298261       0.83843760
16
Frame=9 idx=004120 GeodesicLength=0.7009916016574836 rxn_smarts="[C:1]([O:2][C@@:3]([C:4]([H:11])([H:12])[H:13])([C:5]([O:6][H:16])([H:14])[H:15])[H:10])([H:7])([H:8])[H:9]>>[C:1]([O+:2]=[C-:3][C:4]([H:11])([H:12])[H:13])([H:7])([H:8])[H:9].[C:5]([O:6][H:16])([H:10])([H:14])[H:15]"
C        1.84589041       1.13668152       0.09247939
O        0.80197269       0.32339164       0.61135808
C        0.28991011      -0.55367276      -0.28175674
C        0.01688214      -1.87580971       0.35796468
C       -1.67924068       0.34701707      -0.52694227
O       -1.55303926       1.58217818       0.10364520
H        2.77893090       0.57126889       0.12789440
H        1.64988739       1.46507236      -0.93070035
H        1.89905469       2.01750959       0.73153016
H       -0.47475657       0.06100028      -1.25788562
H        0.95398215      -2.42685555       0.46069844
H       -0.62873838      -2.46839361      -0.29300817
H       -0.45493531      -1.77414210       1.34206560
H       -2.25823954       0.48379474      -1.44267359
H       -2.26606269      -0.35351712       0.08002465
H       -0.92149805       1.46447656       0.82530612
16
Frame=10 idx=004120 GeodesicLength=0.7766363548783061 rxn_smarts="[C:1]([O:2][C@@:3]([C:4]([H:11])([H:12])[H:13])([C:5]([O:6][H:16])([H:14])[H:15])[H:10])([H:7])([H:8])[H:9]>>[C:1]([O+:2]=[C-:3][C:4]([H:11])([H:12])[H:13])([H:7])([H:8])[H:9].[C:5]([O:6][H:16])([H:10])([H:14])[H:15]"
C        1.85663221       1.12148714       0.10171299
O        0.79078710       0.33208778       0.61217366
C        0.27528663      -0.54340501      -0.28046257
C        0.03321073      -1.87703540       0.34724302
C       -1.69282385       0.34811424      -0.51938687
O       -1.57338353       1.59735604       0.09073395
H        2.78506521       0.55630929       0.20404264
H        1.70894932       1.40398517      -0.94304902
H        1.88307376       2.03056118       0.70176275
H       -0.49360343       0.08776304      -1.27502714
H        0.97780874      -2.41900786       0.42635058
H       -0.61602940      -2.46862987      -0.30142255
H       -0.42529839      -1.79082866       1.33875788
H       -2.29352184       0.46490157      -1.42391616
H       -2.27565258      -0.33883290       0.10778454
H       -0.94050068       1.49517423       0.81270232
16
Frame=11 idx=004120 GeodesicLength=0.8518928719297232 rxn_smarts="[C:1]([O:2][C@@:3]([C:4]([H:11])([H:12])[H:13])([C:5]([O:6][H:16])([H:14])[H:15])[H:10])([H:7])([H:8])[H:9]>>[C:1]([O+:2]=[C-:3][C:4]([H:11])([H:12])[H:13])([H:7])([H:8])[H:9].[C:5]([O:6][H:16])([H:10])([H:14])[H:15]"
C        1.86685328       1.10591930       0.11081486
O        0.77998881       0.34064494       0.61302572
C        0.26077135      -0.53346440      -0.27878241
C        0.04975620      -1.87797125       0.33636049
C       -1.70588337       0.34953296      -0.51182355
O       -1.59430717       1.61184455       0.07914966
H        2.78794984       0.54466622       0.28058488
H        1.76780733       1.33874298      -0.95178293
H        1.86817009       2.04268679       0.66735116
H       -0.51256674       0.11548859      -1.29182593
H        1.00137509      -2.41041593       0.39178424
H       -0.60311734      -2.46870609      -0.30983518
H       -0.39507125      -1.80710644       1.33497429
H       -2.32693671       0.44720571      -1.40488378
H       -2.28503565      -0.32406367       0.13411760
H       -0.95975378       1.52499574       0.80077087
16
Frame=12 idx=004120 GeodesicLength=0.9268123784968026 rxn_smarts="[C:1]([O:2][C@@:3]([C:4]([H:11])([H:12])[H:13])([C:5]([O:6][H:16])([H:14])[H:15])[H:10])([H:7])([H:8])[H:9]>>[C:1]([O+:2]=[C-:3][C:4]([H:11])([H:12])[H:13])([H:7])([H:8])[H:9].[C:5]([O:6][H:16])([H:10])([H:14])[H:15]"
C        1.87656674       1.09004805       0.11973087
O        0.76963297       0.34902189       0.61396062
C        0.24638322      -0.52389451      -0.27667470
C        0.06647349      -1.87867163       0.32534470
C       -1.71837615       0.35128212      -0.50429167
O       -1.61569833       1.62568098       0.06898388
H        2.78768072       0.53682566       0.35717733
H        1.82618395       1.26942771      -0.95657413
H        1.85448717       2.05356795       0.62817779
H       -0.53158065       0.14421916      -1.30827053
H        1.02461019      -2.40116054       0.35702471
H       -0.59006290      -2.46867484      -0.31823023
H       -0.36429827      -1.82301891       1.33075933
H       -2.35843163       0.43078367      -1.38576584
H       -2.29430943      -0.30930060       0.15894050
H       -0.97926109       1.55386384       0.78970737
16
Frame=13 idx=004120 GeodesicLength=1.001400197401756 rxn_smarts="[C:1]([O:2][C@@:3]([C:4]([H:11])([H:12])[H:13])([C:5]([O:6][H:16])([H:14])[H:15])[H:10])([H:7])([H:8])[H:9]>>[C:1]([O+:2]=[C-:3][C:4]([H:11])([H:12])[H:13])([H:7])([H:8])[H:9].[C:5]([O:6][H:16])([H:10])([H:14])[H:15]"
C        1.88572249       1.07379495       0.12850708
O        0.75973895       0.35710993       0.61501657
C        0.23217186      -0.51471851      -0.27407887
C        0.08341429      -1.87908538       0.31418478
C       -1.73027437       0.35339982      -0.49681252
O       -1.63747778       1.63891191       0.06013104
H        2.78442117       0.53311464       0.43333894
H        1.88375002       1.19608428      -0.95689023
H        1.84192699       2.06261778       0.58420756
H       -0.55061855       0.17397729      -1.32427267
H        1.04755405      -2.39122547       0.32206524
H       -0.57681804      -2.46840486      -0.32659197
H       -0.33291216      -1.83851394       1.32603536
H       -2.38806770       0.41561708      -1.36662909
H       -2.30347144      -0.29443974       0.18228244
H       -0.99905976       1.58176024       0.77950634
16
Frame=14 idx=004120 GeodesicLength=1.0758147571774042 rxn_smarts="[C:1]([O:2][C@@:3]([C:4]([H:11])([H:12])[H:13])([C:5]([O:6][H:16])([H:14])[H:15])[H:10])([H:7])([H:8])[H:9]>>[C:1]([O+:2]=[C-:3][C:4]([H:11])([H:12])[H:13])([H:7])([H:8])[H:9].[C:5]([O:6][H:16])([H:10])([H:14])[H:15]"
C        1.89435148       1.05732144       0.13702856
O        0.75036930       0.36489276       0.61626985
C        0.21813897      -0.50600706      -0.27095649
C        0.10049107      -1.87936873       0.30293251
C       -1.74152241       0.35590417      -0.48943733
O       -1.65950227       1.65160903       0.05277890
H        2.77828282       0.53410169       0.50873906
H        1.94020512       1.11892777      -0.95252405
H        1.83069396       2.06959656       0.53531748
H       -0.56958801       0.20482834      -1.33986881
H        1.07008995      -2.38079476       0.28695765
H       -0.56347901      -2.46809231      -0.33492074
H       -0.30101842      -1.85373978       1.32091994
H       -2.41572835       0.40186860      -1.34774048
H       -2.31265496      -0.27966433       0.20400501
H       -1.01912924       1.60861662       0.77049895
16
Frame=15 idx=004120 GeodesicLength=1.150133466593732 rxn_smarts="[C:1]([O:2][C@@:3]([C:4]([H:11])([H:12])[H:13])([C:5]([O:6][H:16])([H:14])[H:15])[H:10])([H:7])([H:8])[H:9]>>[C:1]([O+:2]=[C-:3][C:4]([H:11])([H:12])[H:13])([H:7])([H:8])[H:9].[C:5]([O:6][H:16])([H:10])([H:14])[H:15]"
C        1.90243231       1.04062618       0.14530391
O        0.74153593       0.37229681       0.61778727
C        0.20430768      -0.49778863      -0.26724576
C        0.11770973      -1.87953933       0.29157387
C       -1.75208710       0.35882233      -0.48218207
O       -1.68166608       1.66382564       0.04689579
H        2.76942314       0.54022488       0.58295690
H        1.99528061       1.03807223      -0.94299761
H        1.82073975       2.07396536       0.48140882
H       -0.58844628       0.23682080      -1.35499684
H        1.09220767      -2.36990377       0.25166150
H       -0.55005304      -2.46770394      -0.34322975
H       -0.26859240      -1.86874075       1.31537678
H       -2.44143688       0.38955629      -1.32919924
H       -2.32188310      -0.26495973       0.22411739
H       -1.03947194       1.63442565       0.76276904
16
Frame=16 idx=004120 GeodesicLength=1.2244855188866943 rxn_smarts="[C:1]([O:2][C@@:3]([C:4]([H:11])([H:12])[H:13])([C:5]([O:6][H:16])([H:14])[H:15])[H:10])([H:7])([H:8])[H:9]>>[C:1]([O+:2]=[C-:3][C:4]([H:11])([H:12])[H:13])([H:7])([H:8])[H:9].[C:5]([O:6][H:16])([H:10])([H:14])[H:15]"
C        1.90995630       1.02374246       0.15330801
O        0.73325688       0.37925720       0.61964363
C        0.19069235      -0.49010060      -0.26288888
C        0.13505539      -1.87964771       0.28009555
C       -1.76193062       0.36218471      -0.47506191
O       -1.70385487       1.67561060       0.04251944
H        2.75798438       0.55202864       0.65560899
H        2.04875371       0.95363985      -0.92783803
H        1.81202249       2.07518077       0.42230457
H       -0.60713941       0.27002431      -1.36960725
H        1.11387212      -2.35861643       0.21612756
H       -0.53657342      -2.46725355      -0.35154229
H       -0.23563130      -1.88359881       1.30938960
H       -2.46518557       0.37875368      -1.31112891
H       -2.33119845      -0.25035997       0.24259027
H       -1.06007997       1.65915484       0.75647965
