16
Frame=0 idx=002078 GeodesicLength=0.0 rxn_smarts="[C:1]([C:2]([C:3]([H:11])([H:12])[H:13])([C:4]([C:5](=[O:6])[H:16])([H:14])[H:15])[H:10])([H:7])([H:8])[H:9]>>[C:1](=[C:2]([C:4]([C:5](=[O:6])[H:16])([H:14])[H:15])[H:10])([H:8])[H:9].[C:3]([H:7])([H:11])([H:12])[H:13]"
C       -1.07469590      -1.21124826      -0.57017676
C       -0.16229395      -0.11923712      -0.47713217
C       -1.16037493       1.60629369       0.26104396
C        0.93726536      -0.17684317       0.54459740
C        2.16067056      -0.87597329      -0.00037338
O        2.35424709      -1.11196110      -1.15890832
H       -1.36833735       0.12341104      -0.09250563
H       -1.13337139      -1.92387373       0.23982791
H       -1.58173831      -1.41373484      -1.50024239
H        0.08521617       0.39044450      -1.39926115
H       -0.49749817       2.37808727      -0.12628296
H       -2.16651990       1.74529881      -0.14914080
H       -1.18334019       1.60953115       1.35197937
H        1.26633191       0.81592336       0.86636237
H        0.60385485      -0.70037124       1.44475487
H        2.92058422      -1.13574701       0.76545767
16
Frame=1 idx=002078 GeodesicLength=0.09656507600024684 rxn_smarts="[C:1]([C:2]([C:3]([H:11])([H:12])[H:13])([C:4]([C:5](=[O:6])[H:16])([H:14])[H:15])[H:10])([H:7])([H:8])[H:9]>>[C:1](=[C:2]([C:4]([C:5](=[O:6])[H:16])([H:14])[H:15])[H:10])([H:8])[H:9].[C:3]([H:7])([H:11])([H:12])[H:13]"
C       -1.07493438      -1.20785623      -0.56804530
C       -0.16219248      -0.11614511      -0.47619598
C       -1.16849337       1.61057339       0.26488849
C        0.94153180      -0.17981809       0.54120688
C        2.16385048      -0.87971892      -0.00409483
O        2.34869743      -1.13303983      -1.16051822
H       -1.40349257       0.12963613      -0.09232490
H       -1.13893777      -1.91576439       0.24635480
H       -1.54274570      -1.43667346      -1.51283111
H        0.09284076       0.38290541      -1.40272783
H       -0.50310852       2.38569739      -0.11239720
H       -2.17139955       1.76929038      -0.14542674
H       -1.19236574       1.61126018       1.35593687
H        1.27178038       0.81290681       0.86281001
H        0.61063659      -0.70190414       1.44336032
H        2.92833262      -1.13134953       0.76000472
16
Frame=2 idx=002078 GeodesicLength=0.19277828094092286 rxn_smarts="[C:1]([C:2]([C:3]([H:11])([H:12])[H:13])([C:4]([C:5](=[O:6])[H:16])([H:14])[H:15])[H:10])([H:7])([H:8])[H:9]>>[C:1](=[C:2]([C:4]([C:5](=[O:6])[H:16])([H:14])[H:15])[H:10])([H:8])[H:9].[C:3]([H:7])([H:11])([H:12])[H:13]"
C       -1.07544665      -1.20379012      -0.56613218
C       -0.16158084      -0.11294051      -0.47576684
C       -1.17688108       1.61446876       0.26860784
C        0.94598958      -0.18280844       0.53758153
C        2.16718433      -0.88370165      -0.00785260
O        2.34355920      -1.15420514      -1.16185518
H       -1.43972904       0.13604713      -0.09294272
H       -1.14462755      -1.90693238       0.25266093
H       -1.50335725      -1.45952618      -1.52325056
H        0.10092031       0.37531203      -1.40659631
H       -0.50887821       2.39305938      -0.09786591
H       -2.17617804       1.79340739      -0.14157284
H       -1.20189748       1.61224918       1.35976545
H        1.27741350       0.80986839       0.85903998
H        0.61736459      -0.70338941       1.44166598
H        2.93614463      -1.12711842       0.75451344
16
Frame=3 idx=002078 GeodesicLength=0.2887501176101125 rxn_smarts="[C:1]([C:2]([C:3]([H:11])([H:12])[H:13])([C:4]([C:5](=[O:6])[H:16])([H:14])[H:15])[H:10])([H:7])([H:8])[H:9]>>[C:1](=[C:2]([C:4]([C:5](=[O:6])[H:16])([H:14])[H:15])[H:10])([H:8])[H:9].[C:3]([H:7])([H:11])([H:12])[H:13]"
C       -1.07622381      -1.19899518      -0.56446391
C       -0.16038839      -0.10962019      -0.47588406
C       -1.18555779       1.61792811       0.27217060
C        0.95067342      -0.18581370       0.53371771
C        2.17070913      -0.88793754      -0.01162482
O        2.33890328      -1.17545951      -1.16288796
H       -1.47712608       0.14261832      -0.09431748
H       -1.15042103      -1.89733063       0.25871964
H       -1.46380347      -1.48215137      -1.53143091
H        0.10952711       0.36766134      -1.41090242
H       -0.51485385       2.40011550      -0.08271093
H       -2.18086935       1.81758229      -0.13754646
H       -1.21193034       1.61246564       1.36343333
H        1.28325873       0.80681015       0.85504808
H        0.62404956      -0.70482278       1.43966366
H        2.94405287      -1.12305047       0.74901595
16
Frame=4 idx=002078 GeodesicLength=0.3846558459407985 rxn_smarts="[C:1]([C:2]([C:3]([H:11])([H:12])[H:13])([C:4]([C:5](=[O:6])[H:16])([H:14])[H:15])[H:10])([H:7])([H:8])[H:9]>>[C:1](=[C:2]([C:4]([C:5](=[O:6])[H:16])([H:14])[H:15])[H:10])([H:8])[H:9].[C:3]([H:7])([H:11])([H:12])[H:13]"
C       -1.07726399      -1.19338533      -0.56307120
C       -0.15852947      -0.10618391      -0.47659905
C       -1.19454534       1.62088840       0.27554094
C        0.95562599      -0.18883310       0.52961061
C        2.17446918      -0.89244748      -0.01537598
O        2.33482031      -1.19678846      -1.16360103
H       -1.51579383       0.14933090      -0.09637440
H       -1.15630085      -1.88689039       0.26449653
H       -1.42433720      -1.50442823      -1.53730312
H        0.11874491       0.35994437      -1.41569731
H       -0.52108409       2.40679629      -0.06695643
H       -2.18549313       1.84174012      -0.13330833
H       -1.22245559       1.61187201       1.36690409
H        1.28935258       0.80373631       0.85082824
H        0.63070146      -0.70619551       1.43734317
H        2.95208905      -1.11915600       0.74356328
16
Frame=5 idx=002078 GeodesicLength=0.4806390301069089 rxn_smarts="[C:1]([C:2]([C:3]([H:11])([H:12])[H:13])([C:4]([C:5](=[O:6])[H:16])([H:14])[H:15])[H:10])([H:7])([H:8])[H:9]>>[C:1](=[C:2]([C:4]([C:5](=[O:6])[H:16])([H:14])[H:15])[H:10])([H:8])[H:9].[C:3]([H:7])([H:11])([H:12])[H:13]"
C       -1.07856411      -1.18686860      -0.56197758
C       -0.15590741      -0.10264222      -0.47796006
C       -1.20386564       1.62327897       0.27867609
C        0.96089888      -0.19187209       0.52525680
C        2.17851699      -0.89725513      -0.01907103
O        2.33143088      -1.21814317      -1.16396555
H       -1.55584719       0.15617103      -0.09903081
H       -1.16228203      -1.87551576       0.26997376
H       -1.38525838      -1.52621543      -1.54082040
H        0.12866324       0.35213773      -1.42103015
H       -0.52762175       2.41302311      -0.05063902
H       -2.19007271       1.86578496      -0.12882264
H       -1.23345922       1.61042237       1.37013548
H        1.29573505       0.80064570       0.84637647
H        0.63734210      -0.70750726       1.43469347
H        2.96029131      -1.11544419       0.73820519
16
Frame=6 idx=002078 GeodesicLength=0.5767451815435964 rxn_smarts="[C:1]([C:2]([C:3]([H:11])([H:12])[H:13])([C:4]([C:5](=[O:6])[H:16])([H:14])[H:15])[H:10])([H:7])([H:8])[H:9]>>[C:1](=[C:2]([C:4]([C:5](=[O:6])[H:16])([H:14])[H:15])[H:10])([H:8])[H:9].[C:3]([H:7])([H:11])([H:12])[H:13]"
C       -1.08011203      -1.17935421      -0.56120448
C       -0.15243142      -0.09899032      -0.48000978
C       -1.21354485       1.62503635       0.28152974
C        0.96653863      -0.19492723       0.52065982
C        2.18290211      -0.90238352      -0.02266214
O        2.32881352      -1.23955176      -1.16394316
H       -1.59738422       0.16308348      -0.10213679
H       -1.16829727      -1.86317081       0.27509941
H       -1.34689913      -1.54729006      -1.54200022
H        0.13938100       0.34422548      -1.42694392
H       -0.53453910       2.41871811      -0.03384149
H       -2.19465362       1.88960418      -0.12403902
H       -1.24490289       1.60811005       1.37308334
H        1.30244624       0.79754591       0.84168959
H        0.64398337      -0.70874207       1.43171492
H        2.96869967      -1.11191358       0.73300419
16
Frame=7 idx=002078 GeodesicLength=0.6730031359409895 rxn_smarts="[C:1]([C:2]([C:3]([H:11])([H:12])[H:13])([C:4]([C:5](=[O:6])[H:16])([H:14])[H:15])[H:10])([H:7])([H:8])[H:9]>>[C:1](=[C:2]([C:4]([C:5](=[O:6])[H:16])([H:14])[H:15])[H:10])([H:8])[H:9].[C:3]([H:7])([H:11])([H:12])[H:13]"
C       -1.08190139      -1.17072753      -0.56076561
C       -0.14799430      -0.09522485      -0.48278933
C       -1.22361097       1.62608942       0.28404645
C        0.97259986      -0.19799946       0.51582470
C        2.18767628      -0.90786325      -0.02610026
O        2.32706876      -1.26102485      -1.16348126
H       -1.64050597       0.17000399      -0.10549863
H       -1.17430376      -1.84979912       0.27981450
H       -1.30961691      -1.56740174      -1.54087889
H        0.15101091       0.33618179      -1.43348191
H       -0.54192373       2.42380021      -0.01667577
H       -2.19929679       1.91305089      -0.11890628
H       -1.25673439       1.60493314       1.37569596
H        1.30953230       0.79443994       0.83676871
H        0.65064387      -0.70988853       1.42840430
H        2.97735621      -1.10857006       0.72802332
16
Frame=8 idx=002078 GeodesicLength=0.7695119914603611 rxn_smarts="[C:1]([C:2]([C:3]([H:11])([H:12])[H:13])([C:4]([C:5](=[O:6])[H:16])([H:14])[H:15])[H:10])([H:7])([H:8])[H:9]>>[C:1](=[C:2]([C:4]([C:5](=[O:6])[H:16])([H:14])[H:15])[H:10])([H:8])[H:9].[C:3]([H:7])([H:11])([H:12])[H:13]"
C       -1.08391876      -1.16086303      -0.56067781
C       -0.14247147      -0.09134150      -0.48630665
C       -1.23408902       1.62636907       0.28616186
C        0.97914629      -0.20108764       0.51076969
C        2.19288667      -0.91371876      -0.02932909
O        2.32626622      -1.28260677      -1.16251084
H       -1.68538187       0.17683859      -0.10890728
H       -1.18021008      -1.83536466       0.28405297
H       -1.27380544      -1.58626896      -1.53757161
H        0.16368277       0.32798756      -1.44065357
H       -0.54986297       2.42818852       0.00068533
H       -2.20408776       1.93596496      -0.11336503
H       -1.26886040       1.60091229       1.37793727
H        1.31704818       0.79133459       0.83162983
H        0.65735599      -0.71093551       1.42476249
H        2.98630166      -1.10540873       0.72332246
16
Frame=9 idx=002078 GeodesicLength=0.8663795403554994 rxn_smarts="[C:1]([C:2]([C:3]([H:11])([H:12])[H:13])([C:4]([C:5](=[O:6])[H:16])([H:14])[H:15])[H:10])([H:7])([H:8])[H:9]>>[C:1](=[C:2]([C:4]([C:5](=[O:6])[H:16])([H:14])[H:15])[H:10])([H:8])[H:9].[C:3]([H:7])([H:11])([H:12])[H:13]"
C       -1.08620687      -1.14951096      -0.56095102
C       -0.13586803      -0.08743132      -0.49072056
C       -1.24505918       1.62577074       0.28782332
C        0.98615591      -0.20420460       0.50545480
C        2.19854943      -0.92003025      -0.03224714
O        2.32653933      -1.30423409      -1.16113623
H       -1.73213646       0.18348902      -0.11152475
H       -1.18600331      -1.81982744       0.28764549
H       -1.23917383      -1.60349257      -1.53211892
H        0.17737097       0.31945144      -1.44864557
H       -0.55844167       2.43169477       0.01806016
H       -2.20905497       1.95830743      -0.10734683
H       -1.28121190       1.59617814       1.37968094
H        1.32499770       0.78822573       0.82617395
H        0.66402799      -0.71182927       1.42079493
H        2.99551489      -1.10255677       0.71905744
16
Frame=10 idx=002078 GeodesicLength=0.9633053831923426 rxn_smarts="[C:1]([C:2]([C:3]([H:11])([H:12])[H:13])([C:4]([C:5](=[O:6])[H:16])([H:14])[H:15])[H:10])([H:7])([H:8])[H:9]>>[C:1](=[C:2]([C:4]([C:5](=[O:6])[H:16])([H:14])[H:15])[H:10])([H:8])[H:9].[C:3]([H:7])([H:11])([H:12])[H:13]"
C       -1.08869837      -1.13663781      -0.56161785
C       -0.12797687      -0.08340129      -0.49593828
C       -1.25651771       1.62427127       0.28896568
C        0.99375072      -0.20734139       0.49994501
C        2.20474262      -0.92678371      -0.03482213
O        2.32790817      -1.32604344      -1.15914379
H       -1.78079858       0.18985035      -0.11348593
H       -1.19157390      -1.80314838       0.29058715
H       -1.20668583      -1.61885581      -1.52477037
H        0.19232842       0.31067496      -1.45734124
H       -0.56778859       2.43435496       0.03523484
H       -2.21435403       1.97975588      -0.10081092
H       -1.29366363       1.59070222       1.38095056
H        1.33347100       0.78512151       0.82050958
H        0.67077246      -0.71259509       1.41650590
H        3.00508413      -1.09992423       0.71523180
16
Frame=11 idx=002078 GeodesicLength=1.0601472903256206 rxn_smarts="[C:1]([C:2]([C:3]([H:11])([H:12])[H:13])([C:4]([C:5](=[O:6])[H:16])([H:14])[H:15])[H:10])([H:7])([H:8])[H:9]>>[C:1](=[C:2]([C:4]([C:5](=[O:6])[H:16])([H:14])[H:15])[H:10])([H:8])[H:9].[C:3]([H:7])([H:11])([H:12])[H:13]"
C       -1.09136863      -1.12209507      -0.56270023
C       -0.11873015      -0.07926724      -0.50201082
C       -1.26850236       1.62182715       0.28953681
C        1.00196098      -0.21050618       0.49425107
C        2.21151020      -0.93401506      -0.03697320
O        2.33046667      -1.34804717      -1.15649133
H       -1.83137589       0.19582234      -0.11425426
H       -1.19686606      -1.78531146       0.29276279
H       -1.17663616      -1.63202973      -1.51575915
H        0.20864466       0.30157907      -1.46679186
H       -0.57801930       2.43610409       0.05196549
H       -2.22009632       2.00010659      -0.09371874
H       -1.30609376       1.58459492       1.38168430
H        1.34249999       0.78201665       0.81463586
H        0.67757668      -0.71321972       1.41191157
H        3.01502946      -1.09755917       0.71195170
16
Frame=12 idx=002078 GeodesicLength=1.1567986102059507 rxn_smarts="[C:1]([C:2]([C:3]([H:11])([H:12])[H:13])([C:4]([C:5](=[O:6])[H:16])([H:14])[H:15])[H:10])([H:7])([H:8])[H:9]>>[C:1](=[C:2]([C:4]([C:5](=[O:6])[H:16])([H:14])[H:15])[H:10])([H:8])[H:9].[C:3]([H:7])([H:11])([H:12])[H:13]"
C       -1.09417874      -1.10575718      -0.56422081
C       -0.10805120      -0.07501857      -0.50895060
C       -1.28104905       1.61841255       0.28948284
C        1.01082349      -0.21370098       0.48840070
C        2.21888843      -0.94174832      -0.03861920
O        2.33424172      -1.37031730      -1.15311655
H       -1.88388840       0.20126061      -0.11330376
H       -1.20178470      -1.76633154       0.29406214
H       -1.14934556      -1.64269933      -1.50541945
H        0.22642108       0.29211665      -1.47700571
H       -0.58924476       2.43691281       0.06796541
H       -2.22641161       2.01916037      -0.08603787
H       -1.31835458       1.57798310       1.38184231
H        1.35212226       0.77891059       0.80857733
H        0.68444018      -0.71369047       1.40703407
H        3.02537142      -1.09549300       0.70930914
16
Frame=13 idx=002078 GeodesicLength=1.2531780115986157 rxn_smarts="[C:1]([C:2]([C:3]([H:11])([H:12])[H:13])([C:4]([C:5](=[O:6])[H:16])([H:14])[H:15])[H:10])([H:7])([H:8])[H:9]>>[C:1](=[C:2]([C:4]([C:5](=[O:6])[H:16])([H:14])[H:15])[H:10])([H:8])[H:9].[C:3]([H:7])([H:11])([H:12])[H:13]"
C       -1.09708248      -1.08749578      -0.56619836
C       -0.09588421      -0.07066583      -0.51675569
C       -1.29419101       1.61401726       0.28875186
C        1.02035789      -0.21693831       0.48242523
C        2.22690111      -0.95000769      -0.03968555
O        2.33927090      -1.39289253      -1.14894584
H       -1.93832157       0.20600575      -0.11000488
H       -1.20624724      -1.74625082       0.29434416
H       -1.12508324      -1.65052358      -1.49413520
H        0.24573710       0.28222076      -1.48797462
H       -0.60157296       2.43676292       0.08288748
H       -2.23344242       2.03671220      -0.07774767
H       -1.33026766       1.57104424       1.38138060
H        1.36235929       0.77579051       0.80236759
H        0.69135437      -0.71401092       1.40189638
H        3.03611213      -1.09376818       0.70739452
16
Frame=14 idx=002078 GeodesicLength=1.3492450796444697 rxn_smarts="[C:1]([C:2]([C:3]([H:11])([H:12])[H:13])([C:4]([C:5](=[O:6])[H:16])([H:14])[H:15])[H:10])([H:7])([H:8])[H:9]>>[C:1](=[C:2]([C:4]([C:5](=[O:6])[H:16])([H:14])[H:15])[H:10])([H:8])[H:9].[C:3]([H:7])([H:11])([H:12])[H:13]"
C       -1.10003787      -1.06719668      -0.56866625
C       -0.08217716      -0.06617913      -0.52541390
C       -1.30796364       1.60864769       0.28730592
C        1.03058015      -0.22021937       0.47635988
C        2.23555445      -0.95881594      -0.04009472
O        2.34552049      -1.41586454      -1.14390992
H       -1.99462845       0.20986793      -0.10373907
H       -1.21013949      -1.72512197       0.29348849
H       -1.10405733      -1.65520474      -1.48234743
H        0.26667185       0.27184150      -1.49967899
H       -0.61511523       2.43567744       0.09638386
H       -2.24134320       2.05256305      -0.06883853
H       -1.34164918       1.56396452       1.38028410
H        1.37324024       0.77264961       0.79604816
H        0.69830168      -0.71417129       1.39652371
H        3.04724269      -1.09243806       0.70629469
16
Frame=15 idx=002078 GeodesicLength=1.4450418018211708 rxn_smarts="[C:1]([C:2]([C:3]([H:11])([H:12])[H:13])([C:4]([C:5](=[O:6])[H:16])([H:14])[H:15])[H:10])([H:7])([H:8])[H:9]>>[C:1](=[C:2]([C:4]([C:5](=[O:6])[H:16])([H:14])[H:15])[H:10])([H:8])[H:9].[C:3]([H:7])([H:11])([H:12])[H:13]"
C       -1.10299173      -1.04475735      -0.57165325
C       -0.06690156      -0.06154397      -0.53489982
C       -1.32240041       1.60232494       0.28511209
C        1.04148958      -0.22355513       0.47024301
C        2.24484352      -0.96819082      -0.03977965
O        2.35295751      -1.43929323      -1.13793794
H       -2.05271790       0.21264385      -0.09381740
H       -1.21337333      -1.70301861       0.29135512
H       -1.08641196      -1.65645875      -1.47053098
H        0.28927833       0.26092811      -1.51207904
H       -0.62997082       2.43370021       0.10806975
H       -2.25026559       2.06653260      -0.05932108
H       -1.35230564       1.55696415       1.37853598
H        1.38477524       0.76946935       0.78967213
H        0.70525775      -0.71418008       1.39094077
H        3.05873700      -1.09156528       0.70609032
16
Frame=16 idx=002078 GeodesicLength=1.5406936070349457 rxn_smarts="[C:1]([C:2]([C:3]([H:11])([H:12])[H:13])([C:4]([C:5](=[O:6])[H:16])([H:14])[H:15])[H:10])([H:7])([H:8])[H:9]>>[C:1](=[C:2]([C:4]([C:5](=[O:6])[H:16])([H:14])[H:15])[H:10])([H:8])[H:9].[C:3]([H:7])([H:11])([H:12])[H:13]"
C       -1.10588070      -1.02010096      -0.57519310
C       -0.05005625      -0.05674012      -0.54517457
C       -1.33753731       1.59508996       0.28215335
C        1.05306779      -0.22695535       0.46411430
C        2.25474404      -0.97814340      -0.03868055
O        2.36150560      -1.46324044      -1.13097625
H       -2.11244365       0.21412614      -0.07957753
H       -1.21586732      -1.68002916       0.28781523
H       -1.07219010      -1.65405789      -1.45917738
H        0.31357550       0.24942802      -1.52511984
H       -0.64621785       2.43091164       0.11757341
H       -2.26035489       2.07847476      -0.04922235
H       -1.36204929       1.55027417       1.37614050
H        1.39696209       0.76622899       0.78329892
H        0.71218642      -0.71404836       1.38517484
H        3.07055592      -1.09121801       0.70685102
