15
Frame=0 idx=007368 GeodesicLength=0.0 rxn_smarts="[C:1]1([H:8])([H:9])[C:2]([H:10])([H:11])[C:3]12[C:4]([H:12])([H:13])[C@@:5]1([H:14])[O:6][C@@:7]21[H:15]>>[C:1]1([H:8])([H:9])[C:2]([H:10])([H:11])[C:3]12[C:4]([H:12])([H:13])[C:5]([H:14])([H:15])[O+:6]=[C-:7]2"
C       -1.51519809       0.21881314      -0.88012731
C       -1.63324500      -0.02948151       0.59530959
C       -0.29009291       0.11521269      -0.03531347
C        0.80750724      -0.93704631      -0.06914867
C        1.85659103       0.13335232       0.18318851
O        1.63018602       1.15844325      -0.72784650
C        0.57698842       1.35676070       0.21271511
H       -1.72130454      -0.60138611      -1.55623184
H       -1.78924678       1.19525443      -1.25863024
H       -1.97221214       0.78930840       1.21796718
H       -1.93836615      -1.01493439       0.92477353
H        0.71962372      -1.65151146       0.75001375
H        0.96477379      -1.47091422      -1.00798988
H        2.89860528      -0.00082488       0.46054853
H        1.40539010       0.73895401       1.19077170
15
Frame=1 idx=007368 GeodesicLength=0.05383601139236582 rxn_smarts="[C:1]1([H:8])([H:9])[C:2]([H:10])([H:11])[C:3]12[C:4]([H:12])([H:13])[C@@:5]1([H:14])[O:6][C@@:7]21[H:15]>>[C:1]1([H:8])([H:9])[C:2]([H:10])([H:11])[C:3]12[C:4]([H:12])([H:13])[C:5]([H:14])([H:15])[O+:6]=[C-:7]2"
C       -1.51579865       0.21766507      -0.88213712
C       -1.63690801      -0.03009813       0.59268000
C       -0.29184843       0.11574790      -0.03444573
C        0.80677408      -0.93631058      -0.06631563
C        1.85801762       0.13255436       0.18545954
O        1.62767808       1.16632526      -0.71997318
C        0.57477007       1.35349303       0.21597112
H       -1.71792307      -0.60331011      -1.55847313
H       -1.78876855       1.19395949      -1.26171384
H       -1.97825891       0.78812256       1.21470750
H       -1.94025416      -1.01615193       0.92194453
H        0.71840917      -1.64940752       0.75401347
H        0.96002819      -1.47221568      -1.00449408
H        2.90499951      -0.01143312       0.43669771
H        1.41908305       0.75105939       1.20607884
15
Frame=2 idx=007368 GeodesicLength=0.10767341850635985 rxn_smarts="[C:1]1([H:8])([H:9])[C:2]([H:10])([H:11])[C:3]12[C:4]([H:12])([H:13])[C@@:5]1([H:14])[O:6][C@@:7]21[H:15]>>[C:1]1([H:8])([H:9])[C:2]([H:10])([H:11])[C:3]12[C:4]([H:12])([H:13])[C:5]([H:14])([H:15])[O+:6]=[C-:7]2"
C       -1.51634824       0.21654590      -0.88417656
C       -1.64058858      -0.03077061       0.58999559
C       -0.29360523       0.11622850      -0.03356762
C        0.80604134      -0.93562816      -0.06340433
C        1.85948300       0.13169734       0.18781223
O        1.62512286       1.17415524      -0.71192440
C        0.57258370       1.35012286       0.21943785
H       -1.71446553      -0.60515555      -1.56078749
H       -1.78817206       1.19272977      -1.26477648
H       -1.98433597       0.78685058       1.21141542
H       -1.94219905      -1.01743099       0.91899766
H        0.71718572      -1.64729909       0.75813735
H        0.95528274      -1.47361924      -1.00086999
H        2.91083223      -0.02196664       0.41235513
H        1.43318307       0.76354007       1.22135564
15
Frame=3 idx=007368 GeodesicLength=0.1615123128843569 rxn_smarts="[C:1]1([H:8])([H:9])[C:2]([H:10])([H:11])[C:3]12[C:4]([H:12])([H:13])[C@@:5]1([H:14])[O:6][C@@:7]21[H:15]>>[C:1]1([H:8])([H:9])[C:2]([H:10])([H:11])[C:3]12[C:4]([H:12])([H:13])[C:5]([H:14])([H:15])[O+:6]=[C-:7]2"
C       -1.51684479       0.21545639      -0.88624545
C       -1.64428521      -0.03149946       0.58725588
C       -0.29536164       0.11665258      -0.03267862
C        0.80530900      -0.93500266      -0.06041674
C        1.86099022       0.13077565       0.19024625
O        1.62252091       1.18192761      -0.70369830
C        0.57043232       1.34664566       0.22311682
H       -1.71093098      -0.60692097      -1.56317508
H       -1.78745360       1.19156696      -1.26781669
H       -1.99044024       0.78549212       1.20809110
H       -1.94419973      -1.01877224       0.91593194
H        0.71595259      -1.64519101       0.76238179
H        0.95053537      -1.47512731      -0.99712023
H        2.91607533      -0.03240998       0.38753572
H        1.44770046       0.77640665       1.23659161
15
Frame=4 idx=007368 GeodesicLength=0.21535908286690414 rxn_smarts="[C:1]1([H:8])([H:9])[C:2]([H:10])([H:11])[C:3]12[C:4]([H:12])([H:13])[C@@:5]1([H:14])[O:6][C@@:7]21[H:15]>>[C:1]1([H:8])([H:9])[C:2]([H:10])([H:11])[C:3]12[C:4]([H:12])([H:13])[C:5]([H:14])([H:15])[O+:6]=[C-:7]2"
C       -1.51728889       0.21439759      -0.88834502
C       -1.64799881      -0.03228467       0.58446154
C       -0.29711654       0.11701814      -0.03177836
C        0.80457876      -0.93443821      -0.05735552
C        1.86254529       0.12978286       0.19276062
O        1.61987469       1.18963619      -0.69529476
C        0.56831927       1.34305654       0.22700966
H       -1.70732135      -0.60860464      -1.56563854
H       -1.78661303       1.19047309      -1.27083495
H       -1.99657190       0.78404756       1.20473696
H       -1.94625745      -1.02017576       0.91274818
H        0.71471111      -1.64308872       0.76674373
H        0.94578594      -1.47674275      -0.99324991
H        2.92070543      -0.04274660       0.36225925
H        1.46264747       0.78966938       1.25177712
15
Frame=5 idx=007368 GeodesicLength=0.26920120786485285 rxn_smarts="[C:1]1([H:8])([H:9])[C:2]([H:10])([H:11])[C:3]12[C:4]([H:12])([H:13])[C@@:5]1([H:14])[O:6][C@@:7]21[H:15]>>[C:1]1([H:8])([H:9])[C:2]([H:10])([H:11])[C:3]12[C:4]([H:12])([H:13])[C:5]([H:14])([H:15])[O+:6]=[C-:7]2"
C       -1.51767504       0.21336996      -0.89047148
C       -1.65171967      -0.03312667       0.58161118
C       -0.29886660       0.11732333      -0.03086922
C        0.80384729      -0.93393896      -0.05422681
C        1.86414461       0.12871254       0.19535203
O        1.61718276       1.19727412      -0.68671307
C        0.56624702       1.33935169       0.23111059
H       -1.70363446      -0.61020609      -1.56817081
H       -1.78564422       1.18944962      -1.27382381
H       -2.00271561       0.78251682       1.20135137
H       -1.94836121      -1.02164229       0.90944496
H        0.71345712      -1.64099952       0.77121118
H        0.94102833      -1.47846677      -0.98926346
H        2.92468252      -0.05295826       0.33656456
H        1.47802718       0.80334049       1.26689279
15
Frame=6 idx=007368 GeodesicLength=0.32304905820597557 rxn_smarts="[C:1]1([H:8])([H:9])[C:2]([H:10])([H:11])[C:3]12[C:4]([H:12])([H:13])[C@@:5]1([H:14])[O:6][C@@:7]21[H:15]>>[C:1]1([H:8])([H:9])[C:2]([H:10])([H:11])[C:3]12[C:4]([H:12])([H:13])[C:5]([H:14])([H:15])[O+:6]=[C-:7]2"
C       -1.51801754       0.21237295      -0.89262776
C       -1.65544815      -0.03402206       0.57871143
C       -0.30061066       0.11756529      -0.02996365
C        0.80312055      -0.93351013      -0.05104951
C        1.86579917       0.12755485       0.19802026
O        1.61446598       1.20482613      -0.67796443
C        0.56422218       1.33552627       0.23539885
H       -1.69989646      -0.61172696      -1.57077281
H       -1.78456700       1.18849547      -1.27678586
H       -2.00885860       0.78090533       1.19795028
H       -1.95050794      -1.02316574       0.90604113
H        0.71219366      -1.63893740       0.77576123
H        0.93627141      -1.48029448      -0.98519003
H        2.92799535      -0.06302079       0.31054530
H        1.49383805       0.81743127       1.28192557
15
Frame=7 idx=007368 GeodesicLength=0.37685892677508104 rxn_smarts="[C:1]1([H:8])([H:9])[C:2]([H:10])([H:11])[C:3]12[C:4]([H:12])([H:13])[C@@:5]1([H:14])[O:6][C@@:7]21[H:15]>>[C:1]1([H:8])([H:9])[C:2]([H:10])([H:11])[C:3]12[C:4]([H:12])([H:13])[C:5]([H:14])([H:15])[O+:6]=[C-:7]2"
C       -1.51828261       0.21140667      -0.89480224
C       -1.65917092      -0.03497885       0.57574910
C       -0.30234416       0.11774203      -0.02904387
C        0.80238063      -0.93315179      -0.04780569
C        1.86748972       0.12631083       0.20075832
O        1.61169363       1.21230035      -0.66902709
C        0.56224609       1.33157303       0.23990255
H       -1.69606496      -0.61316247      -1.57343027
H       -1.78332880       1.18761143      -1.27970538
H       -2.01499403       0.77920129       1.19450438
H       -1.95269326      -1.02475652       0.90250574
H        0.71090215      -1.63689513       0.78040616
H        0.93148592      -1.48223237      -0.98099355
H        2.93058419      -0.07291794       0.28413126
H        1.51009641       0.83194946       1.29685058
15
Frame=8 idx=007368 GeodesicLength=0.4306923374403544 rxn_smarts="[C:1]1([H:8])([H:9])[C:2]([H:10])([H:11])[C:3]12[C:4]([H:12])([H:13])[C@@:5]1([H:14])[O:6][C@@:7]21[H:15]>>[C:1]1([H:8])([H:9])[C:2]([H:10])([H:11])[C:3]12[C:4]([H:12])([H:13])[C:5]([H:14])([H:15])[O+:6]=[C-:7]2"
C       -1.51849902       0.21047578      -0.89700746
C       -1.66290532      -0.03599124       0.57273653
C       -0.30407044       0.11785275      -0.02811743
C        0.80164592      -0.93287326      -0.04451060
C        1.86924462       0.12496679       0.20356016
O        1.60888703       1.21968262      -0.65992138
C        0.56032118       1.32748920       0.24461003
H       -1.69217182      -0.61450976      -1.57616597
H       -1.78197446       1.18680497      -1.28259595
H       -2.02114237       0.77741382       1.19104178
H       -1.95492902      -1.02640940       0.89885810
H        0.70960544      -1.63488665       0.78513968
H        0.92669287      -1.48428766      -0.97670804
H        2.93247293      -0.08263656       0.25741481
H        1.52682247       0.84690859       1.31166573
15
Frame=9 idx=007368 GeodesicLength=0.4845263899138574 rxn_smarts="[C:1]1([H:8])([H:9])[C:2]([H:10])([H:11])[C:3]12[C:4]([H:12])([H:13])[C@@:5]1([H:14])[O:6][C@@:7]21[H:15]>>[C:1]1([H:8])([H:9])[C:2]([H:10])([H:11])[C:3]12[C:4]([H:12])([H:13])[C:5]([H:14])([H:15])[O+:6]=[C-:7]2"
C       -1.51865713       0.20957991      -0.89923693
C       -1.66664088      -0.03706166       0.56967075
C       -0.30578616       0.11789512      -0.02718416
C        0.80090843      -0.93267737      -0.04116916
C        1.87105618       0.12351775       0.20641786
O        1.60604182       1.22696815      -0.65064497
C        0.55845154       1.32326894       0.24951828
H       -1.68821080      -0.61576745      -1.57896954
H       -1.78048911       1.18607554      -1.28544693
H       -2.02728683       0.77553923       1.18755677
H       -1.95720653      -1.02812653       0.89509291
H        0.70829399      -1.63291672       0.78994983
H        0.92187900      -1.48645979      -0.97233389
H        2.93362692      -0.09215517       0.23043504
H        1.54401958       0.86232005       1.32634415
15
Frame=10 idx=007368 GeodesicLength=0.5383605928789014 rxn_smarts="[C:1]1([H:8])([H:9])[C:2]([H:10])([H:11])[C:3]12[C:4]([H:12])([H:13])[C@@:5]1([H:14])[O:6][C@@:7]21[H:15]>>[C:1]1([H:8])([H:9])[C:2]([H:10])([H:11])[C:3]12[C:4]([H:12])([H:13])[C:5]([H:14])([H:15])[O+:6]=[C-:7]2"
C       -1.51875658       0.20872061      -0.90148911
C       -1.67037557      -0.03819076       0.56655230
C       -0.30749018       0.11786681      -0.02624442
C        0.80016654      -0.93256938      -0.03778728
C        1.87292531       0.12195617       0.20932317
O        1.60315800       1.23415030      -0.64120076
C        0.55664015       1.31890673       0.25462463
H       -1.68418395      -0.61693263      -1.58184014
H       -1.77887120       1.18542582      -1.28825418
H       -2.03342219       0.77357678       1.18405167
H       -1.95952445      -1.02990889       0.89120954
H        0.70696650      -1.63099258       0.79482856
H        0.91703928      -1.48875177      -0.96787790
H        2.93403163      -0.10145262       0.20323938
H        1.56169670       0.87819541       1.34086455
15
Frame=11 idx=007368 GeodesicLength=0.5921955291797483 rxn_smarts="[C:1]1([H:8])([H:9])[C:2]([H:10])([H:11])[C:3]12[C:4]([H:12])([H:13])[C@@:5]1([H:14])[O:6][C@@:7]21[H:15]>>[C:1]1([H:8])([H:9])[C:2]([H:10])([H:11])[C:3]12[C:4]([H:12])([H:13])[C:5]([H:14])([H:15])[O+:6]=[C-:7]2"
C       -1.51879752       0.20789936      -0.90376256
C       -1.67410766      -0.03937920       0.56338189
C       -0.30918161       0.11776586      -0.02529846
C        0.79941861      -0.93255417      -0.03437111
C        1.87485267       0.12027498       0.21226737
O        1.60023560       1.24122288      -0.63159168
C        0.55488954       1.31439739       0.25992630
H       -1.68009347      -0.61800239      -1.58477737
H       -1.77712030       1.18485822      -1.29101352
H       -2.03954393       0.77152553       1.18052927
H       -1.96188143      -1.03175747       0.88720728
H        0.70562210      -1.62912104       0.79976772
H        0.91216883      -1.49116614      -0.96334738
H        2.93367623      -0.11051095       0.17587727
H        1.57986238       0.89454715       1.35520498
15
Frame=12 idx=007368 GeodesicLength=0.6460315396381723 rxn_smarts="[C:1]1([H:8])([H:9])[C:2]([H:10])([H:11])[C:3]12[C:4]([H:12])([H:13])[C@@:5]1([H:14])[O:6][C@@:7]21[H:15]>>[C:1]1([H:8])([H:9])[C:2]([H:10])([H:11])[C:3]12[C:4]([H:12])([H:13])[C:5]([H:14])([H:15])[O+:6]=[C-:7]2"
C       -1.51878060       0.20711777      -0.90605561
C       -1.67783546      -0.04062767       0.56016044
C       -0.31085980       0.11759029      -0.02434675
C        0.79866272      -0.93263675      -0.03092743
C        1.87683823       0.11846703       0.21524124
O        1.59727484       1.24817945      -0.62182109
C        0.55320201       1.30973583       0.26541950
H       -1.67594225      -0.61897371      -1.58778061
H       -1.77523675       1.18437526      -1.29372026
H       -2.04564733       0.76938445       1.17699276
H       -1.96427617      -1.03367333       0.88308551
H        0.70425956      -1.62730933       0.80475826
H        0.90726256      -1.49370515      -0.95875040
H        2.93255436      -0.11931260       0.14840229
H        1.59852409       0.91138845       1.36934216
15
Frame=13 idx=007368 GeodesicLength=0.6998693183801252 rxn_smarts="[C:1]1([H:8])([H:9])[C:2]([H:10])([H:11])[C:3]12[C:4]([H:12])([H:13])[C@@:5]1([H:14])[O:6][C@@:7]21[H:15]>>[C:1]1([H:8])([H:9])[C:2]([H:10])([H:11])[C:3]12[C:4]([H:12])([H:13])[C:5]([H:14])([H:15])[O+:6]=[C-:7]2"
C       -1.51870647       0.20637763      -0.90836657
C       -1.68155788      -0.04193700       0.55688878
C       -0.31252440       0.11733820      -0.02338921
C        0.79789674      -0.93282215      -0.02746254
C        1.87888152       0.11652536       0.21823515
O        1.59427536       1.25501400      -0.61189196
C        0.55157944       1.30491697       0.27110117
H       -1.67173264      -0.61984308      -1.59084970
H       -1.77322077       1.18397972      -1.29636967
H       -2.05172874       0.76715222       1.17344526
H       -1.96670814      -1.03565778       0.87884300
H        0.70287772      -1.62556449       0.80979190
H        0.90231516      -1.49637119      -0.95409449
H        2.93066406      -0.12784127       0.12086670
H        1.61768905       0.92873286       1.38325217
15
Frame=14 idx=007368 GeodesicLength=0.7537096089697484 rxn_smarts="[C:1]1([H:8])([H:9])[C:2]([H:10])([H:11])[C:3]12[C:4]([H:12])([H:13])[C@@:5]1([H:14])[O:6][C@@:7]21[H:15]>>[C:1]1([H:8])([H:9])[C:2]([H:10])([H:11])[C:3]12[C:4]([H:12])([H:13])[C:5]([H:14])([H:15])[O+:6]=[C-:7]2"
C       -1.51857600       0.20568079      -0.91069367
C       -1.68527401      -0.04330812       0.55356777
C       -0.31417529       0.11700782      -0.02242567
C        0.79711835      -0.93311520      -0.02398281
C        1.88098146       0.11444332       0.22123976
O        1.59123695       1.26172076      -0.60180683
C        0.55002327       1.29993597       0.27696795
H       -1.66746705      -0.62060691      -1.59398449
H       -1.77107316       1.18367433      -1.29895670
H       -2.05778482       0.76482729       1.16989004
H       -1.96917694      -1.03771229       0.87447832
H        0.70147518      -1.62389356       0.81486014
H        0.89732150      -1.49916620      -0.94938732
H        2.92800728      -0.13608313       0.09332301
H        1.63736327       0.94659511       1.39691049
15
Frame=15 idx=007368 GeodesicLength=0.8075535376689156 rxn_smarts="[C:1]1([H:8])([H:9])[C:2]([H:10])([H:11])[C:3]12[C:4]([H:12])([H:13])[C@@:5]1([H:14])[O:6][C@@:7]21[H:15]>>[C:1]1([H:8])([H:9])[C:2]([H:10])([H:11])[C:3]12[C:4]([H:12])([H:13])[C:5]([H:14])([H:15])[O+:6]=[C-:7]2"
C       -1.51838965       0.20502928      -0.91303519
C       -1.68898378      -0.04474211       0.55019797
C       -0.31581267       0.11659732      -0.02145497
C        0.79632506      -0.93352079      -0.02049341
C        1.88313663       0.11221445       0.22424565
O        1.58815835       1.26829458      -0.59156701
C        0.54853440       1.29478780       0.28301834
H       -1.66314667      -0.62126111      -1.59718545
H       -1.76879359       1.18346212      -1.30147650
H       -2.06381384       0.76240783       1.16632978
H       -1.97168338      -1.03983855       0.86998903
H        0.70005058      -1.62230314       0.81995611
H        0.89227608      -1.50209254      -0.94463512
H        2.92458971      -0.14402523       0.06581827
H        1.65755279       0.96499008       1.41029252
15
Frame=16 idx=007368 GeodesicLength=0.861401788647472 rxn_smarts="[C:1]1([H:8])([H:9])[C:2]([H:10])([H:11])[C:3]12[C:4]([H:12])([H:13])[C@@:5]1([H:14])[O:6][C@@:7]21[H:15]>>[C:1]1([H:8])([H:9])[C:2]([H:10])([H:11])[C:3]12[C:4]([H:12])([H:13])[C:5]([H:14])([H:15])[O+:6]=[C-:7]2"
C       -1.51814877       0.20442499      -0.91538917
C       -1.69268661      -0.04623981       0.54678045
C       -0.31743678       0.11610518      -0.02047690
C        0.79551436      -0.93404351      -0.01700103
C        1.88534486       0.10983246       0.22724462
O        1.58504009       1.27472979      -0.58117389
C        0.54711351       1.28946808       0.28924824
H       -1.65877429      -0.62180208      -1.60045224
H       -1.76638389       1.18334569      -1.30392377
H       -2.06981295       0.75989224       1.16276802
H       -1.97422717      -1.04203797       0.86537392
H        0.69860206      -1.62080094       0.82507031
H        0.88717445      -1.50515085      -0.93984641
H        2.92042088      -0.15165803       0.03840473
H        1.67826027       0.98393474       1.42337312
