16
Frame=0 idx=010355 GeodesicLength=0.0 rxn_smarts="[C:1]([C:2]1([C:3]([H:11])([H:12])[H:13])[C:4]([H:14])([H:15])[O:5]/[C:6]1=[N:7]\[H:16])([H:8])([H:9])[H:10]>>[C:1](=[C:2]1[C:3]([H:11])([H:13])/[C:6](=[N:7]/[H:16])[O:5][C:4]1([H:14])[H:15])([H:8])[H:9].[H:10][H:12]"
C       -1.10985266      -0.19445364       1.20922120
C       -0.31358672       0.05212973       0.08396359
C        0.19759328      -1.07003214      -0.67752490
C       -0.36853210       1.34633547      -0.70336412
O        1.07162533       1.51689960      -0.71898033
C        1.33215744       0.43957815       0.06258584
N        2.34325896       0.09557177       0.69672503
H       -0.87849975      -1.05431808       1.82711696
H       -1.57895750       0.63693485       1.72317085
H       -1.86291690      -1.37623464       0.11377489
H        0.67049726      -1.88369516      -0.14566103
H       -1.43453999      -1.77304190      -0.50834681
H        0.44302153      -0.96147324      -1.72787687
H       -0.83949163       2.16155330      -0.15630675
H       -0.76051968       1.27972599      -1.71956766
H        3.08874320       0.78451999       0.64107008
16
Frame=1 idx=010355 GeodesicLength=0.07509299389435023 rxn_smarts="[C:1]([C:2]1([C:3]([H:11])([H:12])[H:13])[C:4]([H:14])([H:15])[O:5]/[C:6]1=[N:7]\[H:16])([H:8])([H:9])[H:10]>>[C:1](=[C:2]1[C:3]([H:11])([H:13])/[C:6](=[N:7]/[H:16])[O:5][C:4]1([H:14])[H:15])([H:8])[H:9].[H:10][H:12]"
C       -1.12532401      -0.19766888       1.20462211
C       -0.31472559       0.05450831       0.09016793
C        0.20148348      -1.06736952      -0.67438707
C       -0.36446541       1.35203652      -0.69236872
O        1.07540995       1.51984857      -0.70880951
C        1.34129510       0.43267176       0.05854508
N        2.35872834       0.09328755       0.68634813
H       -0.87208343      -1.03016462       1.85080500
H       -1.63814386       0.62562937       1.68936461
H       -1.86513549      -1.38896192       0.12428449
H        0.67444882      -1.88332405      -0.14496644
H       -1.42725640      -1.78238790      -0.51749975
H        0.43952380      -0.96493736      -1.72703850
H       -0.83162077       2.16848176      -0.14363322
H       -0.75815188       1.28972541      -1.70824505
H        3.10601736       0.77862499       0.61281091
16
Frame=2 idx=010355 GeodesicLength=0.14983145485069466 rxn_smarts="[C:1]([C:2]1([C:3]([H:11])([H:12])[H:13])[C:4]([H:14])([H:15])[O:5]/[C:6]1=[N:7]\[H:16])([H:8])([H:9])[H:10]>>[C:1](=[C:2]1[C:3]([H:11])([H:13])/[C:6](=[N:7]/[H:16])[O:5][C:4]1([H:14])[H:15])([H:8])[H:9].[H:10][H:12]"
C       -1.14081841      -0.20098180       1.19981194
C       -0.31573368       0.05680826       0.09663427
C        0.20536662      -1.06471698      -0.67105678
C       -0.36039272       1.35763517      -0.68092882
O        1.07915712       1.52274870      -0.69830899
C        1.35049514       0.42579715       0.05437924
N        2.37446370       0.09102248       0.67531345
H       -0.86701672      -1.00369111       1.87463274
H       -1.69588615       0.61243373       1.65404311
H       -1.86754879      -1.40159268       0.13479479
H        0.67829972      -1.88289527      -0.14400444
H       -1.41974841      -1.79174445      -0.52700746
H        0.43600598      -0.96847881      -1.72587801
H       -0.82376099       2.17505076      -0.13027952
H       -0.75586028       1.29968712      -1.69640471
H        3.12297785       0.77291772       0.58425917
16
Frame=3 idx=010355 GeodesicLength=0.22458364591399813 rxn_smarts="[C:1]([C:2]1([C:3]([H:11])([H:12])[H:13])[C:4]([H:14])([H:15])[O:5]/[C:6]1=[N:7]\[H:16])([H:8])([H:9])[H:10]>>[C:1](=[C:2]1[C:3]([H:11])([H:13])/[C:6](=[N:7]/[H:16])[O:5][C:4]1([H:14])[H:15])([H:8])[H:9].[H:10][H:12]"
C       -1.15633307      -0.20442784       1.19489681
C       -0.31661359       0.05898513       0.10334667
C        0.20925898      -1.06217944      -0.66762940
C       -0.35633083       1.36317964      -0.66912087
O        1.08288646       1.52561938      -0.68761112
C        1.35979351       0.41887537       0.04995730
N        2.39055473       0.08859432       0.66339192
H       -0.86353237      -0.97498902       1.89863120
H       -1.75177584       0.59761038       1.61756028
H       -1.87019525      -1.41421091       0.14545577
H        0.68207920      -1.88259855      -0.14286329
H       -1.41208019      -1.80109084      -0.53697260
H        0.43252107      -0.97217427      -1.72455820
H       -0.81597394       2.18135974      -0.11628761
H       -0.75366247       1.30969555      -1.68416015
H        3.13940361       0.76775135       0.55596329
16
Frame=4 idx=010355 GeodesicLength=0.29926322366645597 rxn_smarts="[C:1]([C:2]1([C:3]([H:11])([H:12])[H:13])[C:4]([H:14])([H:15])[O:5]/[C:6]1=[N:7]\[H:16])([H:8])([H:9])[H:10]>>[C:1](=[C:2]1[C:3]([H:11])([H:13])/[C:6](=[N:7]/[H:16])[O:5][C:4]1([H:14])[H:15])([H:8])[H:9].[H:10][H:12]"
C       -1.17193882      -0.20805089       1.18981751
C       -0.31741126       0.06103432       0.11032839
C        0.21320129      -1.05971330      -0.66404029
C       -0.35231606       1.36864096      -0.65690352
O        1.08655075       1.52849951      -0.67654932
C        1.36912341       0.41198830       0.04543727
N        2.40689381       0.08613291       0.65079089
H       -0.86182934      -0.94400779       1.92263980
H       -1.80568162       0.58125639       1.58003333
H       -1.87309633      -1.42684208       0.15616999
H        0.68583272      -1.88235218      -0.14146293
H       -1.40416142      -1.81047370      -0.54746308
H        0.42917825      -0.97597000      -1.72297538
H       -0.80836016       2.18734686      -0.10166552
H       -0.75152116       1.31970419      -1.67148441
H        3.15553594       0.76280649       0.52732727
16
Frame=5 idx=010355 GeodesicLength=0.3738707777228071 rxn_smarts="[C:1]([C:2]1([C:3]([H:11])([H:12])[H:13])[C:4]([H:14])([H:15])[O:5]/[C:6]1=[N:7]\[H:16])([H:8])([H:9])[H:10]>>[C:1](=[C:2]1[C:3]([H:11])([H:13])/[C:6](=[N:7]/[H:16])[O:5][C:4]1([H:14])[H:15])([H:8])[H:9].[H:10][H:12]"
C       -1.18766470      -0.21189209       1.18456679
C       -0.31815951       0.06294548       0.11759821
C        0.21723213      -1.05730248      -0.66025903
C       -0.34837629       1.37400804      -0.64425654
O        1.09011587       1.53142323      -0.66501395
C        1.37843970       0.40518502       0.04092356
N        2.42341759       0.08370603       0.63762323
H       -0.86210476      -0.91073496       1.94653552
H       -1.85749318       0.56350885       1.54161139
H       -1.87626109      -1.43952142       0.16691022
H        0.68960710      -1.88212778      -0.13976195
H       -1.39591728      -1.81991581      -0.55854824
H        0.42607921      -0.97983661      -1.72108860
H       -0.80100532       2.19298918      -0.08642369
H       -0.74940396       1.32969512      -1.65838095
H        3.17149448       0.75787019       0.49796403
16
Frame=6 idx=010355 GeodesicLength=0.44843203666582526 rxn_smarts="[C:1]([C:2]1([C:3]([H:11])([H:12])[H:13])[C:4]([H:14])([H:15])[O:5]/[C:6]1=[N:7]\[H:16])([H:8])([H:9])[H:10]>>[C:1](=[C:2]1[C:3]([H:11])([H:13])/[C:6](=[N:7]/[H:16])[O:5][C:4]1([H:14])[H:15])([H:8])[H:9].[H:10][H:12]"
C       -1.20348078      -0.21598550       1.17915599
C       -0.31887136       0.06469378       0.12515928
C        0.22135857      -1.05495096      -0.65628917
C       -0.34452094       1.37925346      -0.63117057
O        1.09357295       1.53437479      -0.65296154
C        1.38772889       0.39846151       0.03643974
N        2.44012170       0.08130389       0.62385806
H       -0.86449956      -0.87516421       1.97018271
H       -1.90707330       0.54453095       1.50243794
H       -1.87969180      -1.45228374       0.17773510
H        0.69341917      -1.88192812      -0.13777559
H       -1.38733126      -1.82939453      -0.57030026
H        0.42326181      -0.98376727      -1.71889468
H       -0.79393730       2.19825802      -0.07057036
H       -0.74730221       1.33964516      -1.64484254
H        3.18724542       0.75295277       0.46783589
16
Frame=7 idx=010355 GeodesicLength=0.5229047094215458 rxn_smarts="[C:1]([C:2]1([C:3]([H:11])([H:12])[H:13])[C:4]([H:14])([H:15])[O:5]/[C:6]1=[N:7]\[H:16])([H:8])([H:9])[H:10]>>[C:1](=[C:2]1[C:3]([H:11])([H:13])/[C:6](=[N:7]/[H:16])[O:5][C:4]1([H:14])[H:15])([H:8])[H:9].[H:10][H:12]"
C       -1.21919068      -0.22035261       1.17365171
C       -0.31951496       0.06622484       0.13294510
C        0.22548992      -1.05274208      -0.65224928
C       -0.34072103       1.38432190      -0.61773161
O        1.09696180       1.53723518      -0.64059128
C        1.39703726       0.39170067       0.03176922
N        2.45705166       0.07877128       0.60923462
H       -0.86895821      -0.83744006       1.99336970
H       -1.95397735       0.52459059       1.46293432
H       -1.88351235      -1.46500151       0.18870532
H        0.69720502      -1.88186144      -0.13567194
H       -1.37850910      -1.83891675      -0.58267933
H        0.42055759      -0.98785725      -1.71653507
H       -0.78704781       2.20313604      -0.05417810
H       -0.74527714       1.34950109      -1.63092572
H        3.20240538       0.74869010       0.43795234
16
Frame=8 idx=010355 GeodesicLength=0.5972683264883615 rxn_smarts="[C:1]([C:2]1([C:3]([H:11])([H:12])[H:13])[C:4]([H:14])([H:15])[O:5]/[C:6]1=[N:7]\[H:16])([H:8])([H:9])[H:10]>>[C:1](=[C:2]1[C:3]([H:11])([H:13])/[C:6](=[N:7]/[H:16])[O:5][C:4]1([H:14])[H:15])([H:8])[H:9].[H:10][H:12]"
C       -1.23459337      -0.22499452       1.16814164
C       -0.32004852       0.06747961       0.14089398
C        0.22954578      -1.05074508      -0.64826226
C       -0.33693846       1.38912561      -0.60401870
O        1.10031485       1.53984879      -0.62810636
C        1.40639730       0.38476428       0.02666953
N        2.47422505       0.07591469       0.59343228
H       -0.87541843      -0.79772233       2.01588658
H       -1.99785099       0.50398666       1.42349854
H       -1.88780474      -1.47755458       0.19995823
H        0.70089612      -1.88201213      -0.13363575
H       -1.36954938      -1.84840707      -0.59568543
H        0.41781745      -0.99218916      -1.71414711
H       -0.78022227       2.20756404      -0.03731561
H       -0.74336895       1.35917819      -1.61666692
H        3.21659856       0.74576299       0.40935738
16
Frame=9 idx=010355 GeodesicLength=0.67150810850201 rxn_smarts="[C:1]([C:2]1([C:3]([H:11])([H:12])[H:13])[C:4]([H:14])([H:15])[O:5]/[C:6]1=[N:7]\[H:16])([H:8])([H:9])[H:10]>>[C:1](=[C:2]1[C:3]([H:11])([H:13])/[C:6](=[N:7]/[H:16])[O:5][C:4]1([H:14])[H:15])([H:8])[H:9].[H:10][H:12]"
C       -1.24952366      -0.22991029       1.16270049
C       -0.32044470       0.06841753       0.14894743
C        0.23343807      -1.04902550      -0.64443111
C       -0.33313849       1.39363452      -0.59009208
O        1.10368022       1.54212198      -0.61567295
C        1.41584672       0.37755893       0.02095572
N        2.49167280       0.07257960       0.57622051
H       -0.88370496      -0.75606763       2.03757095
H       -2.03860849       0.48289699       1.38435017
H       -1.89262226      -1.48992319       0.21165268
H        0.70442388      -1.88247408      -0.13181683
H       -1.36057846      -1.85787398      -0.60932083
H        0.41487354      -0.99683010      -1.71184468
H       -0.77332688       2.21154853      -0.02002364
H       -0.74163859       1.36866069      -1.60209239
H        3.22965127       0.74468600       0.38289655
16
Frame=10 idx=010355 GeodesicLength=0.7456614831444257 rxn_smarts="[C:1]([C:2]1([C:3]([H:11])([H:12])[H:13])[C:4]([H:14])([H:15])[O:5]/[C:6]1=[N:7]\[H:16])([H:8])([H:9])[H:10]>>[C:1](=[C:2]1[C:3]([H:11])([H:13])/[C:6](=[N:7]/[H:16])[O:5][C:4]1([H:14])[H:15])([H:8])[H:9].[H:10][H:12]"
C       -1.26398930      -0.23509739       1.15738652
C       -0.32072524       0.06904397       0.15712925
C        0.23721685      -1.04755523      -0.64072119
C       -0.32933886       1.39784924      -0.57593815
O        1.10703719       1.54408868      -0.60320852
C        1.42534838       0.37014036       0.01471407
N        2.50932529       0.06883995       0.55770235
H       -0.89393365      -0.71256088       2.05827378
H       -2.07644120       0.46142588       1.34556288
H       -1.89795010      -1.50214646       0.22387578
H        0.70784777      -1.88320817      -0.13017122
H       -1.35152068      -1.86729416      -0.62366069
H        0.41183837      -1.00174044      -1.70958661
H       -0.76642563       2.21508906      -0.00232137
H       -0.74005320       1.37793825      -1.58720645
H        3.24176402       0.74518735       0.35816957
16
Frame=11 idx=010355 GeodesicLength=0.8197999686735181 rxn_smarts="[C:1]([C:2]1([C:3]([H:11])([H:12])[H:13])[C:4]([H:14])([H:15])[O:5]/[C:6]1=[N:7]\[H:16])([H:8])([H:9])[H:10]>>[C:1](=[C:2]1[C:3]([H:11])([H:13])/[C:6](=[N:7]/[H:16])[O:5][C:4]1([H:14])[H:15])([H:8])[H:9].[H:10][H:12]"
C       -1.27797126      -0.24054109       1.15228153
C       -0.32090371       0.06936012       0.16544128
C        0.24090878      -1.04632862      -0.63713737
C       -0.32555466       1.40177949      -0.56157613
O        1.11038720       1.54575867      -0.59071508
C        1.43489789       0.36252772       0.00795600
N        2.52716064       0.06471709       0.53790759
H       -0.90614160      -0.66731089       2.07786181
H       -2.11150641       0.43967934       1.30724795
H       -1.90378478      -1.51425237       0.23676651
H        0.71121653      -1.88421449      -0.12869838
H       -1.34235307      -1.87664337      -0.63876754
H        0.40876998      -1.00690393      -1.70739000
H       -0.75955140       2.21820843       0.01575901
H       -0.73861976       1.38702041      -1.57204307
H        3.25304563       0.74714348       0.33510589
16
Frame=12 idx=010355 GeodesicLength=0.8937730680728165 rxn_smarts="[C:1]([C:2]1([C:3]([H:11])([H:12])[H:13])[C:4]([H:14])([H:15])[O:5]/[C:6]1=[N:7]\[H:16])([H:8])([H:9])[H:10]>>[C:1](=[C:2]1[C:3]([H:11])([H:13])/[C:6](=[N:7]/[H:16])[O:5][C:4]1([H:14])[H:15])([H:8])[H:9].[H:10][H:12]"
C       -1.29135499      -0.24620600       1.14739731
C       -0.32095086       0.06935769       0.17387934
C        0.24445767      -1.04533852      -0.63366587
C       -0.32173476       1.40537667      -0.54698673
O        1.11373035       1.54710552      -0.57817234
C        1.44444824       0.35474636       0.00066078
N        2.54510663       0.06025553       0.51669690
H       -0.92034014      -0.62040088       2.09606390
H       -2.14376781       0.41774293       1.26939462
H       -1.91006953      -1.52631714       0.25053736
H        0.71444829      -1.88545646      -0.12742210
H       -1.33310156      -1.88585538      -0.65472487
H        0.40559716      -1.01232961      -1.70519116
H       -0.75258746       2.22086660       0.03419767
H       -0.73730607       1.39582408      -1.55653191
H        3.26342482       0.75062860       0.31386710
16
Frame=13 idx=010355 GeodesicLength=0.9677883334975538 rxn_smarts="[C:1]([C:2]1([C:3]([H:11])([H:12])[H:13])[C:4]([H:14])([H:15])[O:5]/[C:6]1=[N:7]\[H:16])([H:8])([H:9])[H:10]>>[C:1](=[C:2]1[C:3]([H:11])([H:13])/[C:6](=[N:7]/[H:16])[O:5][C:4]1([H:14])[H:15])([H:8])[H:9].[H:10][H:12]"
C       -1.30439925      -0.25208602       1.14279392
C       -0.32098432       0.06910325       0.18252777
C        0.24806215      -1.04446468      -0.63016001
C       -0.31797664       1.40874754      -0.53210159
O        1.11702248       1.54830636      -0.56527077
C        1.45394949       0.34697515      -0.00679247
N        2.56308395       0.05571772       0.49461134
H       -0.93684623      -0.57188190       2.11282546
H       -2.17384528       0.39551201       1.23187700
H       -1.91671066      -1.53847671       0.26527051
H        0.71776947      -1.88680358      -0.12610081
H       -1.32352287      -1.89490626      -0.67166059
H        0.40275316      -1.01784557      -1.70286557
H       -0.74583911       2.22313676       0.05302117
H       -0.73601987       1.40447428      -1.54071631
H        3.27350353       0.75449165       0.29274094
16
Frame=14 idx=010355 GeodesicLength=1.0417541774163743 rxn_smarts="[C:1]([C:2]1([C:3]([H:11])([H:12])[H:13])[C:4]([H:14])([H:15])[O:5]/[C:6]1=[N:7]\[H:16])([H:8])([H:9])[H:10]>>[C:1](=[C:2]1[C:3]([H:11])([H:13])/[C:6](=[N:7]/[H:16])[O:5][C:4]1([H:14])[H:15])([H:8])[H:9].[H:10][H:12]"
C       -1.31720132      -0.25814586       1.13843929
C       -0.32105381       0.06863803       0.19145871
C        0.25177842      -1.04363507      -0.62648148
C       -0.31428131       1.41193623      -0.51679661
O        1.12022997       1.54946451      -0.55169247
C        1.46331756       0.33934900      -0.01408932
N        2.58098499       0.05130468       0.47192572
H       -0.95590290      -0.52171622       2.12792536
H       -2.20202061       0.37289005       1.19441813
H       -1.92357048      -1.55091686       0.28109299
H        0.72120466      -1.88815454      -0.12456378
H       -1.31344987      -1.90378307      -0.68970746
H        0.40042114      -1.02336858      -1.70023892
H       -0.73936604       2.22505065       0.07230770
H       -0.73464831       1.41300216      -1.52450601
H        3.28355789       0.75808487       0.27050815
16
Frame=15 idx=010355 GeodesicLength=1.1156782770890725 rxn_smarts="[C:1]([C:2]1([C:3]([H:11])([H:12])[H:13])[C:4]([H:14])([H:15])[O:5]/[C:6]1=[N:7]\[H:16])([H:8])([H:9])[H:10]>>[C:1](=[C:2]1[C:3]([H:11])([H:13])/[C:6](=[N:7]/[H:16])[O:5][C:4]1([H:14])[H:15])([H:8])[H:9].[H:10][H:12]"
C       -1.32938722      -0.26426194       1.13450217
C       -0.32103005       0.06789432       0.20050897
C        0.25537113      -1.04300481      -0.62291992
C       -0.31054171       1.41483772      -0.50130339
O        1.12346795       1.55028906      -0.53806121
C        1.47266347       0.33158415      -0.02189004
N        2.59894244       0.04657049       0.44773834
H       -0.97703735      -0.47027174       2.14114478
H       -2.22781632       0.35021296       1.15749524
H       -1.93069415      -1.56352942       0.29855953
H        0.72453713      -1.88971636      -0.12321311
H       -1.30325096      -1.91231708      -0.70884510
H        0.39813168      -1.02910396      -1.69763759
H       -0.73279954       2.22659492       0.09188418
H       -0.73336336       1.42130482      -1.50800992
H        3.29280685       0.76291686       0.25004707
16
Frame=16 idx=010355 GeodesicLength=1.1896377105129978 rxn_smarts="[C:1]([C:2]1([C:3]([H:11])([H:12])[H:13])[C:4]([H:14])([H:15])[O:5]/[C:6]1=[N:7]\[H:16])([H:8])([H:9])[H:10]>>[C:1](=[C:2]1[C:3]([H:11])([H:13])/[C:6](=[N:7]/[H:16])[O:5][C:4]1([H:14])[H:15])([H:8])[H:9].[H:10][H:12]"
C       -1.34120583      -0.27041420       1.13096508
C       -0.32101832       0.06693862       0.20976448
C        0.25896483      -1.04245173      -0.61930557
C       -0.30680178       1.41755498      -0.48550849
O        1.12671826       1.55095595      -0.52400265
C        1.48192565       0.32386411      -0.02978304
N        2.61685621       0.04180077       0.42256963
H       -1.00057866      -0.41756209       2.15232571
H       -2.25173564       0.32727649       1.12079220
H       -1.93792072      -1.57656118       0.31788609
H        0.72787729      -1.89134911      -0.12179928
H       -1.29273339      -1.92045850      -0.72924599
H        0.39622303      -1.03487701      -1.69488087
H       -0.72633034       2.22783459       0.11181546
H       -0.73203319       1.42950254      -1.49120003
H        3.30179262       0.76794578       0.22960729
