17
Frame=0 idx=007107 GeodesicLength=0.0 rxn_smarts="[C:1]([C@@:2]1([H:11])[C:3]([H:12])([H:13])[O:4][C@:5]([C:6]([H:15])([H:16])[H:17])([H:14])[O:7]1)([H:8])([H:9])[H:10]>>[C:1]([C@@:2]1([H:11])[C-:3]([H:13])[O+:4]=[C:5]([H:14])[O:7]1)([H:8])([H:9])[H:10].[C:6]([H:12])([H:15])([H:16])[H:17]"
C        1.83137952       0.52920491      -0.67900029
C        1.12251932      -0.65629145      -0.07285030
C        0.35878602      -0.36962439       1.20627876
O       -0.72187599      -1.30563657       1.11913962
C       -1.03658437      -1.23352841      -0.12594087
C       -1.71961629       0.99082068       0.00805789
O       -0.00683424      -1.07221957      -0.93421116
H        2.26568205       0.27208626      -1.64558939
H        2.63809631       0.84168121      -0.01278504
H        1.14213344       1.36331515      -0.80658222
H        1.79463159      -1.52559202      -0.03866793
H       -0.60544357       0.60453870       0.68109814
H        0.87676286      -0.47726877       2.15254301
H       -1.93722984      -1.69169774      -0.50814406
H       -1.46261887       2.04195254       0.18145019
H       -1.88830757       0.89433200      -1.06576931
H       -2.65148030       0.79392743       0.54097300
17
Frame=1 idx=007107 GeodesicLength=0.07519615784796799 rxn_smarts="[C:1]([C@@:2]1([H:11])[C:3]([H:12])([H:13])[O:4][C@:5]([C:6]([H:15])([H:16])[H:17])([H:14])[O:7]1)([H:8])([H:9])[H:10]>>[C:1]([C@@:2]1([H:11])[C-:3]([H:13])[O+:4]=[C:5]([H:14])[O:7]1)([H:8])([H:9])[H:10].[C:6]([H:12])([H:15])([H:16])[H:17]"
C        1.84488209       0.52408197      -0.67782366
C        1.12480839      -0.65602844      -0.07462512
C        0.36640513      -0.36539967       1.20793815
O       -0.71915309      -1.29830093       1.11867541
C       -1.03897266      -1.21889288      -0.12773618
C       -1.73744620       0.98699657       0.00545248
O       -0.00758217      -1.05770284      -0.93659467
H        2.27620517       0.26556972      -1.64540020
H        2.65467939       0.82708489      -0.01099210
H        1.16321627       1.36492423      -0.80246971
H        1.78794485      -1.53251349      -0.04321153
H       -0.59923832       0.62890155       0.70085213
H        0.88872658      -0.49016339       2.15007448
H       -1.92865276      -1.70069386      -0.50754363
H       -1.49224894       2.04235219       0.16815953
H       -1.91704439       0.89257004      -1.06705601
H       -2.66652934       0.78721434       0.54230063
17
Frame=2 idx=007107 GeodesicLength=0.15030293918709925 rxn_smarts="[C:1]([C@@:2]1([H:11])[C:3]([H:12])([H:13])[O:4][C@:5]([C:6]([H:15])([H:16])[H:17])([H:14])[O:7]1)([H:8])([H:9])[H:10]>>[C:1]([C@@:2]1([H:11])[C-:3]([H:13])[O+:4]=[C:5]([H:14])[O:7]1)([H:8])([H:9])[H:10].[C:6]([H:12])([H:15])([H:16])[H:17]"
C        1.85849860       0.51878669      -0.67671624
C        1.12703327      -0.65565782      -0.07642180
C        0.37385920      -0.36087099       1.20944819
O       -0.71647872      -1.29078286       1.11808521
C       -1.04133444      -1.20430860      -0.12966445
C       -1.75539967       0.98303326       0.00293608
O       -0.00825167      -1.04292613      -0.93902035
H        2.28685957       0.25878088      -1.64523409
H        2.67129915       0.81217805      -0.00926085
H        1.18468885       1.36643023      -0.79851003
H        1.78100797      -1.53930282      -0.04765198
H       -0.59308783       0.65346171       0.72063887
H        0.90018935      -0.50254021       2.14733945
H       -1.91948334      -1.70939671      -0.50712794
H       -1.52170167       2.04220830       0.15549557
H       -1.94607420       0.89057816      -1.06811977
H       -2.68162444       0.78032885       0.54378414
17
Frame=3 idx=007107 GeodesicLength=0.22532121021580778 rxn_smarts="[C:1]([C@@:2]1([H:11])[C:3]([H:12])([H:13])[O:4][C@:5]([C:6]([H:15])([H:16])[H:17])([H:14])[O:7]1)([H:8])([H:9])[H:10]>>[C:1]([C@@:2]1([H:11])[C-:3]([H:13])[O+:4]=[C:5]([H:14])[O:7]1)([H:8])([H:9])[H:10].[C:6]([H:12])([H:15])([H:16])[H:17]"
C        1.87223434       0.51331263      -0.67567521
C        1.12919654      -0.65517861      -0.07824401
C        0.38116022      -0.35603976       1.21081150
O       -0.71385280      -1.28307263       1.11737003
C       -1.04366965      -1.18976829      -0.13172944
C       -1.77351491       0.97891789       0.00049210
O       -0.00884452      -1.02787065      -0.94148884
H        2.29764285       0.25171599      -1.64509205
H        2.68796042       0.79694179      -0.00758754
H        1.20656620       1.36782697      -0.79469058
H        1.77381538      -1.54596126      -0.05200150
H       -0.58696192       0.67822761       0.74047836
H        0.91116570      -0.51438517       2.14435438
H       -1.90973609      -1.71777951      -0.50690378
H       -1.55098582       2.04152798       0.14345882
H       -1.97538772       0.88834450      -1.06897115
H       -2.69678821       0.77324052       0.54541891
17
Frame=4 idx=007107 GeodesicLength=0.3002635296139917 rxn_smarts="[C:1]([C@@:2]1([H:11])[C:3]([H:12])([H:13])[O:4][C@:5]([C:6]([H:15])([H:16])[H:17])([H:14])[O:7]1)([H:8])([H:9])[H:10]>>[C:1]([C@@:2]1([H:11])[C-:3]([H:13])[O+:4]=[C:5]([H:14])[O:7]1)([H:8])([H:9])[H:10].[C:6]([H:12])([H:15])([H:16])[H:17]"
C        1.88609612       0.50765400      -0.67469676
C        1.13129995      -0.65458852      -0.08009505
C        0.38832063      -0.35090759       1.21203135
O       -0.71127546      -1.27515912       1.11653185
C       -1.04597864      -1.17526228      -0.13393366
C       -1.79183001       0.97463539      -0.00189775
O       -0.00936309      -1.01251474      -0.94399942
H        2.30855249       0.24437188      -1.64497485
H        2.70467005       0.78135678      -0.00596824
H        1.22886345       1.36910903      -0.79099611
H        1.76635904      -1.55248877      -0.05627384
H       -0.58082560       0.70320994       0.76039837
H        0.92167302      -0.52569310       2.14113501
H       -1.89942394      -1.72581580      -0.50687798
H       -1.58011204       2.04031638       0.13203888
H       -2.00498389       0.88585436      -1.06962546
H       -2.71204205       0.76592217       0.54720365
17
Frame=5 idx=007107 GeodesicLength=0.3751105137638034 rxn_smarts="[C:1]([C@@:2]1([H:11])[C:3]([H:12])([H:13])[O:4][C@:5]([C:6]([H:15])([H:16])[H:17])([H:14])[O:7]1)([H:8])([H:9])[H:10]>>[C:1]([C@@:2]1([H:11])[C-:3]([H:13])[O+:4]=[C:5]([H:14])[O:7]1)([H:8])([H:9])[H:10].[C:6]([H:12])([H:15])([H:16])[H:17]"
C        1.90008563       0.50180483      -0.67377885
C        1.13334387      -0.65388510      -0.08197845
C        0.39534898      -0.34547252       1.21310868
O       -0.70874675      -1.26703254       1.11557211
C       -1.04826191      -1.16078440      -0.13628082
C       -1.81037335       0.97016940      -0.00424607
O       -0.00980885      -0.99684003      -0.94655149
H        2.31958275       0.23674473      -1.64488376
H        2.72142805       0.76540673      -0.00440082
H        1.25159280       1.37027003      -0.78741642
H        1.75863188      -1.55888259      -0.06048004
H       -0.57465022       0.72841451       0.78042993
H        0.93172524      -0.53645234       2.13769443
H       -1.88856281      -1.73348366      -0.50705683
H       -1.60908721       2.03857774       0.12123617
H       -2.03484493       0.88309739      -1.07009497
H       -2.72740317       0.75834783       0.54912721
17
Frame=6 idx=007107 GeodesicLength=0.4498963585450202 rxn_smarts="[C:1]([C@@:2]1([H:11])[C:3]([H:12])([H:13])[O:4][C@:5]([C:6]([H:15])([H:16])[H:17])([H:14])[O:7]1)([H:8])([H:9])[H:10]>>[C:1]([C@@:2]1([H:11])[C-:3]([H:13])[O+:4]=[C:5]([H:14])[O:7]1)([H:8])([H:9])[H:10].[C:6]([H:12])([H:15])([H:16])[H:17]"
C        1.91420817       0.49576011      -0.67291724
C        1.13532967      -0.65306436      -0.08389747
C        0.40226041      -0.33973898       1.21404871
O       -0.70626883      -1.25867740       1.11449515
C       -1.05052056      -1.14631942      -0.13877054
C       -1.82918428       0.96550063      -0.00657439
O       -0.01018529      -0.98081996      -0.94914173
H        2.33072685       0.22883501      -1.64482068
H        2.73824026       0.74906902      -0.00288267
H        1.27477008       1.37130524      -0.78393149
H        1.75062321      -1.56514195      -0.06463785
H       -0.56839256       0.75386174       0.80061368
H        0.94134436      -0.54667005       2.13404763
H       -1.87716088      -1.74076234      -0.50744275
H       -1.63791818       2.03631351       0.11103034
H       -2.06497526       0.88005784      -1.07040048
H       -2.74289715       0.75049136       0.55118179
17
Frame=7 idx=007107 GeodesicLength=0.5246172303594345 rxn_smarts="[C:1]([C@@:2]1([H:11])[C:3]([H:12])([H:13])[O:4][C@:5]([C:6]([H:15])([H:16])[H:17])([H:14])[O:7]1)([H:8])([H:9])[H:10]>>[C:1]([C@@:2]1([H:11])[C-:3]([H:13])[O+:4]=[C:5]([H:14])[O:7]1)([H:8])([H:9])[H:10].[C:6]([H:12])([H:15])([H:16])[H:17]"
C        1.92846352       0.48951444      -0.67210888
C        1.13725740      -0.65212328      -0.08585561
C        0.40906725      -0.33370911       1.21485533
O       -0.70384155      -1.25008259       1.11330573
C       -1.05275475      -1.13185742      -0.14140215
C       -1.84829040       0.96060949      -0.00889750
O       -0.01049613      -0.96443222      -0.95176587
H        2.34197475       0.22064228      -1.64478754
H        2.75510602       0.73232536      -0.00141228
H        1.29840684       1.37220794      -0.78052705
H        1.74232419      -1.57126256      -0.06876262
H       -0.56201598       0.77956531       0.82099058
H        0.95055017      -0.55634730       2.13020751
H       -1.86523160      -1.74763155      -0.50803870
H       -1.66661510       2.03352735       0.10140999
H       -2.09536052       0.87672533      -1.07056265
H       -2.75854409       0.74232853       0.55335172
17
Frame=8 idx=007107 GeodesicLength=0.599286434534194 rxn_smarts="[C:1]([C@@:2]1([H:11])[C:3]([H:12])([H:13])[O:4][C@:5]([C:6]([H:15])([H:16])[H:17])([H:14])[O:7]1)([H:8])([H:9])[H:10]>>[C:1]([C@@:2]1([H:11])[C-:3]([H:13])[O+:4]=[C:5]([H:14])[O:7]1)([H:8])([H:9])[H:10].[C:6]([H:12])([H:15])([H:16])[H:17]"
C        1.94285408       0.48306310      -0.67135105
C        1.13912642      -0.65105621      -0.08785558
C        0.41578090      -0.32738310       1.21553276
O       -0.70146738      -1.24123184       1.11200818
C       -1.05496666      -1.11738323      -0.14417534
C       -1.86772368       0.95547446      -0.01123320
O       -0.01074410      -0.94765049      -0.95441881
H        2.35331765       0.21216610      -1.64478678
H        2.77202535       0.71515586       0.00001138
H        1.32251635       1.37297184      -0.77718677
H        1.73372288      -1.57723913      -0.07286938
H       -0.55547678       0.80554182       0.84160990
H        0.95936294      -0.56549331       2.12618510
H       -1.85278136      -1.75407156      -0.50884694
H       -1.69517786       2.03021507       0.09235573
H       -2.12600166       0.87308504      -1.07060508
H       -2.77436709       0.73383558       0.55562589
17
Frame=9 idx=007107 GeodesicLength=0.6739197333866651 rxn_smarts="[C:1]([C@@:2]1([H:11])[C:3]([H:12])([H:13])[O:4][C@:5]([C:6]([H:15])([H:16])[H:17])([H:14])[O:7]1)([H:8])([H:9])[H:10]>>[C:1]([C@@:2]1([H:11])[C-:3]([H:13])[O+:4]=[C:5]([H:14])[O:7]1)([H:8])([H:9])[H:10].[C:6]([H:12])([H:15])([H:16])[H:17]"
C        1.95737374       0.47640010      -0.67064311
C        1.14093454      -0.64985969      -0.08990035
C        0.42241297      -0.32076172       1.21608549
O       -0.69915148      -1.23210563       1.11060942
C       -1.05715878      -1.10288618      -0.14708901
C       -1.88751214       0.95007203      -0.01360213
O       -0.01093383      -0.93045245      -0.95709389
H        2.36473944       0.20340766      -1.64482314
H        2.78898838       0.69754824       0.00138661
H        1.34710165       1.37359267      -0.77389735
H        1.72480657      -1.58306796      -0.07697321
H       -0.54872094       0.83181136       0.86252943
H        0.96779847      -0.57411800       2.12199150
H       -1.83981526      -1.76006626      -0.50986510
H       -1.72360526       2.02636693       0.08386120
H       -2.15687218       0.86913027      -1.07055743
H       -2.79038589       0.72498861       0.55798107
17
Frame=10 idx=007107 GeodesicLength=0.7485232279273384 rxn_smarts="[C:1]([C@@:2]1([H:11])[C:3]([H:12])([H:13])[O:4][C@:5]([C:6]([H:15])([H:16])[H:17])([H:14])[O:7]1)([H:8])([H:9])[H:10]>>[C:1]([C@@:2]1([H:11])[C-:3]([H:13])[O+:4]=[C:5]([H:14])[O:7]1)([H:8])([H:9])[H:10].[C:6]([H:12])([H:15])([H:16])[H:17]"
C        1.97202468       0.46952309      -0.66998004
C        1.14268219      -0.64852594      -0.09199190
C        0.42897888      -0.31385053       1.21652153
O       -0.69689378      -1.22269082       1.10911658
C       -1.05933145      -1.08834799      -0.15013816
C       -1.90768292       0.94437908      -0.01601952
O       -0.01106668      -0.91280709      -0.95978266
H        2.37622629       0.19437129      -1.64489911
H        2.80599940       0.67947593       0.00271282
H        1.37217827       1.37406012      -0.77063864
H        1.71556502      -1.58873947      -0.08109332
H       -0.54170453       0.85839193       0.88380652
H        0.97588335      -0.58223671       2.11763733
H       -1.82634567      -1.76559406      -0.51109495
H       -1.75190040       2.02198358       0.07588944
H       -2.18798662       0.86484219      -1.07044709
H       -2.80662602       0.71576541       0.56040118
17
Frame=11 idx=007107 GeodesicLength=0.823102575216725 rxn_smarts="[C:1]([C@@:2]1([H:11])[C:3]([H:12])([H:13])[O:4][C@:5]([C:6]([H:15])([H:16])[H:17])([H:14])[O:7]1)([H:8])([H:9])[H:10]>>[C:1]([C@@:2]1([H:11])[C-:3]([H:13])[O+:4]=[C:5]([H:14])[O:7]1)([H:8])([H:9])[H:10].[C:6]([H:12])([H:15])([H:16])[H:17]"
C        1.98680230       0.46242597      -0.66936144
C        1.14436646      -0.64704866      -0.09413231
C        0.43549123      -0.30665237       1.21684699
O       -0.69469798      -1.21296827       1.10753736
C       -1.06148673      -1.07375183      -0.15331939
C       -1.92826116       0.93837027      -0.01850497
O       -0.01114694      -0.89468966      -0.96247472
H        2.38776107       0.18505852      -1.64502046
H        2.82304942       0.66092214       0.00398674
H        1.39775278       1.37436509      -0.76739626
H        1.70598741      -1.59424422      -0.08524619
H       -0.53437258       0.88530648       0.90550341
H        0.98363627      -0.58986396       2.11313202
H       -1.81237647      -1.77063905      -0.51253320
H       -1.78006135       2.01705621       0.06842848
H       -2.21933058       0.86021175      -1.07030202
H       -2.82311315       0.70614160       0.56285596
17
Frame=12 idx=007107 GeodesicLength=0.8976570274644798 rxn_smarts="[C:1]([C@@:2]1([H:11])[C:3]([H:12])([H:13])[O:4][C@:5]([C:6]([H:15])([H:16])[H:17])([H:14])[O:7]1)([H:8])([H:9])[H:10]>>[C:1]([C@@:2]1([H:11])[C-:3]([H:13])[O+:4]=[C:5]([H:14])[O:7]1)([H:8])([H:9])[H:10].[C:6]([H:12])([H:15])([H:16])[H:17]"
C        2.00169947       0.45510668      -0.66878592
C        1.14598530      -0.64541995      -0.09632305
C        0.44196384      -0.29917104       1.21707008
O       -0.69256702      -1.20291984       1.10588155
C       -1.06362645      -1.05908200      -0.15662633
C       -1.94926801       0.93202044      -0.02107340
O       -0.01117780      -0.87607250      -0.96515810
H        2.39932317       0.17547558      -1.64519240
H        2.84012907       0.64186946       0.00520414
H        1.42383267       1.37449749      -0.76415334
H        1.69606008      -1.59957213      -0.08944923
H       -0.52666758       0.91257365       0.92769156
H        0.99107951      -0.59702165       2.10848415
H       -1.79791335      -1.77518259      -0.51417651
H       -1.80808224       2.01157777       0.06144685
H       -2.25089994       0.85522576      -1.07015987
H       -2.83987072       0.69609488       0.56531983
17
Frame=13 idx=007107 GeodesicLength=0.9721828972073723 rxn_smarts="[C:1]([C@@:2]1([H:11])[C:3]([H:12])([H:13])[O:4][C@:5]([C:6]([H:15])([H:16])[H:17])([H:14])[O:7]1)([H:8])([H:9])[H:10]>>[C:1]([C@@:2]1([H:11])[C-:3]([H:13])[O+:4]=[C:5]([H:14])[O:7]1)([H:8])([H:9])[H:10].[C:6]([H:12])([H:15])([H:16])[H:17]"
C        2.01670588       0.44756106      -0.66825447
C        1.14753513      -0.64363233      -0.09856559
C        0.44841018      -0.29141022       1.21719936
O       -0.69050635      -1.19252463       1.10415958
C       -1.06575337      -1.04432284      -0.16005278
C       -1.97072440       0.92530133      -0.02374610
O       -0.01116205      -0.85692963      -0.96781930
H        2.41088782       0.16562767      -1.64542317
H        2.85722349       0.62230118       0.00635893
H        1.45041763       1.37444649      -0.76089690
H        1.68577154      -1.60471264      -0.09371897
H       -0.51852884       0.94021720       0.95044163
H        0.99823240      -0.60372622       2.10370249
H       -1.78296067      -1.77920979      -0.51601799
H       -1.83595503       2.00553432       0.05493363
H       -2.28266872       0.84987857      -1.07005383
H       -2.85692464       0.68560048       0.56775349
17
Frame=14 idx=007107 GeodesicLength=1.0466825710702898 rxn_smarts="[C:1]([C@@:2]1([H:11])[C:3]([H:12])([H:13])[O:4][C@:5]([C:6]([H:15])([H:16])[H:17])([H:14])[O:7]1)([H:8])([H:9])[H:10]>>[C:1]([C@@:2]1([H:11])[C-:3]([H:13])[O+:4]=[C:5]([H:14])[O:7]1)([H:8])([H:9])[H:10].[C:6]([H:12])([H:15])([H:16])[H:17]"
C        2.03181335       0.43978548      -0.66776751
C        1.14901330      -0.64167735      -0.10086041
C        0.45484515      -0.28337510       1.21724594
O       -0.68851965      -1.18176256       1.10238343
C       -1.06786978      -1.02945617      -0.16358962
C       -1.99264938       0.91818605      -0.02653954
O       -0.01110429      -0.83723237      -0.97044224
H        2.42243036       0.15552205      -1.64572143
H        2.87432208       0.60220008       0.00744316
H        1.47751483       1.37420062      -0.75760975
H        1.67510842      -1.60965108      -0.09807431
H       -0.50988897       0.96826129       0.97383901
H        1.00511693      -0.61000509       2.09879527
H       -1.76752010      -1.78270199      -0.51805148
H       -1.86366882       1.99891518       0.04885533
H       -2.31463833       0.84415685      -1.07002893
H       -2.87430510       0.67463414       0.57012307
17
Frame=15 idx=007107 GeodesicLength=1.1211406640714638 rxn_smarts="[C:1]([C@@:2]1([H:11])[C:3]([H:12])([H:13])[O:4][C@:5]([C:6]([H:15])([H:16])[H:17])([H:14])[O:7]1)([H:8])([H:9])[H:10]>>[C:1]([C@@:2]1([H:11])[C-:3]([H:13])[O+:4]=[C:5]([H:14])[O:7]1)([H:8])([H:9])[H:10].[C:6]([H:12])([H:15])([H:16])[H:17]"
C        2.04700826       0.43177683      -0.66732774
C        1.15041493      -0.63954639      -0.10320750
C        0.46128202      -0.27506988       1.21722051
O       -0.68661181      -1.17061228       1.10056611
C       -1.06997893      -1.01446601      -0.16722737
C       -2.01505701       0.91064570      -0.02947165
O       -0.01100792      -0.81695543      -0.97300888
H        2.43392065       0.14516633      -1.64609784
H        2.89140641       0.58155115       0.00844686
H        1.50512263       1.37374794      -0.75427902
H        1.66406001      -1.61437265      -0.10253190
H       -0.50067962       0.99672790       0.99796783
H        1.01175194      -0.61588168       2.09376998
H       -1.75159401      -1.78564301      -0.52026643
H       -1.89121056       1.99170624       0.04319268
H       -2.34678719       0.83805511      -1.07012905
H       -2.89203983       0.66317013       0.57238342
17
Frame=16 idx=007107 GeodesicLength=1.1955553192652417 rxn_smarts="[C:1]([C@@:2]1([H:11])[C:3]([H:12])([H:13])[O:4][C@:5]([C:6]([H:15])([H:16])[H:17])([H:14])[O:7]1)([H:8])([H:9])[H:10]>>[C:1]([C@@:2]1([H:11])[C-:3]([H:13])[O+:4]=[C:5]([H:14])[O:7]1)([H:8])([H:9])[H:10].[C:6]([H:12])([H:15])([H:16])[H:17]"
C        2.06227743       0.42353227      -0.66693802
C        1.15173569      -0.63722920      -0.10560632
C        0.46773587      -0.26650027       1.21713553
O       -0.68478912      -1.15904924       1.09872281
C       -1.07208431      -0.99933562      -0.17095457
C       -2.03796440       0.90265026      -0.03256458
O       -0.01087673      -0.79607005      -0.97549990
H        2.44532805       0.13457075      -1.64656428
H        2.90846059       0.56033750       0.00935787
H        1.53323944       1.37307514      -0.75089098
H        1.65261251      -1.61886081      -0.10710934
H       -0.49082137       1.02564139       1.02292312
H        1.01815735      -0.62138248       2.08863460
H       -1.73518406      -1.78801725      -0.52265169
H       -1.91856404       1.98389016       0.03791972
H       -2.37910195       0.83156643      -1.07040277
H       -2.91016096       0.65118101       0.57448880
