8
Frame=0 idx=005760 GeodesicLength=0.0 rxn_smarts="[o:1]1[c:2]([H:6])[c:3]([H:7])[n:4][c:5]1[H:8]>>[O:1]=[C:2]([C@:3]1([H:7])[N:4]=[C:5]1[H:8])[H:6]"
O        0.40837616       1.43377400       0.33648614
C       -0.66959213       0.81923607       0.12145921
C       -0.66000140      -0.54308871      -0.05590956
N        0.56917064      -1.29525229       0.51475135
C        1.23605904      -0.45276914      -0.00389747
H       -1.62287573       1.35588757       0.09877245
H       -1.38070018      -1.20817281      -0.49934381
H        2.11956357      -0.10961471      -0.51231834
8
Frame=1 idx=005760 GeodesicLength=0.03958426216721496 rxn_smarts="[o:1]1[c:2]([H:6])[c:3]([H:7])[n:4][c:5]1[H:8]>>[O:1]=[C:2]([C@:3]1([H:7])[N:4]=[C:5]1[H:8])[H:6]"
O        0.40907288       1.42685694       0.33997529
C       -0.67595826       0.81691246       0.14000702
C       -0.65398857      -0.54525629      -0.05696245
N        0.56948476      -1.28891390       0.51981474
C        1.23088743      -0.44315711      -0.00951229
H       -1.62423035       1.35944860       0.08716443
H       -1.37699235      -1.20680245      -0.50232600
H        2.12172445      -0.11908824      -0.51816074
8
Frame=2 idx=005760 GeodesicLength=0.07930903984183459 rxn_smarts="[o:1]1[c:2]([H:6])[c:3]([H:7])[n:4][c:5]1[H:8]>>[O:1]=[C:2]([C@:3]1([H:7])[N:4]=[C:5]1[H:8])[H:6]"
O        0.40942762       1.41965890       0.34417205
C       -0.68229637       0.81430359       0.15867372
C       -0.64806846      -0.54733853      -0.05761434
N        0.57003512      -1.28254723       0.52422529
C        1.22553305      -0.43344814      -0.01566756
H       -1.62457680       1.36285522       0.07446902
H       -1.37353596      -1.20531593      -0.50460228
H        2.12348180      -0.12816788      -0.52365590
8
Frame=3 idx=005760 GeodesicLength=0.11902311840222679 rxn_smarts="[o:1]1[c:2]([H:6])[c:3]([H:7])[n:4][c:5]1[H:8]>>[O:1]=[C:2]([C@:3]1([H:7])[N:4]=[C:5]1[H:8])[H:6]"
O        0.40957986       1.41281241       0.34701175
C       -0.68846410       0.81199843       0.17465644
C       -0.64220660      -0.54922289      -0.05887786
N        0.57024895      -1.27584556       0.52883523
C        1.22019497      -0.42384504      -0.02186666
H       -1.62504648       1.36570726       0.06509571
H       -1.37010110      -1.20395649      -0.50706867
H        2.12579450      -0.13764812      -0.52778593
8
Frame=4 idx=005760 GeodesicLength=0.1587207490494728 rxn_smarts="[o:1]1[c:2]([H:6])[c:3]([H:7])[n:4][c:5]1[H:8]>>[O:1]=[C:2]([C@:3]1([H:7])[N:4]=[C:5]1[H:8])[H:6]"
O        0.40958958       1.40626827       0.34871088
C       -0.69440605       0.81000790       0.18831397
C       -0.63637658      -0.55091200      -0.06062830
N        0.57020410      -1.26879756       0.53359193
C        1.21485169      -0.41435150      -0.02816391
H       -1.62569144       1.36798408       0.05856731
H       -1.36664871      -1.20266770      -0.50970691
H        2.12847742      -0.14753149      -0.53068497
8
Frame=5 idx=005760 GeodesicLength=0.19841232062422204 rxn_smarts="[o:1]1[c:2]([H:6])[c:3]([H:7])[n:4][c:5]1[H:8]>>[O:1]=[C:2]([C@:3]1([H:7])[N:4]=[C:5]1[H:8])[H:6]"
O        0.40945759       1.39992791       0.34951620
C       -0.70020270       0.80813913       0.20002182
C       -0.63059046      -0.55249467      -0.06273375
N        0.57000561      -1.26141000       0.53841976
C        1.20953984      -0.40492319      -0.03457547
H       -1.62643732       1.36999561       0.05435798
H       -1.36317962      -1.20149102      -0.51247200
H        2.13140705      -0.15774376      -0.53253453
8
Frame=6 idx=005760 GeodesicLength=0.23811556051019986 rxn_smarts="[o:1]1[c:2]([H:6])[c:3]([H:7])[n:4][c:5]1[H:8]>>[O:1]=[C:2]([C@:3]1([H:7])[N:4]=[C:5]1[H:8])[H:6]"
O        0.40922813       1.39370328       0.35018437
C       -0.70588031       0.80637426       0.21103492
C       -0.62485096      -0.55398650      -0.06480164
N        0.56983545      -1.25401276       0.54303973
C        1.20424200      -0.39557104      -0.04129966
H       -1.62719623       1.37178481       0.05070123
H       -1.35976398      -1.20026756      -0.51505738
H        2.13438590      -0.16802448      -0.53380157
8
Frame=7 idx=005760 GeodesicLength=0.2778984966828981 rxn_smarts="[o:1]1[c:2]([H:6])[c:3]([H:7])[n:4][c:5]1[H:8]>>[O:1]=[C:2]([C@:3]1([H:7])[N:4]=[C:5]1[H:8])[H:6]"
O        0.40895874       1.38764052       0.35025034
C       -0.71128427       0.80472354       0.22055193
C       -0.61909368      -0.55540601      -0.06712104
N        0.56956666      -1.24632447       0.54760952
C        1.19893472      -0.38629988      -0.04819270
H       -1.62814971       1.37336652       0.04873108
H       -1.35631857      -1.19915254      -0.51766547
H        2.13738612      -0.17854767      -0.53416365
8
Frame=8 idx=005760 GeodesicLength=0.3176498082156397 rxn_smarts="[o:1]1[c:2]([H:6])[c:3]([H:7])[n:4][c:5]1[H:8]>>[O:1]=[C:2]([C@:3]1([H:7])[N:4]=[C:5]1[H:8])[H:6]"
O        0.40863276       1.38168926       0.35017576
C       -0.71657306       0.80313199       0.22932183
C       -0.61336923      -0.55678610      -0.06945667
N        0.56933137      -1.23859674       0.55201274
C        1.19368447      -0.37710215      -0.05530826
H       -1.62914116       1.37486298       0.04738979
H       -1.35292051      -1.19807205      -0.52014324
H        2.14035536      -0.18912718      -0.53399195
8
Frame=9 idx=005760 GeodesicLength=0.35738103656915104 rxn_smarts="[o:1]1[c:2]([H:6])[c:3]([H:7])[n:4][c:5]1[H:8]>>[O:1]=[C:2]([C@:3]1([H:7])[N:4]=[C:5]1[H:8])[H:6]"
O        0.40826093       1.37583349       0.35000289
C       -0.72173513       0.80156675       0.23752443
C       -0.60765934      -0.55813552      -0.07177529
N        0.56915644      -1.23081882       0.55624643
C        1.18847681      -0.36797140      -0.06263269
H       -1.63017775       1.37630944       0.04651013
H       -1.34953494      -1.19701494      -0.52251820
H        2.14321299      -0.19976901      -0.53335769
8
Frame=10 idx=005760 GeodesicLength=0.39709629255719375 rxn_smarts="[o:1]1[c:2]([H:6])[c:3]([H:7])[n:4][c:5]1[H:8]>>[O:1]=[C:2]([C@:3]1([H:7])[N:4]=[C:5]1[H:8])[H:6]"
O        0.40785576       1.37004051       0.34989821
C       -0.72679874       0.79997986       0.24549617
C       -0.60194039      -0.55947477      -0.07399261
N        0.56909126      -1.22305279       0.56031675
C        1.18333302      -0.35889604      -0.07008857
H       -1.63116958       1.37777005       0.04566894
H       -1.34610673      -1.19595885      -0.52481436
H        2.14573540      -0.21040797      -0.53248451
8
Frame=11 idx=005760 GeodesicLength=0.4368432705182878 rxn_smarts="[o:1]1[c:2]([H:6])[c:3]([H:7])[n:4][c:5]1[H:8]>>[O:1]=[C:2]([C@:3]1([H:7])[N:4]=[C:5]1[H:8])[H:6]"
O        0.40743877       1.36436226       0.34957241
C       -0.73169450       0.79843051       0.25281452
C       -0.59620709      -0.56078159      -0.07625430
N        0.56902305      -1.21520723       0.56429439
C        1.17823686      -0.34989225      -0.07765249
H       -1.63225639       1.37914684       0.04548795
H       -1.34263623      -1.19492730      -0.52709656
H        2.14809551      -0.22113124      -0.53116592
8
Frame=12 idx=005760 GeodesicLength=0.4765659220607505 rxn_smarts="[o:1]1[c:2]([H:6])[c:3]([H:7])[n:4][c:5]1[H:8]>>[O:1]=[C:2]([C@:3]1([H:7])[N:4]=[C:5]1[H:8])[H:6]"
O        0.40702220       1.35878192       0.34911444
C       -0.73644058       0.79689753       0.25965817
C       -0.59045866      -0.56207049      -0.07853640
N        0.56899046      -1.20733322       0.56816322
C        1.17321533      -0.34096606      -0.08531198
H       -1.63342324       1.38049108       0.04573758
H       -1.33915798      -1.19391891      -0.52933910
H        2.15025246      -0.23188185      -0.52948593
8
Frame=13 idx=005760 GeodesicLength=0.5162975628252819 rxn_smarts="[o:1]1[c:2]([H:6])[c:3]([H:7])[n:4][c:5]1[H:8]>>[O:1]=[C:2]([C@:3]1([H:7])[N:4]=[C:5]1[H:8])[H:6]"
O        0.40658079       1.35327114       0.34874039
C       -0.74110999       0.79537053       0.26615898
C       -0.58466011      -0.56334252      -0.08077889
N        0.56899155      -1.19944669       0.57200578
C        1.16828403      -0.33209411      -0.09289349
H       -1.63447222       1.38178505       0.04613238
H       -1.33555495      -1.19291380      -0.53159748
H        2.15194091      -0.24262960      -0.52776767
8
Frame=14 idx=005760 GeodesicLength=0.5560651896063855 rxn_smarts="[o:1]1[c:2]([H:6])[c:3]([H:7])[n:4][c:5]1[H:8]>>[O:1]=[C:2]([C@:3]1([H:7])[N:4]=[C:5]1[H:8])[H:6]"
O        0.40615003       1.34785580       0.34820278
C       -0.74559525       0.79384829       0.27225121
C       -0.57880582      -0.56459703      -0.08305926
N        0.56899644      -1.19152669       0.57575116
C        1.16341130      -0.32330256      -0.10049198
H       -1.63558532       1.38303819       0.04693367
H       -1.33187927      -1.19192469      -0.53384739
H        2.15330788      -0.25339131      -0.52574020
8
Frame=15 idx=005760 GeodesicLength=0.5957910840251771 rxn_smarts="[o:1]1[c:2]([H:6])[c:3]([H:7])[n:4][c:5]1[H:8]>>[O:1]=[C:2]([C@:3]1([H:7])[N:4]=[C:5]1[H:8])[H:6]"
O        0.40573242       1.34252850       0.34763396
C       -0.74997607       0.79233370       0.27800307
C       -0.57290565      -0.56584143      -0.08533039
N        0.56901267      -1.18362636       0.57950357
C        1.15866140      -0.31458897      -0.10798091
H       -1.63671673       1.38426585       0.04797495
H       -1.32811782      -1.19093134      -0.53614940
H        2.15430978      -0.26413995      -0.52365486
8
Frame=16 idx=005760 GeodesicLength=0.6355151335374236 rxn_smarts="[o:1]1[c:2]([H:6])[c:3]([H:7])[n:4][c:5]1[H:8]>>[O:1]=[C:2]([C@:3]1([H:7])[N:4]=[C:5]1[H:8])[H:6]"
O        0.40532180       1.33728241       0.34704405
C       -0.75424049       0.79081810       0.28345051
C       -0.56694726      -0.56707723      -0.08758530
N        0.56903117      -1.17573220       0.58325983
C        1.15401201      -0.30594779      -0.11535172
H       -1.63783854       1.38546500       0.04922119
H       -1.32424058      -1.18993527      -0.53850804
H        2.15490189      -0.27487301      -0.52153052
