12
Frame=0 idx=000971 GeodesicLength=0.0 rxn_smarts="[C:1]([c:2]1[c:3]([H:10])[o:4][c:5]([H:11])[c:6]1[H:12])([H:7])([H:8])[H:9]>>[C:1]([C:2]1=[C:6]([H:12])[C@:5]2([H:11])[C@@:3]1([H:10])[O:4]2)([H:7])([H:8])[H:9]"
C       -1.76763458      -0.10216919      -0.00890327
C       -0.29166179      -0.02016243      -0.11891943
C        0.40122933       1.32021857      -0.07393759
O        1.84863996       0.96884371      -0.71728495
C        1.80206300      -0.11857445      -0.06627975
C        0.62467429      -0.97910200      -0.27337070
H       -2.21497561       0.50707117      -0.79815746
H       -2.10343459       0.31848485       0.94175483
H       -2.12627389      -1.12851179      -0.08278426
H        0.67566869       1.59919120       0.95175752
H        2.58329183      -0.32036750       0.67894118
H        0.56841333      -2.04492209      -0.43281611
12
Frame=1 idx=000971 GeodesicLength=0.062497514898878 rxn_smarts="[C:1]([c:2]1[c:3]([H:10])[o:4][c:5]([H:11])[c:6]1[H:12])([H:7])([H:8])[H:9]>>[C:1]([C:2]1=[C:6]([H:12])[C@:5]2([H:11])[C@@:3]1([H:10])[O:4]2)([H:7])([H:8])[H:9]"
C       -1.76950393      -0.10137324      -0.01077027
C       -0.29344130      -0.02113940      -0.12252842
C        0.41321122       1.30594988      -0.07728117
O        1.84316986       0.96667698      -0.72186639
C        1.80119078      -0.12110694      -0.05793721
C        0.62729652      -0.98151509      -0.26699415
H       -2.21939900       0.53245069      -0.77883264
H       -2.10146058       0.28837986       0.95433004
H       -2.13257174      -1.12333689      -0.11780917
H        0.66654031       1.62608165       0.94011805
H        2.59434479      -0.32183146       0.67289760
H        0.57062305      -2.04923604      -0.41332628
12
Frame=2 idx=000971 GeodesicLength=0.12521403707847267 rxn_smarts="[C:1]([c:2]1[c:3]([H:10])[o:4][c:5]([H:11])[c:6]1[H:12])([H:7])([H:8])[H:9]>>[C:1]([C:2]1=[C:6]([H:12])[C@:5]2([H:11])[C@@:3]1([H:10])[O:4]2)([H:7])([H:8])[H:9]"
C       -1.77120915      -0.10058829      -0.01268434
C       -0.29511289      -0.02210120      -0.12575685
C        0.42502900       1.29157628      -0.07968993
O        1.83730620       0.96424211      -0.72652939
C        1.80028193      -0.12373821      -0.04946075
C        0.62987200      -0.98396519      -0.26005537
H       -2.22328195       0.55837103      -0.75786036
H       -2.09963112       0.25622537       0.96620432
H       -2.13861180      -1.11681990      -0.15444632
H        0.65716360       1.65381242       0.92683493
H        2.60561642      -0.32356372       0.66612378
H        0.57257776      -2.05345069      -0.39267973
12
Frame=3 idx=000971 GeodesicLength=0.18779193062369837 rxn_smarts="[C:1]([c:2]1[c:3]([H:10])[o:4][c:5]([H:11])[c:6]1[H:12])([H:7])([H:8])[H:9]>>[C:1]([C:2]1=[C:6]([H:12])[C@:5]2([H:11])[C@@:3]1([H:10])[O:4]2)([H:7])([H:8])[H:9]"
C       -1.77298013      -0.09985374      -0.01465745
C       -0.29669972      -0.02305639      -0.12843382
C        0.43683225       1.27717067      -0.08091104
O        1.83127792       0.96164602      -0.73127410
C        1.79957419      -0.12643240      -0.04092124
C        0.63242290      -0.98648118      -0.25259936
H       -2.22673426       0.58440112      -0.73551382
H       -2.09845278       0.22234644       0.97715366
H       -2.14461027      -1.10898693      -0.19235136
H        0.64766131       1.68243192       0.91213436
H        2.61748796      -0.32556579       0.65842315
H        0.57422065      -2.05761973      -0.37104899
12
Frame=4 idx=000971 GeodesicLength=0.25049830438151177 rxn_smarts="[C:1]([c:2]1[c:3]([H:10])[o:4][c:5]([H:11])[c:6]1[H:12])([H:7])([H:8])[H:9]>>[C:1]([C:2]1=[C:6]([H:12])[C@:5]2([H:11])[C@@:3]1([H:10])[O:4]2)([H:7])([H:8])[H:9]"
C       -1.77462459      -0.09912168      -0.01672306
C       -0.29816232      -0.02397745      -0.13038716
C        0.44851109       1.26269290      -0.08071480
O        1.82472621       0.95896973      -0.73598857
C        1.79891399      -0.12920550      -0.03239350
C        0.63491731      -0.98900083      -0.24461423
H       -2.22947827       0.61041440      -0.71186724
H       -2.09787547       0.18687669       0.98679733
H       -2.15019298      -1.09967052      -0.23130972
H        0.63785958       1.71167992       0.89599459
H        2.62985719      -0.32802103       0.64940979
H        0.57554827      -2.06163662      -0.34820343
12
Frame=5 idx=000971 GeodesicLength=0.31312230043128164 rxn_smarts="[C:1]([c:2]1[c:3]([H:10])[o:4][c:5]([H:11])[c:6]1[H:12])([H:7])([H:8])[H:9]>>[C:1]([C:2]1=[C:6]([H:12])[C@:5]2([H:11])[C@@:3]1([H:10])[O:4]2)([H:7])([H:8])[H:9]"
C       -1.77626696      -0.09842924      -0.01876191
C       -0.29950634      -0.02488794      -0.13150849
C        0.46019312       1.24816045      -0.07908947
O        1.81787067       0.95614560      -0.74058028
C        1.79845285      -0.13209904      -0.02372445
C        0.63738613      -0.99158145      -0.23598279
H       -2.23166895       0.63598980      -0.68707035
H       -2.09808599       0.15017166       0.99511689
H       -2.15547502      -1.08891843      -0.27084441
H        0.62780824       1.74179095       0.87817290
H        2.64271909      -0.33087639       0.63942087
H        0.57657316      -2.06546598      -0.32514850
12
Frame=6 idx=000971 GeodesicLength=0.375737281600508 rxn_smarts="[C:1]([c:2]1[c:3]([H:10])[o:4][c:5]([H:11])[c:6]1[H:12])([H:7])([H:8])[H:9]>>[C:1]([C:2]1=[C:6]([H:12])[C@:5]2([H:11])[C@@:3]1([H:10])[O:4]2)([H:7])([H:8])[H:9]"
C       -1.77785183      -0.09775330      -0.02073760
C       -0.30071113      -0.02577904      -0.13166036
C        0.47188626       1.23356544      -0.07588569
O        1.81059643       0.95318267      -0.74494198
C        1.79817424      -0.13515347      -0.01490284
C        0.63983571      -0.99421771      -0.22665725
H       -2.23325209       0.66098709      -0.66117257
H       -2.09910730       0.11237671       1.00196902
H       -2.16029141      -1.07666113      -0.31075971
H        0.61740538       1.77274091       0.85845222
H        2.65598803      -0.33419534       0.62840144
H        0.57732771      -2.06909285      -0.30210468
12
Frame=7 idx=000971 GeodesicLength=0.43826260239855924 rxn_smarts="[C:1]([c:2]1[c:3]([H:10])[o:4][c:5]([H:11])[c:6]1[H:12])([H:7])([H:8])[H:9]>>[C:1]([C:2]1=[C:6]([H:12])[C@:5]2([H:11])[C@@:3]1([H:10])[O:4]2)([H:7])([H:8])[H:9]"
C       -1.77934486      -0.09706242      -0.02268325
C       -0.30175679      -0.02662278      -0.13068595
C        0.48357694       1.21889770      -0.07065080
O        1.80275476       0.95029431      -0.74888339
C        1.79811155      -0.13836344      -0.00604346
C        0.64225918      -0.99685572      -0.21675658
H       -2.23409614       0.68488629      -0.63491283
H       -2.10112734       0.07441765       1.00702337
H       -2.16446892      -1.06311939      -0.35016938
H        0.60647483       1.80414720       0.83715216
H        2.66978700      -0.33815044       0.61593769
H        0.57782980      -2.07246897      -0.27932758
12
Frame=8 idx=000971 GeodesicLength=0.5005521915676825 rxn_smarts="[C:1]([c:2]1[c:3]([H:10])[o:4][c:5]([H:11])[c:6]1[H:12])([H:7])([H:8])[H:9]>>[C:1]([C:2]1=[C:6]([H:12])[C@:5]2([H:11])[C@@:3]1([H:10])[O:4]2)([H:7])([H:8])[H:9]"
C       -1.78080079      -0.09635109      -0.02449863
C       -0.30263928      -0.02742196      -0.12854292
C        0.49536255       1.20420516      -0.06331898
O        1.79443348       0.94744055      -0.75227768
C        1.79837964      -0.14181604       0.00295705
C        0.64470782      -0.99957497      -0.20621451
H       -2.23439573       0.70762608      -0.60832335
H       -2.10412982       0.03649403       1.01042074
H       -2.16804987      -1.04840015      -0.38889151
H        0.59493112       1.83621937       0.81384264
H        2.68404195      -0.34271096       0.60236250
H        0.57815892      -2.07571002      -0.25751535
12
Frame=9 idx=000971 GeodesicLength=0.5630157422331593 rxn_smarts="[C:1]([c:2]1[c:3]([H:10])[o:4][c:5]([H:11])[c:6]1[H:12])([H:7])([H:8])[H:9]>>[C:1]([C:2]1=[C:6]([H:12])[C@:5]2([H:11])[C@@:3]1([H:10])[O:4]2)([H:7])([H:8])[H:9]"
C       -1.78201983      -0.09560574      -0.02614215
C       -0.30329033      -0.02815889      -0.12514316
C        0.50732902       1.18933061      -0.05370857
O        1.78549223       0.94471002      -0.75496349
C        1.79881254      -0.14548950       0.01206095
C        0.64710381      -1.00226145      -0.19500158
H       -2.23384115       0.72917156      -0.58143351
H       -2.10797623      -0.00142287       1.01216285
H       -2.17078062      -1.03240486      -0.42682816
H        0.58260027       1.86865299       0.78810806
H        2.69832701      -0.34786037       0.58757144
H        0.57824328      -2.07866152      -0.23668268
12
Frame=10 idx=000971 GeodesicLength=0.624834315798639 rxn_smarts="[C:1]([c:2]1[c:3]([H:10])[o:4][c:5]([H:11])[c:6]1[H:12])([H:7])([H:8])[H:9]>>[C:1]([C:2]1=[C:6]([H:12])[C@:5]2([H:11])[C@@:3]1([H:10])[O:4]2)([H:7])([H:8])[H:9]"
C       -1.78341391      -0.09478072      -0.02765992
C       -0.30376627      -0.02884636      -0.12028398
C        0.51958899       1.17446431      -0.04137708
O        1.77607624       0.94217896      -0.75690415
C        1.79994019      -0.14950976       0.02114872
C        0.64966112      -1.00515821      -0.18312961
H       -2.23302826       0.74969593      -0.55433937
H       -2.11319900      -0.03906965       1.01230485
H       -2.17304920      -1.01532940      -0.46426928
H        0.56935522       1.90182764       0.75990224
H        2.71350728      -0.35367363       0.57130279
H        0.57832760      -2.08179909      -0.21669521
12
Frame=11 idx=000971 GeodesicLength=0.6872167882606283 rxn_smarts="[C:1]([c:2]1[c:3]([H:10])[o:4][c:5]([H:11])[c:6]1[H:12])([H:7])([H:8])[H:9]>>[C:1]([C:2]1=[C:6]([H:12])[C@:5]2([H:11])[C@@:3]1([H:10])[O:4]2)([H:7])([H:8])[H:9]"
C       -1.78404525      -0.09377809      -0.02904729
C       -0.30387516      -0.02937907      -0.11382190
C        0.53196094       1.15927951      -0.02571745
O        1.76529947       0.94010659      -0.75766059
C        1.80102667      -0.15386655       0.03014655
C        0.65205351      -1.00785931      -0.17059257
H       -2.23069564       0.76887393      -0.52782502
H       -2.11889544      -0.07573790       1.01051758
H       -2.17361418      -0.99712583      -0.50011764
H        0.55424256       1.93433322       0.72884623
H        2.72850863      -0.36042522       0.55294182
H        0.57803390      -2.08442128      -0.19766972
12
Frame=12 idx=000971 GeodesicLength=0.7489314936964987 rxn_smarts="[C:1]([c:2]1[c:3]([H:10])[o:4][c:5]([H:11])[c:6]1[H:12])([H:7])([H:8])[H:9]>>[C:1]([C:2]1=[C:6]([H:12])[C@:5]2([H:11])[C@@:3]1([H:10])[O:4]2)([H:7])([H:8])[H:9]"
C       -1.78466905      -0.09258643      -0.03025150
C       -0.30369189      -0.02978678      -0.10566325
C        0.54487821       1.14402682      -0.00652765
O        1.75377857       0.93851313      -0.75727815
C        1.80287284      -0.15872207       0.03888701
C        0.65460849      -1.01075536      -0.15746572
H       -2.22792233       0.78718959      -0.50122458
H       -2.12582587      -0.11193225       1.00723044
H       -2.17342414      -0.97781655      -0.53538390
H        0.53757480       1.96692399       0.69424927
H        2.74409229      -0.36780958       0.53298583
H        0.57772808      -2.08724453      -0.17955781
12
Frame=13 idx=000971 GeodesicLength=0.810053157765102 rxn_smarts="[C:1]([c:2]1[c:3]([H:10])[o:4][c:5]([H:11])[c:6]1[H:12])([H:7])([H:8])[H:9]>>[C:1]([C:2]1=[C:6]([H:12])[C@:5]2([H:11])[C@@:3]1([H:10])[O:4]2)([H:7])([H:8])[H:9]"
C       -1.78516184      -0.09108872      -0.03147194
C       -0.30315190      -0.03002204      -0.09519948
C        0.55840588       1.12860212       0.01729784
O        1.74092184       0.93772572      -0.75540700
C        1.80558214      -0.16405471       0.04710329
C        0.65734202      -1.01379735      -0.14351246
H       -2.22434105       0.80477142      -0.47513326
H       -2.13432003      -0.14711998       1.00203174
H       -2.17204389      -0.95740502      -0.57016890
H        0.51855031       1.99873936       0.65605414
H        2.76085924      -0.37611826       0.50976034
H        0.57735728      -2.09023255      -0.16135430
12
Frame=14 idx=000971 GeodesicLength=0.871333133781948 rxn_smarts="[C:1]([c:2]1[c:3]([H:10])[o:4][c:5]([H:11])[c:6]1[H:12])([H:7])([H:8])[H:9]>>[C:1]([C:2]1=[C:6]([H:12])[C@:5]2([H:11])[C@@:3]1([H:10])[O:4]2)([H:7])([H:8])[H:9]"
C       -1.78507420      -0.08930309      -0.03247602
C       -0.30208611      -0.03016536      -0.08038702
C        0.57294656       1.11297417       0.04649173
O        1.72601612       0.93751708      -0.75253001
C        1.80878395      -0.16995360       0.05481071
C        0.65996620      -1.01714128      -0.12707288
H       -2.21889731       0.82289924      -0.44706602
H       -2.14501998      -0.18471128       0.99455536
H       -2.16828462      -0.93391198      -0.60735336
H        0.49698723       2.03035994       0.61081623
H        2.77809107      -0.38505673       0.48276517
H        0.57657108      -2.09350710      -0.14255390
12
Frame=15 idx=000971 GeodesicLength=0.9332970489988254 rxn_smarts="[C:1]([c:2]1[c:3]([H:10])[o:4][c:5]([H:11])[c:6]1[H:12])([H:7])([H:8])[H:9]>>[C:1]([C:2]1=[C:6]([H:12])[C@:5]2([H:11])[C@@:3]1([H:10])[O:4]2)([H:7])([H:8])[H:9]"
C       -1.78415625      -0.08669344      -0.03379371
C       -0.30048041      -0.02959565      -0.06446656
C        0.58794605       1.09696381       0.08046281
O        1.70874836       0.93866899      -0.74711051
C        1.81248116      -0.17604213       0.06146573
C        0.66281482      -1.01976387      -0.11100339
H       -2.21253158       0.83960582      -0.42161875
H       -2.15545408      -0.21820945       0.98500656
H       -2.16261933      -0.90986939      -0.64178648
H        0.47186749       2.05518137       0.56348160
H        2.79556903      -0.39455884       0.45188179
H        0.57581475      -2.09568723      -0.12251910
12
Frame=16 idx=000971 GeodesicLength=0.994314690485024 rxn_smarts="[C:1]([c:2]1[c:3]([H:10])[o:4][c:5]([H:11])[c:6]1[H:12])([H:7])([H:8])[H:9]>>[C:1]([C:2]1=[C:6]([H:12])[C@:5]2([H:11])[C@@:3]1([H:10])[O:4]2)([H:7])([H:8])[H:9]"
C       -1.78287394      -0.08352177      -0.03508329
C       -0.29847695      -0.02826508      -0.04668681
C        0.60370573       1.08186172       0.11688875
O        1.69043742       0.94067705      -0.74085739
C        1.81662577      -0.18191505       0.06771641
C        0.66569424      -1.02214788      -0.09392649
H       -2.20568402       0.85637960      -0.39505387
H       -2.16678291      -0.25200732       0.97352889
H       -2.15515993      -0.88367306      -0.67675610
H        0.44505025       2.07388579       0.51252308
H        2.81265931      -0.40351161       0.41857746
H        0.57480503      -2.09776239      -0.10087062
