17
Frame=0 idx=007058 GeodesicLength=0.0 rxn_smarts="[C:1]([C@@:2]([O:3][H:12])([C@@:4]1([H:13])[C:5]([H:14])([H:15])[C:6]([H:16])([H:17])[O:7]1)[H:11])([H:8])([H:9])[H:10]>>[C:1]([C:2](=[O:3])[C:4]([C:5]([C:6]([O:7][H:12])([H:16])[H:17])([H:14])[H:15])([H:11])[H:13])([H:8])([H:9])[H:10]"
C       -2.30444772      -0.48704583       0.25596833
C       -1.07246660       0.29885050      -0.18677799
O       -0.82397086       1.41936413       0.45168968
C        0.11464980      -0.48501371      -0.47990764
C        1.38635369       0.21184034      -0.87171531
C        2.04881525       0.20432711       0.50403347
O        0.95252427      -0.12708806       1.36093905
H       -3.17651322       0.16160959       0.19035614
H       -2.47648819      -1.37867837      -0.35269108
H       -2.17796987      -0.77944440       1.29959819
H       -1.16888848       0.37741606      -1.36304805
H        0.29378903       0.66151334       1.28844310
H        0.02125080      -1.55795878      -0.64405724
H        1.94351599      -0.31681119      -1.64405735
H        1.14437521       1.22443991      -1.19505260
H        2.50213851       1.15798580       0.78098396
H        2.79333240      -0.58530648       0.60529535
17
Frame=1 idx=007058 GeodesicLength=0.09182895916276691 rxn_smarts="[C:1]([C@@:2]([O:3][H:12])([C@@:4]1([H:13])[C:5]([H:14])([H:15])[C:6]([H:16])([H:17])[O:7]1)[H:11])([H:8])([H:9])[H:10]>>[C:1]([C:2](=[O:3])[C:4]([C:5]([C:6]([O:7][H:12])([H:16])[H:17])([H:14])[H:15])([H:11])[H:13])([H:8])([H:9])[H:10]"
C       -2.30591749      -0.48799245       0.25809669
C       -1.07870591       0.30206076      -0.18684375
O       -0.83154983       1.42184349       0.45284383
C        0.11344678      -0.47986885      -0.48231517
C        1.38633617       0.21814056      -0.87256701
C        2.05022948       0.19794015       0.50228498
O        0.94842663      -0.11987428       1.35655855
H       -3.17903201       0.16028755       0.20383733
H       -2.48044558      -1.37541755      -0.35581761
H       -2.17188464      -0.79190577       1.29760828
H       -1.14838638       0.35205026      -1.37910582
H        0.28336472       0.68726401       1.29186368
H        0.02362583      -1.55507664      -0.63226204
H        1.94246139      -0.30667980      -1.64821976
H        1.14733626       1.23393077      -1.18822101
H        2.51632330       1.14515567       0.78070105
H        2.78437127      -0.60185790       0.60155780
17
Frame=2 idx=007058 GeodesicLength=0.18361304474438286 rxn_smarts="[C:1]([C@@:2]([O:3][H:12])([C@@:4]1([H:13])[C:5]([H:14])([H:15])[C:6]([H:16])([H:17])[O:7]1)[H:11])([H:8])([H:9])[H:10]>>[C:1]([C:2](=[O:3])[C:4]([C:5]([C:6]([O:7][H:12])([H:16])[H:17])([H:14])[H:15])([H:11])[H:13])([H:8])([H:9])[H:10]"
C       -2.30717810      -0.48887372       0.26029991
C       -1.08491882       0.30535925      -0.18740786
O       -0.83914990       1.42433908       0.45373455
C        0.11229110      -0.47483904      -0.48481746
C        1.38641113       0.22433998      -0.87338731
C        2.05147463       0.19151190       0.50058805
O        0.94428646      -0.11289817       1.35208717
H       -3.18133057       0.15887555       0.21781980
H       -2.48443770      -1.37200761      -0.35884452
H       -2.16526498      -0.80426114       1.29546112
H       -1.12800239       0.32678678      -1.39463572
H        0.27261648       0.71310337       1.29513501
H        0.02593186      -1.55206912      -0.62083647
H        1.94163455      -0.29665889      -1.65221314
H        1.15040862       1.24322533      -1.18143521
H        2.52996335       1.13222600       0.78056439
H        2.77526428      -0.61815955       0.59788771
17
Frame=3 idx=007058 GeodesicLength=0.27538079214706723 rxn_smarts="[C:1]([C@@:2]([O:3][H:12])([C@@:4]1([H:13])[C:5]([H:14])([H:15])[C:6]([H:16])([H:17])[O:7]1)[H:11])([H:8])([H:9])[H:10]>>[C:1]([C:2](=[O:3])[C:4]([C:5]([C:6]([O:7][H:12])([H:16])[H:17])([H:14])[H:15])([H:11])[H:13])([H:8])([H:9])[H:10]"
C       -2.30824704      -0.48969453       0.26257032
C       -1.09110103       0.30872437      -0.18841133
O       -0.84677064       1.42684391       0.45437960
C        0.11118465      -0.46992953      -0.48739607
C        1.38656956       0.23043993      -0.87417488
C        2.05256805       0.18504466       0.49893326
O        0.94013234      -0.10617448       1.34753354
H       -3.18340052       0.15737673       0.23225073
H       -2.48847039      -1.36845012      -0.36177667
H       -2.15817476      -0.81650469       1.29315016
H       -1.10772177       0.30163807      -1.40965830
H        0.26154970       0.73905307       1.29827502
H        0.02816880      -1.54895461      -0.60975900
H        1.94101658      -0.28674186      -1.65604913
H        1.15357291       1.25232679      -1.17468641
H        2.54307904       1.11921223       0.78056275
H        2.76604451      -0.63420993       0.59425640
17
Frame=4 idx=007058 GeodesicLength=0.36712549632164504 rxn_smarts="[C:1]([C@@:2]([O:3][H:12])([C@@:4]1([H:13])[C:5]([H:14])([H:15])[C:6]([H:16])([H:17])[O:7]1)[H:11])([H:8])([H:9])[H:10]>>[C:1]([C:2](=[O:3])[C:4]([C:5]([C:6]([O:7][H:12])([H:16])[H:17])([H:14])[H:15])([H:11])[H:13])([H:8])([H:9])[H:10]"
C       -2.30913852      -0.49045998       0.26490270
C       -1.09724926       0.31213594      -0.18980620
O       -0.85441204       1.42935422       0.45479261
C        0.11012881      -0.46514530      -0.49003746
C        1.38680423       0.23644060      -0.87492934
C        2.05352410       0.17853930       0.49731238
O        0.93598628      -0.09971541       1.34290351
H       -3.18523373       0.15579395       0.24708579
H       -2.49254700      -1.36475094      -0.36461709
H       -2.15066701      -0.82863152       1.29067174
H       -1.08753170       0.27662328      -1.42418735
H        0.25016484       0.76513459       1.30129952
H        0.03033729      -1.54574948      -0.59901258
H        1.94059232      -0.27692430      -1.65973771
H        1.15681392       1.26123761      -1.16796809
H        2.55568776       1.10612680       0.78068623
H        2.75673968      -0.65000936       0.59064137
17
Frame=5 idx=007058 GeodesicLength=0.45888117374880527 rxn_smarts="[C:1]([C@@:2]([O:3][H:12])([C@@:4]1([H:13])[C:5]([H:14])([H:15])[C:6]([H:16])([H:17])[O:7]1)[H:11])([H:8])([H:9])[H:10]>>[C:1]([C:2](=[O:3])[C:4]([C:5]([C:6]([O:7][H:12])([H:16])[H:17])([H:14])[H:15])([H:11])[H:13])([H:8])([H:9])[H:10]"
C       -2.30986565      -0.49117494       0.26729434
C       -1.10336073       0.31557625      -0.19154392
O       -0.86207534       1.43186760       0.45498264
C        0.10912396      -0.46048836      -0.49273016
C        1.38710801       0.24234460      -0.87564928
C        2.05435661       0.17199411       0.49571820
O        0.93186702      -0.09354045       1.33820339
H       -3.18682350       0.15412814       0.26228088
H       -2.49666815      -1.36091665      -0.36736372
H       -2.14279195      -0.84063509       1.28802607
H       -1.06741756       0.25175019      -1.43824131
H        0.23845935       0.79138189       1.30421838
H        0.03243751      -1.54246792      -0.58858427
H        1.94034620      -0.26719734      -1.66328905
H        1.16011837       1.26996350      -1.16126935
H        2.56780897       1.09297786       0.78092992
H        2.74737690      -0.66556338       0.58701724
17
Frame=6 idx=007058 GeodesicLength=0.5506339841114447 rxn_smarts="[C:1]([C@@:2]([O:3][H:12])([C@@:4]1([H:13])[C:5]([H:14])([H:15])[C:6]([H:16])([H:17])[O:7]1)[H:11])([H:8])([H:9])[H:10]>>[C:1]([C:2](=[O:3])[C:4]([C:5]([C:6]([O:7][H:12])([H:16])[H:17])([H:14])[H:15])([H:11])[H:13])([H:8])([H:9])[H:10]"
C       -2.31044037      -0.49184416       0.26974318
C       -1.10943323       0.31902905      -0.19358039
O       -0.86976059       1.43438299       0.45496001
C        0.10816952      -0.45596024      -0.49546546
C        1.38747431       0.24815425      -0.87633405
C        2.05507747       0.16540717       0.49414345
O        0.92779047      -0.08766162       1.33343833
H       -3.18816370       0.15237884       0.27779443
H       -2.50083436      -1.35695459      -0.37001306
H       -2.13459727      -0.85250960       1.28521428
H       -1.04736291       0.22702778      -1.45183746
H        0.22643270       0.81782051       1.30704283
H        0.03446989      -1.53912162      -0.57846200
H        1.94026428      -0.25755346      -1.66671240
H        1.16347465       1.27850988      -1.15458132
H        2.57946073       1.07977254       0.78128655
H        2.73797842      -0.68087771       0.58336307
17
Frame=7 idx=007058 GeodesicLength=0.6423896543813584 rxn_smarts="[C:1]([C@@:2]([O:3][H:12])([C@@:4]1([H:13])[C:5]([H:14])([H:15])[C:6]([H:16])([H:17])[O:7]1)[H:11])([H:8])([H:9])[H:10]>>[C:1]([C:2](=[O:3])[C:4]([C:5]([C:6]([O:7][H:12])([H:16])[H:17])([H:14])[H:15])([H:11])[H:13])([H:8])([H:9])[H:10]"
C       -2.31087286      -0.49247292       0.27224915
C       -1.11546498       0.32247967      -0.19587464
O       -0.87746929       1.43690093       0.45472982
C        0.10726453      -0.45156069      -0.49823744
C        1.38789727       0.25387337      -0.87698220
C        2.05569769       0.15877419       0.49258179
O        0.92376824      -0.08209663       1.32861359
H       -3.18925007       0.15054582       0.29358895
H       -2.50504279      -1.35287315      -0.37255797
H       -2.12612399      -0.86424804       1.28224148
H       -1.02735259       0.20245865      -1.46499484
H        0.21408178       0.84448567       1.30977746
H        0.03643497      -1.53572112      -0.56863837
H        1.94033375      -0.24798179      -1.67001664
H        1.16687372       1.28688426      -1.14789183
H        2.59065992       1.06651372       0.78175420
H        2.72856468      -0.69596193       0.57965748
17
Frame=8 idx=007058 GeodesicLength=0.7341587925936789 rxn_smarts="[C:1]([C@@:2]([O:3][H:12])([C@@:4]1([H:13])[C:5]([H:14])([H:15])[C:6]([H:16])([H:17])[O:7]1)[H:11])([H:8])([H:9])[H:10]>>[C:1]([C:2](=[O:3])[C:4]([C:5]([C:6]([O:7][H:12])([H:16])[H:17])([H:14])[H:15])([H:11])[H:13])([H:8])([H:9])[H:10]"
C       -2.31117127      -0.49306680       0.27481538
C       -1.12145567       0.32591556      -0.19839122
O       -0.88520357       1.43942545       0.45429290
C        0.10640698      -0.44728690      -0.50104490
C        1.38837226       0.25950708      -0.87759251
C        2.05622493       0.15208874       0.49102871
O        0.91980870      -0.07686523       1.32373099
H       -3.19007885       0.14862667       0.30963240
H       -2.50929015      -1.34868350      -0.37498661
H       -2.11740543      -0.87584170       1.27911676
H       -1.00736524       0.17804185      -1.47773062
H        0.20139856       0.87141634       1.31242435
H        0.03833316      -1.53227442      -0.55911171
H        1.94054458      -0.23846976      -1.67320980
H        1.17030940       1.29509590      -1.14118852
H        2.60142070       1.05319918       0.78233371
H        2.71915093      -0.71082847       0.57588069
17
Frame=9 idx=007058 GeodesicLength=0.8260520646173007 rxn_smarts="[C:1]([C@@:2]([O:3][H:12])([C@@:4]1([H:13])[C:5]([H:14])([H:15])[C:6]([H:16])([H:17])[O:7]1)[H:11])([H:8])([H:9])[H:10]>>[C:1]([C:2](=[O:3])[C:4]([C:5]([C:6]([O:7][H:12])([H:16])[H:17])([H:14])[H:15])([H:11])[H:13])([H:8])([H:9])[H:10]"
C       -2.31133731      -0.49362656       0.27745967
C       -1.12741239       0.32932594      -0.20111271
O       -0.89297703       1.44198121       0.45361714
C        0.10558938      -0.44312732      -0.50390572
C        1.38889578       0.26506900      -0.87815980
C        2.05665564       0.14533194       0.48948615
O        0.91590343      -0.07203281       1.31878300
H       -3.19064825       0.14662814       0.32592406
H       -2.51356200      -1.34441350      -0.37726701
H       -2.10845110      -0.88726783       1.27586703
H       -0.98735815       0.15373664      -1.49006364
H        0.18837345       0.89867822       1.31495468
H        0.04016481      -1.52877694      -0.54990882
H        1.94089481      -0.22898637      -1.67629651
H        1.17378165       1.30316677      -1.13444479
H        2.61173736       1.03980739       0.78305722
H        2.70974992      -0.72549393       0.57201005
17
Frame=10 idx=007058 GeodesicLength=0.9179620556594456 rxn_smarts="[C:1]([C@@:2]([O:3][H:12])([C@@:4]1([H:13])[C:5]([H:14])([H:15])[C:6]([H:16])([H:17])[O:7]1)[H:11])([H:8])([H:9])[H:10]>>[C:1]([C:2](=[O:3])[C:4]([C:5]([C:6]([O:7][H:12])([H:16])[H:17])([H:14])[H:15])([H:11])[H:13])([H:8])([H:9])[H:10]"
C       -2.31138222      -0.49415950       0.28017190
C       -1.13332719       0.33270004      -0.20398907
O       -0.90077877       1.44455141       0.45273581
C        0.10481388      -0.43908788      -0.50680336
C        1.38946217       0.27055579      -0.87868406
C        2.05700583       0.13850867       0.48794425
O        0.91206711      -0.06757797       1.31378505
H       -3.19095409       0.14454608       0.34241515
H       -2.51786367      -1.34005670      -0.37941072
H       -2.09930727      -0.89853723       1.27248516
H       -0.96733788       0.12957053      -1.50202024
H        0.17500341       0.92628942       1.31738842
H        0.04193059      -1.52524927      -0.54100451
H        1.94136884      -0.21953521      -1.67928392
H        1.17728027       1.31109249      -1.12765782
H        2.62164073       1.02635653       0.78389772
H        2.70037824      -0.73996722       0.56803025
17
Frame=11 idx=007058 GeodesicLength=1.009873679884129 rxn_smarts="[C:1]([C@@:2]([O:3][H:12])([C@@:4]1([H:13])[C:5]([H:14])([H:15])[C:6]([H:16])([H:17])[O:7]1)[H:11])([H:8])([H:9])[H:10]>>[C:1]([C:2](=[O:3])[C:4]([C:5]([C:6]([O:7][H:12])([H:16])[H:17])([H:14])[H:15])([H:11])[H:13])([H:8])([H:9])[H:10]"
C       -2.31130987      -0.49467129       0.28295617
C       -1.13919885       0.33602797      -0.20699112
O       -0.90860981       1.44714272       0.45164727
C        0.10407850      -0.43516770      -0.50973676
C        1.39006758       0.27596993      -0.87916293
C        2.05728085       0.13161076       0.48640002
O        0.90830584      -0.06352299       1.30873838
H       -3.19099037       0.14237586       0.35908051
H       -2.52219067      -1.33562231      -0.38140542
H       -2.08999835      -0.90964598       1.26898243
H       -0.94729148       0.10555040      -1.51362169
H        0.16127749       0.95429385       1.31972422
H        0.04363024      -1.52169714      -0.53240115
H        1.94195883      -0.21010692      -1.68217651
H        1.18080127       1.31887861      -1.12081615
H        2.63113950       1.01284403       0.78485710
H        2.69104932      -0.75425979       0.56392562
17
Frame=12 idx=007058 GeodesicLength=1.1017932606973255 rxn_smarts="[C:1]([C@@:2]([O:3][H:12])([C@@:4]1([H:13])[C:5]([H:14])([H:15])[C:6]([H:16])([H:17])[O:7]1)[H:11])([H:8])([H:9])[H:10]>>[C:1]([C:2](=[O:3])[C:4]([C:5]([C:6]([O:7][H:12])([H:16])[H:17])([H:14])[H:15])([H:11])[H:13])([H:8])([H:9])[H:10]"
C       -2.31112307      -0.49516601       0.28582023
C       -1.14502912       0.33930330      -0.21009235
O       -0.91647236       1.44976152       0.45034809
C        0.10337850      -0.43136039      -0.51271408
C        1.39070850       0.28131906      -0.87959263
C        2.05748213       0.12462853       0.48485162
O        0.90461263      -0.05989230       1.30364604
H       -3.19075571       0.14012168       0.37591178
H       -2.52653727      -1.33112169      -0.38323842
H       -2.08053625      -0.92059003       1.26537305
H       -0.92719363       0.08165494      -1.52489732
H        0.14718438       0.98274273       1.32194847
H        0.04526434      -1.51812690      -0.52410753
H        1.94265976      -0.20068283      -1.68497769
H        1.18434319       1.32653660      -1.11390099
H        2.64024385       0.99926193       0.78594379
H        2.68177012      -0.76839013       0.55967797
17
Frame=13 idx=007058 GeodesicLength=1.1937127768653315 rxn_smarts="[C:1]([C@@:2]([O:3][H:12])([C@@:4]1([H:13])[C:5]([H:14])([H:15])[C:6]([H:16])([H:17])[O:7]1)[H:11])([H:8])([H:9])[H:10]>>[C:1]([C:2](=[O:3])[C:4]([C:5]([C:6]([O:7][H:12])([H:16])[H:17])([H:14])[H:15])([H:11])[H:13])([H:8])([H:9])[H:10]"
C       -2.31082251      -0.49564783       0.28877272
C       -1.15081850       0.34252009      -0.21326865
O       -0.92436883       1.45241635       0.44883232
C        0.10271002      -0.42766123      -0.51574116
C        1.39138176       0.28660884      -0.87996973
C        2.05761166       0.11755028       0.48329680
O        0.90098477      -0.05671223       1.29850889
H       -3.19024483       0.13777903       0.39289289
H       -2.53089616      -1.32656645      -0.38489168
H       -2.07093378      -0.93136353       1.26167254
H       -0.90702353       0.05787683      -1.53587083
H        0.13270892       1.01168841       1.32404936
H        0.04683210      -1.51454205      -0.51613346
H        1.94346644      -0.19124726      -1.68769094
H        1.18790513       1.33407551      -1.10689540
H        2.64895947       0.98560073       0.78716606
H        2.67254785      -0.78237549       0.55527025
17
Frame=14 idx=007058 GeodesicLength=1.2856189641341844 rxn_smarts="[C:1]([C@@:2]([O:3][H:12])([C@@:4]1([H:13])[C:5]([H:14])([H:15])[C:6]([H:16])([H:17])[O:7]1)[H:11])([H:8])([H:9])[H:10]>>[C:1]([C:2](=[O:3])[C:4]([C:5]([C:6]([O:7][H:12])([H:16])[H:17])([H:14])[H:15])([H:11])[H:13])([H:8])([H:9])[H:10]"
C       -2.31040732      -0.49612107       0.29182404
C       -1.15656937       0.34567363      -0.21650075
O       -0.93230250       1.45511720       0.44709235
C        0.10206793      -0.42406371      -0.51882913
C        1.39208472       0.29184625      -0.88029024
C        2.05766772       0.11036349       0.48173507
O        0.89741345      -0.05401108       1.29332656
H       -3.18945347       0.13534683       0.41001732
H       -2.53525957      -1.32197055      -0.38634530
H       -2.06119558      -0.94196032       1.25789825
H       -0.88675571       0.03420271      -1.54656705
H        0.11783628       1.04118563       1.32600899
H        0.04833293      -1.51094651      -0.50849362
H        1.94437664      -0.18178185      -1.69031788
H        1.19148743       1.34150604      -1.09978051
H        2.65729063       0.97184759       0.78853553
H        2.66338581      -0.79623427       0.55068637
17
Frame=15 idx=007058 GeodesicLength=1.3775084310112866 rxn_smarts="[C:1]([C@@:2]([O:3][H:12])([C@@:4]1([H:13])[C:5]([H:14])([H:15])[C:6]([H:16])([H:17])[O:7]1)[H:11])([H:8])([H:9])[H:10]>>[C:1]([C:2](=[O:3])[C:4]([C:5]([C:6]([O:7][H:12])([H:16])[H:17])([H:14])[H:15])([H:11])[H:13])([H:8])([H:9])[H:10]"
C       -2.30987409      -0.49658989       0.29498757
C       -1.16228499       0.34876055      -0.21977424
O       -0.94027831       1.45787523       0.44511604
C        0.10144666      -0.42056044      -0.52199271
C        1.39281543       0.29703952      -0.88054889
C        2.05764685       0.10305257       0.48016654
O        0.89388582      -0.05182323       1.28809758
H       -3.18837825       0.13282379       0.42728580
H       -2.53961607      -1.31735091      -0.38757554
H       -2.05131912      -0.95237122       1.25407083
H       -0.86636258       0.01061677      -1.55701038
H        0.10254798       1.07129771       1.32779964
H        0.04976621      -1.50734281      -0.50120838
H        1.94539017      -0.17226453      -1.69285908
H        1.19509221       1.34883988      -1.09253328
H        2.66523717       0.95798520       0.79007017
H        2.65428491      -0.80998820       0.54590835
17
Frame=16 idx=007058 GeodesicLength=1.4693657502053858 rxn_smarts="[C:1]([C@@:2]([O:3][H:12])([C@@:4]1([H:13])[C:5]([H:14])([H:15])[C:6]([H:16])([H:17])[O:7]1)[H:11])([H:8])([H:9])[H:10]>>[C:1]([C:2](=[O:3])[C:4]([C:5]([C:6]([O:7][H:12])([H:16])[H:17])([H:14])[H:15])([H:11])[H:13])([H:8])([H:9])[H:10]"
C       -2.30921825      -0.49705878       0.29827707
C       -1.16796905       0.35177764      -0.22307591
O       -0.94830066       1.46070236       0.44289205
C        0.10084015      -0.41714428      -0.52524810
C        1.39357196       0.30219621      -0.88074025
C        2.05754385       0.09560165       0.47859193
O        0.89038755      -0.05018223       1.28281958
H       -3.18701352       0.13020840       0.44470133
H       -2.54395564      -1.31272462      -0.38855863
H       -2.04129831      -0.96258838       1.25021152
H       -0.84581514      -0.01289404      -1.56722582
H        0.08682497       1.10208814       1.32939299
H        0.05113073      -1.50373366      -0.49429975
H        1.94650787      -0.16267398      -1.69531383
H        1.19872188       1.35608784      -1.08513117
H        2.67279743       0.94399602       0.79178726
H        2.64524420      -0.82365831       0.54091971
