11
Frame=0 idx=003027 GeodesicLength=0.0 rxn_smarts="[C:1]([C@@:2]([O:3][H:10])([C:4](=[O:5])[H:11])[H:9])([H:6])([H:7])[H:8]>>[C:1]([C:2](=[C:4]=[O:5])[H:9])([H:6])([H:7])[H:8].[O:3]([H:10])[H:11]"
C        1.10504400      -0.38963260       0.34796636
C       -0.19599639       0.33188224       0.43111555
O       -0.46449648       1.04277530      -1.24962080
C       -1.45076097      -0.44432352       0.36237353
O       -1.91332503      -1.16716238       1.20959828
H        1.94115055       0.22601635       0.01656771
H        1.31609259      -0.73378964       1.36673988
H        1.02735348      -1.27830744      -0.27932706
H       -0.20494509       1.30990175       0.90168199
H        0.13875431       0.66007570      -1.90183142
H       -1.29887102       0.44256424      -1.20526398
11
Frame=1 idx=003027 GeodesicLength=0.10132876829348576 rxn_smarts="[C:1]([C@@:2]([O:3][H:10])([C:4](=[O:5])[H:11])[H:9])([H:6])([H:7])[H:8]>>[C:1]([C:2](=[C:4]=[O:5])[H:9])([H:6])([H:7])[H:8].[O:3]([H:10])[H:11]"
C        1.11117951      -0.39086616       0.35990001
C       -0.18769262       0.33729227       0.42987458
O       -0.45053057       1.05020110      -1.25991682
C       -1.44803468      -0.41969424       0.36795873
O       -1.90568896      -1.20693997       1.15487328
H        1.94489147       0.22048877       0.01492670
H        1.32264467      -0.72009440       1.38328780
H        1.03101826      -1.28787466      -0.25499880
H       -0.19276973       1.31413783       0.90425156
H        0.10793314       0.62286177      -1.92389193
H       -1.33295050       0.48048770      -1.17626511
11
Frame=2 idx=003027 GeodesicLength=0.20255785941885932 rxn_smarts="[C:1]([C@@:2]([O:3][H:10])([C:4](=[O:5])[H:11])[H:9])([H:6])([H:7])[H:8]>>[C:1]([C:2](=[C:4]=[O:5])[H:9])([H:6])([H:7])[H:8].[O:3]([H:10])[H:11]"
C        1.11772303      -0.39204117       0.37214790
C       -0.17895177       0.34245706       0.42900779
O       -0.43743223       1.05529001      -1.27059092
C       -1.44441390      -0.39587662       0.37542294
O       -1.89931641      -1.24407792       1.09401489
H        1.94865885       0.21467754       0.01275524
H        1.33032107      -0.70562548       1.39992723
H        1.03498164      -1.29744709      -0.22987041
H       -0.17999975       1.31860553       0.90620292
H        0.07387610       0.58620751      -1.94399002
H       -1.36544663       0.51783063      -1.14502755
11
Frame=3 idx=003027 GeodesicLength=0.303825292034305 rxn_smarts="[C:1]([C@@:2]([O:3][H:10])([C:4](=[O:5])[H:11])[H:9])([H:6])([H:7])[H:8]>>[C:1]([C:2](=[C:4]=[O:5])[H:9])([H:6])([H:7])[H:8].[O:3]([H:10])[H:11]"
C        1.12473730      -0.39318108       0.38471275
C       -0.16986528       0.34724546       0.42848314
O       -0.42540721       1.05809979      -1.28168186
C       -1.43989605      -0.37328938       0.38471827
O       -1.89427074      -1.27781611       1.02724727
H        1.95250217       0.20860838       0.01009588
H        1.33918545      -0.69043806       1.41669189
H        1.03941853      -1.30702504      -0.20394883
H       -0.16684640       1.32312604       0.90760665
H        0.03687213       0.55044448      -1.96222633
H       -1.39642991       0.55422552      -1.11169883
11
Frame=4 idx=003027 GeodesicLength=0.40561338752115117 rxn_smarts="[C:1]([C@@:2]([O:3][H:10])([C:4](=[O:5])[H:11])[H:9])([H:6])([H:7])[H:8]>>[C:1]([C:2](=[C:4]=[O:5])[H:9])([H:6])([H:7])[H:8].[O:3]([H:10])[H:11]"
C        1.13242513      -0.39440469       0.39759476
C       -0.16062445       0.35146278       0.42820163
O       -0.41462431       1.05900508      -1.29333821
C       -1.43454286      -0.35269896       0.39555652
O       -1.89087334      -1.30728684       0.95543544
H        1.95663470       0.20229361       0.00683452
H        1.34945576      -0.67465493       1.43369125
H        1.04476894      -1.31685506      -0.17711140
H       -0.15389234       1.32751792       0.90852064
H       -0.00260518       0.51608977      -1.97882782
H       -1.42612205       0.58953132      -1.07655732
11
Frame=5 idx=003027 GeodesicLength=0.5065444111982841 rxn_smarts="[C:1]([C@@:2]([O:3][H:10])([C:4](=[O:5])[H:11])[H:9])([H:6])([H:7])[H:8]>>[C:1]([C:2](=[C:4]=[O:5])[H:9])([H:6])([H:7])[H:8].[O:3]([H:10])[H:11]"
C        1.14014360      -0.39541431       0.41063784
C       -0.15107200       0.35485683       0.42795781
O       -0.40480373       1.05740759      -1.30483291
C       -1.42765517      -0.33442197       0.40676476
O       -1.88784126      -1.33121643       0.87875144
H        1.96006565       0.19583747       0.00351922
H        1.36041336      -0.65771665       1.45034105
H        1.05015170      -1.32635191      -0.14967198
H       -0.14073503       1.33102548       0.90921189
H       -0.04469855       0.48280965      -1.99327859
H       -1.45396857       0.62318425      -1.03940052
11
Frame=6 idx=003027 GeodesicLength=0.6079946107926534 rxn_smarts="[C:1]([C@@:2]([O:3][H:10])([C:4](=[O:5])[H:11])[H:9])([H:6])([H:7])[H:8]>>[C:1]([C:2](=[C:4]=[O:5])[H:9])([H:6])([H:7])[H:8].[O:3]([H:10])[H:11]"
C        1.14846279      -0.39657077       0.42381738
C       -0.14169087       0.35723747       0.42753451
O       -0.39606452       1.05450089      -1.31682516
C       -1.41989506      -0.31950002       0.41782673
O       -1.88619208      -1.34930357       0.80020266
H        1.96368973       0.18919391      -0.00023666
H        1.37249438      -0.64025862       1.46697376
H        1.05660065      -1.33616161      -0.12141518
H       -0.12874820       1.33362183       0.90963535
H       -0.08811194       0.45197313      -2.00638477
H       -1.48054490       0.65526737      -1.00112862
11
Frame=7 idx=003027 GeodesicLength=0.709593236453449 rxn_smarts="[C:1]([C@@:2]([O:3][H:10])([C:4](=[O:5])[H:11])[H:9])([H:6])([H:7])[H:8]>>[C:1]([C:2](=[C:4]=[O:5])[H:9])([H:6])([H:7])[H:8].[O:3]([H:10])[H:11]"
C        1.15707712      -0.39781338       0.43703031
C       -0.13252491       0.35853278       0.42674148
O       -0.38805922       1.05043165      -1.32916899
C       -1.41118009      -0.30804553       0.42787251
O       -1.88519899      -1.36154859       0.72111178
H        1.96714968       0.18229684      -0.00428746
H        1.38523717      -0.62210584       1.48336913
H        1.06371775      -1.34616629      -0.09243824
H       -0.11803715       1.33501688       0.90995313
H       -0.13245857       0.42371342      -2.01825997
H       -1.50572280       0.68568806      -0.96192369
11
Frame=8 idx=003027 GeodesicLength=0.8114188412391913 rxn_smarts="[C:1]([C@@:2]([O:3][H:10])([C:4](=[O:5])[H:11])[H:9])([H:6])([H:7])[H:8]>>[C:1]([C:2](=[C:4]=[O:5])[H:9])([H:6])([H:7])[H:8].[O:3]([H:10])[H:11]"
C        1.16590614      -0.39918237       0.45023965
C       -0.12366553       0.35876942       0.42541331
O       -0.38051830       1.04562039      -1.34197817
C       -1.40174787      -0.30000909       0.43632375
O       -1.88453767      -1.36847977       0.64302487
H        1.97049436       0.17504348      -0.00856396
H        1.39839984      -0.60334917       1.49949506
H        1.07135856      -1.35640537      -0.06273994
H       -0.10877849       1.33515806       0.91020657
H       -0.17723762       0.39841950      -2.02926992
H       -1.52967344       0.71441493      -0.92215122
11
Frame=9 idx=003027 GeodesicLength=0.913043350576368 rxn_smarts="[C:1]([C@@:2]([O:3][H:10])([C:4](=[O:5])[H:11])[H:9])([H:6])([H:7])[H:8]>>[C:1]([C:2](=[C:4]=[O:5])[H:9])([H:6])([H:7])[H:8].[O:3]([H:10])[H:11]"
C        1.17464575      -0.40060711       0.46343223
C       -0.11509098       0.35803179       0.42348667
O       -0.37310470       1.04002310      -1.35525214
C       -1.39153632      -0.29490504       0.44287621
O       -1.88330333      -1.37069932       0.56645160
H        1.97340308       0.16729530      -0.01287725
H        1.41148182      -0.58393909       1.51528188
H        1.07912634      -1.36665494      -0.03240015
H       -0.10081635       1.33393905       0.91047428
H       -0.22250667       0.37597402      -2.03967473
H       -1.55229864       0.74154224      -0.88179859
11
Frame=10 idx=003027 GeodesicLength=1.014890756652091 rxn_smarts="[C:1]([C@@:2]([O:3][H:10])([C:4](=[O:5])[H:11])[H:9])([H:6])([H:7])[H:8]>>[C:1]([C:2](=[C:4]=[O:5])[H:9])([H:6])([H:7])[H:8].[O:3]([H:10])[H:11]"
C        1.18342339      -0.40217649       0.47656704
C       -0.10686764       0.35646597       0.42083330
O       -0.36560895       1.03419431      -1.36917982
C       -1.38094420      -0.29258883       0.44741027
O       -1.88188228      -1.36906976       0.49263255
H        1.97626707       0.15897834      -0.01727454
H        1.42448323      -0.56409055       1.53071569
H        1.08710289      -1.37707823      -0.00141786
H       -0.09432043       1.33165115       0.91063314
H       -0.26756694       0.35681393      -2.04976166
H       -1.57408612       0.76690016      -0.84115811
11
Frame=11 idx=003027 GeodesicLength=1.1167926271630626 rxn_smarts="[C:1]([C@@:2]([O:3][H:10])([C:4](=[O:5])[H:11])[H:9])([H:6])([H:7])[H:8]>>[C:1]([C:2](=[C:4]=[O:5])[H:9])([H:6])([H:7])[H:8].[O:3]([H:10])[H:11]"
C        1.19211117      -0.40384846       0.48967047
C       -0.09892746       0.35419337       0.41742675
O       -0.35776801       1.02811271      -1.38381062
C       -1.36997978      -0.29259484       0.44993599
O       -1.87990521      -1.36428709       0.42155381
H        1.97900178       0.14995712      -0.02167761
H        1.43719451      -0.54373214       1.54579495
H        1.09505723      -1.38756423       0.03025511
H       -0.08907279       1.32836172       0.91064782
H       -0.31252189       0.34083816      -2.05972019
H       -1.59518956       0.79056369      -0.80007648
11
Frame=12 idx=003027 GeodesicLength=1.2187066785763854 rxn_smarts="[C:1]([C@@:2]([O:3][H:10])([C:4](=[O:5])[H:11])[H:9])([H:6])([H:7])[H:8]>>[C:1]([C:2](=[C:4]=[O:5])[H:9])([H:6])([H:7])[H:8].[O:3]([H:10])[H:11]"
C        1.20066524      -0.40561094       0.50278310
C       -0.09120381       0.35132856       0.41323586
O       -0.34937547       1.02181630      -1.39926753
C       -1.35866624      -0.29458789       0.45051924
O       -1.87725111      -1.35698140       0.35320054
H        1.98162817       0.14011935      -0.02603240
H        1.44952710      -0.52283798       1.56056302
H        1.10286083      -1.39807458       0.06269507
H       -0.08490459       1.32420435       0.91044380
H       -0.35742935       0.32804794      -2.06973967
H       -1.61585078       0.81257629      -0.75840103
11
Frame=13 idx=003027 GeodesicLength=1.3206775486074076 rxn_smarts="[C:1]([C@@:2]([O:3][H:10])([C:4](=[O:5])[H:11])[H:9])([H:6])([H:7])[H:8]>>[C:1]([C:2](=[C:4]=[O:5])[H:9])([H:6])([H:7])[H:8].[O:3]([H:10])[H:11]"
C        1.20910995      -0.40749546       0.51599385
C       -0.08364458       0.34800081       0.40825206
O       -0.34026204       1.01531458      -1.41576826
C       -1.34703328      -0.29827396       0.44927528
O       -1.87380653      -1.34776039       0.28737257
H        1.98423665       0.12933349      -0.03027641
H        1.46148325      -0.50139574       1.57515929
H        1.11050556      -1.40870976       0.09604138
H       -0.08169827       1.31941933       0.90995792
H       -0.40253225       0.31846522      -2.08008740
H       -1.63635848       0.83310188      -0.71592027
11
Frame=14 idx=003027 GeodesicLength=1.42279839963409 rxn_smarts="[C:1]([C@@:2]([O:3][H:10])([C:4](=[O:5])[H:11])[H:9])([H:6])([H:7])[H:8]>>[C:1]([C:2](=[C:4]=[O:5])[H:9])([H:6])([H:7])[H:8].[O:3]([H:10])[H:11]"
C        1.21791705      -0.40964655       0.52974637
C       -0.07599144       0.34437100       0.40247067
O       -0.33070835       1.00892716      -1.43371954
C       -1.33518576      -0.30367247       0.44599474
O       -1.87019373      -1.33750520       0.22311841
H        1.98732804       0.11733219      -0.03409788
H        1.47407638      -0.47914234       1.59018928
H        1.11810591      -1.42010106       0.13108205
H       -0.07891431       1.31458079       0.90919807
H       -0.44896505       0.31231285      -2.09125964
H       -1.65746874       0.85254363      -0.67272252
11
Frame=15 idx=003027 GeodesicLength=1.5251073285842565 rxn_smarts="[C:1]([C@@:2]([O:3][H:10])([C:4](=[O:5])[H:11])[H:9])([H:6])([H:7])[H:8]>>[C:1]([C:2](=[C:4]=[O:5])[H:9])([H:6])([H:7])[H:8].[O:3]([H:10])[H:11]"
C        1.22533972      -0.41114200       0.54236750
C       -0.06885016       0.34007843       0.39532995
O       -0.31865836       1.00063535      -1.45155758
C       -1.32290889      -0.30974051       0.44133637
O       -1.86467602      -1.32402974       0.16216919
H        1.98954386       0.10459183      -0.03835017
H        1.48355164      -0.45624591       1.60265155
H        1.12462941      -1.42903698       0.16561235
H       -0.07765642       1.30740708       0.90708451
H       -0.49276923       0.30863381      -2.09993839
H       -1.67754556       0.86884864      -0.62670528
11
Frame=16 idx=003027 GeodesicLength=1.626982719879579 rxn_smarts="[C:1]([C@@:2]([O:3][H:10])([C:4](=[O:5])[H:11])[H:9])([H:6])([H:7])[H:8]>>[C:1]([C:2](=[C:4]=[O:5])[H:9])([H:6])([H:7])[H:8].[O:3]([H:10])[H:11]"
C        1.23320112      -0.41298009       0.55582093
C       -0.06144624       0.33568972       0.38742763
O       -0.30568720       0.99208289      -1.47159965
C       -1.31027601      -0.31720885       0.43493869
O       -1.85887956      -1.31049043       0.10246070
H        1.99248281       0.09066268      -0.04168548
H        1.49351652      -0.43287585       1.61610495
H        1.13126855      -1.43890516       0.20180635
H       -0.07656224       1.30090229       0.90432429
H       -0.53897790       0.30884967      -2.11026167
H       -1.69863984       0.88427312      -0.57933673
