16
Frame=0 idx=003093 GeodesicLength=0.0 rxn_smarts="[C:1]1([H:7])([H:8])[C:2]([H:9])([H:10])[C@:3]2([H:11])[C:4]([H:12])([H:13])[C:5]([H:14])([H:15])[C@:6]12[H:16]>>[C:1]([C@@:6]1([H:16])[C@:3]([C:2][H:10])([H:11])[C:4]([H:12])([H:13])[C:5]1([H:14])[H:15])([H:7])([H:8])[H:9]"
C       -0.78715878      -1.11493053       0.77249163
C       -1.73502407       0.72709899       0.08712595
C       -0.46179913       0.68788438      -0.72298833
C        0.90709429       1.16792162      -0.15961961
C        1.44033386      -0.28212241      -0.25097998
C        0.00291178      -0.76775307      -0.49633975
H       -0.28731192      -0.84103481       1.69885399
H       -1.15694424      -2.13915096       0.84205919
H       -1.83790934      -0.56265110       0.64292807
H       -1.59283073       1.29498677       1.02132076
H       -0.63525301       0.99597371      -1.75592416
H        1.44149454       1.90771527      -0.75561568
H        0.82973726       1.54372516       0.86251926
H        1.94886184      -0.68723672       0.62624502
H        2.07880729      -0.43428643      -1.12160319
H       -0.15500965      -1.49613982      -1.29047313
16
Frame=1 idx=003093 GeodesicLength=0.056984004645621984 rxn_smarts="[C:1]1([H:7])([H:8])[C:2]([H:9])([H:10])[C@:3]2([H:11])[C:4]([H:12])([H:13])[C:5]([H:14])([H:15])[C@:6]12[H:16]>>[C:1]([C@@:6]1([H:16])[C@:3]([C:2][H:10])([H:11])[C:4]([H:12])([H:13])[C:5]1([H:14])[H:15])([H:7])([H:8])[H:9]"
C       -0.79050676      -1.11109679       0.77310196
C       -1.72619794       0.72309082       0.09346846
C       -0.46001245       0.69359911      -0.72306890
C        0.91005571       1.16994394      -0.16190544
C        1.43895104      -0.28152699      -0.24988458
C        0.00131600      -0.76654061      -0.49530341
H       -0.29228860      -0.83673836       1.70053530
H       -1.14087671      -2.14206757       0.84375999
H       -1.86445724      -0.57633290       0.63312325
H       -1.58736498       1.29188161       1.02713533
H       -0.63423549       0.99662942      -1.75714186
H        1.44585047       1.90663902      -0.76042529
H        0.83513294       1.54847543       0.85938774
H        1.94505306      -0.68702402       0.62854402
H        2.07746955      -0.43649767      -1.12000119
H       -0.15788859      -1.49243443      -1.29132539
16
Frame=2 idx=003093 GeodesicLength=0.11397235691446307 rxn_smarts="[C:1]1([H:7])([H:8])[C:2]([H:9])([H:10])[C@:3]2([H:11])[C:4]([H:12])([H:13])[C:5]([H:14])([H:15])[C@:6]12[H:16]>>[C:1]([C@@:6]1([H:16])[C@:3]([C:2][H:10])([H:11])[C:4]([H:12])([H:13])[C:5]1([H:14])[H:15])([H:7])([H:8])[H:9]"
C       -0.79382241      -1.10740517       0.77372021
C       -1.71740492       0.71870922       0.09981933
C       -0.45826893       0.69922404      -0.72309864
C        0.91295037       1.17195589      -0.16416235
C        1.43762419      -0.28087464      -0.24879428
C       -0.00017804      -0.76541037      -0.49423294
H       -0.29691689      -0.83294630       1.70216914
H       -1.12561145      -2.14445811       0.84531650
H       -1.89039221      -0.58946092       0.62348903
H       -1.58202140       1.28885283       1.03269456
H       -0.63329569       0.99715858      -1.75828902
H        1.45004622       1.90560814      -0.76518998
H        0.84041570       1.55316074       0.85628969
H        1.94134458      -0.68671618       0.63082158
H        2.07616809      -0.43858240      -1.11842171
H       -0.16063721      -1.48881536      -1.29213114
16
Frame=3 idx=003093 GeodesicLength=0.17095952529877972 rxn_smarts="[C:1]1([H:7])([H:8])[C:2]([H:9])([H:10])[C@:3]2([H:11])[C:4]([H:12])([H:13])[C:5]([H:14])([H:15])[C@:6]12[H:16]>>[C:1]([C@@:6]1([H:16])[C@:3]([C:2][H:10])([H:11])[C:4]([H:12])([H:13])[C:5]1([H:14])[H:15])([H:7])([H:8])[H:9]"
C       -0.79708586      -1.10385879       0.77435351
C       -1.70864073       0.71399588       0.10616670
C       -0.45656916       0.70476020      -0.72307549
C        0.91578012       1.17395720      -0.16639111
C        1.43635268      -0.28016774      -0.24771140
C       -0.00157320      -0.76436117      -0.49312823
H       -0.30121534      -0.82961386       1.70376893
H       -1.11110694      -2.14638683       0.84673085
H       -1.91578599      -0.60204343       0.61401216
H       -1.57679124       1.28588938       1.03801466
H       -0.63242242       0.99756279      -1.75936563
H        1.45408656       1.90462068      -0.76991165
H        0.84559232       1.55778398       0.85322392
H        1.93774025      -0.68631539       0.63307334
H        2.07490083      -0.44054359      -1.11686880
H       -0.16326187      -1.48527929      -1.29289177
16
Frame=4 idx=003093 GeodesicLength=0.227926898238756 rxn_smarts="[C:1]1([H:7])([H:8])[C:2]([H:9])([H:10])[C@:3]2([H:11])[C:4]([H:12])([H:13])[C:5]([H:14])([H:15])[C@:6]12[H:16]>>[C:1]([C@@:6]1([H:16])[C@:3]([C:2][H:10])([H:11])[C:4]([H:12])([H:13])[C:5]1([H:14])[H:15])([H:7])([H:8])[H:9]"
C       -0.80028209      -1.10045846       0.77500798
C       -1.69990135       0.70898776       0.11249987
C       -0.45491387       0.71020894      -0.72299772
C        0.91854647       1.17594770      -0.16859279
C        1.43513549      -0.27940860      -0.24663751
C       -0.00287247      -0.76339190      -0.49198931
H       -0.30520147      -0.82670265       1.70534593
H       -1.09732073      -2.14791517       0.84800475
H       -1.94070021      -0.61408375       0.60468118
H       -1.57166719       1.28298095       1.04310993
H       -0.63160616       0.99784409      -1.76037172
H        1.45797580       1.90367464      -0.77459269
H        0.85066857       1.56234833       0.85018899
H        1.93424212      -0.68582393       0.63529647
H        2.07366590      -0.44238454      -1.11534506
H       -0.16576882      -1.48182339      -1.29360831
16
Frame=5 idx=003093 GeodesicLength=0.2848805199875833 rxn_smarts="[C:1]1([H:7])([H:8])[C:2]([H:9])([H:10])[C@:3]2([H:11])[C:4]([H:12])([H:13])[C:5]([H:14])([H:15])[C@:6]12[H:16]>>[C:1]([C@@:6]1([H:16])[C@:3]([C:2][H:10])([H:11])[C:4]([H:12])([H:13])[C:5]1([H:14])[H:15])([H:7])([H:8])[H:9]"
C       -0.80339611      -1.09720525       0.77568965
C       -1.69118177       0.70371946       0.11881078
C       -0.45330356       0.71557156      -0.72286359
C        0.92125125       1.17792739      -0.17076865
C        1.43397202      -0.27859946      -0.24557428
C       -0.00407836      -0.76250150      -0.49081571
H       -0.30889289      -0.82417534       1.70691119
H       -1.08420920      -2.14909828       0.84914235
H       -1.96520065      -0.62558533       0.59547798
H       -1.56664198       1.28011496       1.04799642
H       -0.63083847       0.99800427      -1.76130703
H        1.46171833       1.90276828      -0.77923580
H        0.85565077       1.56685689       0.84718323
H        1.93085294      -0.68524390       0.63748799
H        2.07246161      -0.44410858      -1.11385351
H       -0.16816395      -1.47844516      -1.29428101
16
Frame=6 idx=003093 GeodesicLength=0.34180917424366397 rxn_smarts="[C:1]1([H:7])([H:8])[C:2]([H:9])([H:10])[C@:3]2([H:11])[C:4]([H:12])([H:13])[C:5]([H:14])([H:15])[C@:6]12[H:16]>>[C:1]([C@@:6]1([H:16])[C@:3]([C:2][H:10])([H:11])[C:4]([H:12])([H:13])[C:5]1([H:14])[H:15])([H:7])([H:8])[H:9]"
C       -0.80641655      -1.09409636       0.77640409
C       -1.68247838       0.69821862       0.12509293
C       -0.45173782       0.72084940      -0.72267287
C        0.92389643       1.17989663      -0.17292016
C        1.43286200      -0.27774194      -0.24452298
C       -0.00519271      -0.76168879      -0.48960742
H       -0.31230271      -0.82200150       1.70847376
H       -1.07173713      -2.14998196       0.85014768
H       -1.98934347      -0.63655245       0.58638708
H       -1.56170924       1.27727790       1.05268903
H       -0.63011239       0.99804562      -1.76217209
H        1.46531829       1.90190025      -0.78384365
H        0.86054394       1.57131271       0.84420453
H        1.92757472      -0.68457671       0.63964597
H        2.07128720      -0.44571875      -1.11239602
H       -0.17045217      -1.47514267      -1.29490988
16
Frame=7 idx=003093 GeodesicLength=0.39872043444601035 rxn_smarts="[C:1]1([H:7])([H:8])[C:2]([H:9])([H:10])[C@:3]2([H:11])[C:4]([H:12])([H:13])[C:5]([H:14])([H:15])[C@:6]12[H:16]>>[C:1]([C@@:6]1([H:16])[C@:3]([C:2][H:10])([H:11])[C:4]([H:12])([H:13])[C:5]1([H:14])[H:15])([H:7])([H:8])[H:9]"
C       -0.80933243      -1.09113090       0.77715601
C       -1.67378668       0.69251086       0.13134213
C       -0.45021651       0.72604360      -0.72242487
C        0.92648398       1.18185552      -0.17504872
C        1.43180522      -0.27683802      -0.24348501
C       -0.00621715      -0.76095289      -0.48836450
H       -0.31544530      -0.82015159       1.71004194
H       -1.05986469      -2.15060715       0.85102874
H       -2.01318730      -0.64698697       0.57738737
H       -1.55686306       1.27445597       1.05720300
H       -0.62942216       0.99797046      -1.76296683
H        1.46877969       1.90106930      -0.78841882
H        0.86535330       1.57571847       0.84125136
H        1.92440945      -0.68382437       0.64176828
H        2.07014200      -0.44721803      -1.11097488
H       -0.17263835      -1.47191428      -1.29549520
16
Frame=8 idx=003093 GeodesicLength=0.45561136520229056 rxn_smarts="[C:1]1([H:7])([H:8])[C:2]([H:9])([H:10])[C@:3]2([H:11])[C:4]([H:12])([H:13])[C:5]([H:14])([H:15])[C@:6]12[H:16]>>[C:1]([C@@:6]1([H:16])[C@:3]([C:2][H:10])([H:11])[C:4]([H:12])([H:13])[C:5]1([H:14])[H:15])([H:7])([H:8])[H:9]"
C       -0.81213445      -1.08830636       0.77794997
C       -1.66510301       0.68661805       0.13755456
C       -0.44873931       0.73115499      -0.72211907
C        0.92901546       1.18380427      -0.17715576
C        1.43080179      -0.27588913      -0.24246141
C       -0.00715265      -0.76029332      -0.48708675
H       -0.31833185      -0.81860031       1.71162305
H       -1.04855867      -2.15100988       0.85179072
H       -2.03678328      -0.65688993       0.56846052
H       -1.55209850       1.27163619       1.06155246
H       -0.62876294       0.99778059      -1.76369116
H        1.47210561       1.90027428      -0.79296408
H        0.87008334       1.58007682       0.83832176
H        1.92135920      -0.68298822       0.64385348
H        2.06902564      -0.44860895      -1.10959169
H       -0.17472637      -1.46875909      -1.29603660
16
Frame=9 idx=003093 GeodesicLength=0.512461279996407 rxn_smarts="[C:1]1([H:7])([H:8])[C:2]([H:9])([H:10])[C@:3]2([H:11])[C:4]([H:12])([H:13])[C:5]([H:14])([H:15])[C@:6]12[H:16]>>[C:1]([C@@:6]1([H:16])[C@:3]([C:2][H:10])([H:11])[C:4]([H:12])([H:13])[C:5]1([H:14])[H:15])([H:7])([H:8])[H:9]"
C       -0.81481446      -1.08562228       0.77879151
C       -1.65642513       0.68056051       0.14372315
C       -0.44730715       0.73618346      -0.72175486
C        0.93149061       1.18574258      -0.17924158
C        1.42985069      -0.27489697      -0.24145317
C       -0.00800136      -0.75971021      -0.48577285
H       -0.32097150      -0.81732841       1.71322471
H       -1.03778181      -2.15123247       0.85243568
H       -2.06017063      -0.66624506       0.55959376
H       -1.54741401       1.26880902       1.06574461
H       -0.62812918       0.99747677      -1.76434494
H        1.47529761       1.89951491      -0.79748002
H        0.87473532       1.58438886       0.83541553
H        1.91842541      -0.68207006       0.64589960
H        2.06793638      -0.44989363      -1.10824870
H       -0.17672079      -1.46567702      -1.29653245
16
Frame=10 idx=003093 GeodesicLength=0.5692992281618335 rxn_smarts="[C:1]1([H:7])([H:8])[C:2]([H:9])([H:10])[C@:3]2([H:11])[C:4]([H:12])([H:13])[C:5]([H:14])([H:15])[C@:6]12[H:16]>>[C:1]([C@@:6]1([H:16])[C@:3]([C:2][H:10])([H:11])[C:4]([H:12])([H:13])[C:5]1([H:14])[H:15])([H:7])([H:8])[H:9]"
C       -0.81736448      -1.08307338       0.77968403
C       -1.64774827       0.67435314       0.14984952
C       -0.44591817       0.74113048      -0.72133253
C        0.93391270       1.18767124      -0.18130824
C        1.42895347      -0.27386262      -0.24046181
C       -0.00876258      -0.75920269      -0.48442370
H       -0.32337349      -0.81631211       1.71485256
H       -1.02750558      -2.15129411       0.85297650
H       -2.08340923      -0.67506391       0.55075972
H       -1.54280319       1.26595736       1.06979813
H       -0.62751810       0.99706151      -1.76492863
H        1.47835960       1.89879036      -0.80197009
H        0.87931515       1.58865724       0.83253016
H        1.91561076      -0.68107109       0.64790502
H        2.06687566      -0.45107419      -1.10694768
H       -0.17862425      -1.46266725      -1.29698296
16
Frame=11 idx=003093 GeodesicLength=0.626134043482646 rxn_smarts="[C:1]1([H:7])([H:8])[C:2]([H:9])([H:10])[C@:3]2([H:11])[C:4]([H:12])([H:13])[C:5]([H:14])([H:15])[C@:6]12[H:16]>>[C:1]([C@@:6]1([H:16])[C@:3]([C:2][H:10])([H:11])[C:4]([H:12])([H:13])[C:5]1([H:14])[H:15])([H:7])([H:8])[H:9]"
C       -0.81977804      -1.08065614       0.78063133
C       -1.63907004       0.66800854       0.15593368
C       -0.44457156       0.74599646      -0.72085189
C        0.93628334       1.18959028      -0.18335694
C        1.42811046      -0.27278754      -0.23948840
C       -0.00943685      -0.75877063      -0.48303905
H       -0.32554631      -0.81553162       1.71651233
H       -1.01769538      -2.15122118       0.85342210
H       -2.10654731      -0.68334276       0.54193385
H       -1.53826183       1.26306966       1.07372572
H       -0.62692786       0.99653704      -1.76544133
H        1.48129427       1.89809988      -0.80643652
H        0.88382671       1.59288376       0.82966430
H        1.91291701      -0.67999289       0.64986841
H        2.06584347      -0.45215316      -1.10569026
H       -0.18044008      -1.45972968      -1.29738732
16
Frame=12 idx=003093 GeodesicLength=0.6829661947660489 rxn_smarts="[C:1]1([H:7])([H:8])[C:2]([H:9])([H:10])[C@:3]2([H:11])[C:4]([H:12])([H:13])[C:5]([H:14])([H:15])[C@:6]12[H:16]>>[C:1]([C@@:6]1([H:16])[C@:3]([C:2][H:10])([H:11])[C:4]([H:12])([H:13])[C:5]1([H:14])[H:15])([H:7])([H:8])[H:9]"
C       -0.82204838      -1.07836903       0.78163725
C       -1.63038788       0.66153745       0.16197434
C       -0.44326725       0.75078081      -0.72031302
C        0.93860306       1.19149972      -0.18538829
C        1.42732215      -0.27167284      -0.23853416
C       -0.01002406      -0.75841454      -0.48161865
H       -0.32749587      -0.81497170       1.71820918
H       -1.00832203      -2.15103747       0.85378013
H       -2.12962661      -0.69107053       0.53309721
H       -1.53378735       1.26013463       1.07753719
H       -0.62635580       0.99590384      -1.76588323
H        1.48410271       1.89744377      -0.81088023
H        0.88827149       1.59706934       0.82681751
H        1.91034638      -0.67883690       0.65178795
H        2.06483998      -0.45313148      -1.10447854
H       -0.18217053      -1.45686507      -1.29774464
16
Frame=13 idx=003093 GeodesicLength=0.7398024899471422 rxn_smarts="[C:1]1([H:7])([H:8])[C:2]([H:9])([H:10])[C@:3]2([H:11])[C:4]([H:12])([H:13])[C:5]([H:14])([H:15])[C@:6]12[H:16]>>[C:1]([C@@:6]1([H:16])[C@:3]([C:2][H:10])([H:11])[C:4]([H:12])([H:13])[C:5]1([H:14])[H:15])([H:7])([H:8])[H:9]"
C       -0.82416954      -1.07620864       0.78270587
C       -1.62169986       0.65494835       0.16797243
C       -0.44200458       0.75548331      -0.71971643
C        0.94087298       1.19339963      -0.18740301
C        1.42658920      -0.27051968      -0.23760032
C       -0.01052419      -0.75813473      -0.48016194
H       -0.32922680      -0.81461693       1.71994811
H       -0.99935597      -2.15076285       0.85405886
H       -2.15269049      -0.69824036       0.52422653
H       -1.52937699       1.25714152       1.08124341
H       -0.62580046       0.99516288      -1.76625435
H        1.48678670       1.89682214      -0.81530222
H        0.89265160       1.60121488       0.82398911
H        1.90790131      -0.67760457       0.65366185
H        2.06386533      -0.45401072      -1.10331455
H       -0.18381825      -1.45407424      -1.29805334
16
Frame=14 idx=003093 GeodesicLength=0.7966407450971305 rxn_smarts="[C:1]1([H:7])([H:8])[C:2]([H:9])([H:10])[C@:3]2([H:11])[C:4]([H:12])([H:13])[C:5]([H:14])([H:15])[C@:6]12[H:16]>>[C:1]([C@@:6]1([H:16])[C@:3]([C:2][H:10])([H:11])[C:4]([H:12])([H:13])[C:5]1([H:14])[H:15])([H:7])([H:8])[H:9]"
C       -0.82613557      -1.07417276       0.78384104
C       -1.61300338       0.64824688       0.17392876
C       -0.44078351       0.76010278      -0.71906133
C        0.94309317       1.19528999      -0.18940179
C        1.42591271      -0.26932871      -0.23668811
C       -0.01093606      -0.75793243      -0.47866832
H       -0.33074142      -0.81445629       1.72173372
H       -0.99077492      -2.15041399       0.85426677
H       -2.17577585      -0.70483973       0.51529866
H       -1.52502884       1.25408013       1.08485375
H       -0.62526108       0.99431400      -1.76655366
H        1.48934568       1.89623548      -0.81970388
H        0.89696830       1.60532097       0.82117845
H        1.90558491      -0.67629639       0.65548841
H        2.06292022      -0.45479106      -1.10220044
H       -0.18538436      -1.45135889      -1.29831203
16
Frame=15 idx=003093 GeodesicLength=0.8534861725657196 rxn_smarts="[C:1]1([H:7])([H:8])[C:2]([H:9])([H:10])[C@:3]2([H:11])[C:4]([H:12])([H:13])[C:5]([H:14])([H:15])[C@:6]12[H:16]>>[C:1]([C@@:6]1([H:16])[C@:3]([C:2][H:10])([H:11])[C:4]([H:12])([H:13])[C:5]1([H:14])[H:15])([H:7])([H:8])[H:9]"
C       -0.82794045      -1.07225889       0.78504671
C       -1.60429667       0.64143713       0.17984545
C       -0.43960381       0.76463808      -0.71834766
C        0.94526408       1.19717083      -0.19138515
C        1.42529386      -0.26810069      -0.23579889
C       -0.01125866      -0.75780873      -0.47713705
H       -0.33204169      -0.81447764       1.72357052
H       -0.98255528      -2.15000523       0.85441239
H       -2.19892167      -0.71085835       0.50628885
H       -1.52074035       1.25094089       1.08837812
H       -0.62473741       0.99335700      -1.76678064
H        1.49177988       1.89568450      -0.82408601
H        0.90122295       1.60938821       0.81838521
H        1.90340034      -0.67491328       0.65726559
H        2.06200522      -0.45547295      -1.10113857
H       -0.18687032      -1.44872089      -1.29851887
16
Frame=16 idx=003093 GeodesicLength=0.9103390519736301 rxn_smarts="[C:1]1([H:7])([H:8])[C:2]([H:9])([H:10])[C@:3]2([H:11])[C:4]([H:12])([H:13])[C:5]([H:14])([H:15])[C@:6]12[H:16]>>[C:1]([C@@:6]1([H:16])[C@:3]([C:2][H:10])([H:11])[C:4]([H:12])([H:13])[C:5]1([H:14])[H:15])([H:7])([H:8])[H:9]"
C       -0.82957855      -1.07046539       0.78632692
C       -1.59557791       0.63452216       0.18572420
C       -0.43846570       0.76908749      -0.71757518
C        0.94738551       1.19904195      -0.19335327
C        1.42473361      -0.26683644      -0.23493403
C       -0.01149097      -0.75776521      -0.47556725
H       -0.33312845      -0.81467123       1.72546281
H       -0.97467251      -2.14955126       0.85450427
H       -2.22216354      -0.71627966       0.49717304
H       -1.51651040       1.24771503       1.09182448
H       -0.62422952       0.99229120      -1.76693455
H        1.49408855       1.89517006      -0.82844887
H        0.90541570       1.61341647       0.81560953
H        1.90135080      -0.67345622       0.65899129
H        2.06112064      -0.45605650      -1.10013141
H       -0.18827727      -1.44616245      -1.29867198
