14
Frame=0 idx=005071 GeodesicLength=0.0 rxn_smarts="[C:1]([C:2]([C@@:3]([N:4]([H:13])[H:14])([C:5]#[N:6])[H:12])([H:10])[H:11])([H:7])([H:8])[H:9]>>[C:1](/[C:2](=[C:3](/[N:4]([H:13])[H:14])[C:5]#[N:6])[H:11])([H:7])([H:8])[H:9].[H:10][H:12]"
C       -1.74607009       0.29621570      -0.12719206
C       -0.51073006      -0.55949163      -0.04726426
C        0.81259656       0.08052531      -0.10641893
N        1.91380545      -0.71202782      -0.53251626
C        0.94330244       1.40819329       0.34035603
N        1.05121894       2.49643793       0.72185085
H       -1.80102065       0.67581581      -1.14911071
H       -1.67506872       1.15369094       0.54034507
H       -2.64867190      -0.27066113       0.09819364
H       -0.80823795      -1.21427729       1.18581801
H       -0.52029595      -1.49331327      -0.60004058
H        0.05422484      -0.70095776       1.04825290
H        2.22963709      -0.48450991      -1.46535171
H        2.70530994      -0.67564019       0.09307803
14
Frame=1 idx=005071 GeodesicLength=0.11149140346240319 rxn_smarts="[C:1]([C:2]([C@@:3]([N:4]([H:13])[H:14])([C:5]#[N:6])[H:12])([H:10])[H:11])([H:7])([H:8])[H:9]>>[C:1](/[C:2](=[C:3](/[N:4]([H:13])[H:14])[C:5]#[N:6])[H:11])([H:7])([H:8])[H:9].[H:10][H:12]"
C       -1.74684402       0.30137646      -0.12935473
C       -0.51337734      -0.55790527      -0.05132195
C        0.81100341       0.07479443      -0.08990312
N        1.91575182      -0.71488426      -0.51114474
C        0.94199569       1.41185115       0.33530069
N        1.05400547       2.50447610       0.70072146
H       -1.79958860       0.69709268      -1.14529534
H       -1.68289535       1.14787228       0.55291278
H       -2.65153009      -0.26815083       0.08129591
H       -0.79777338      -1.24112986       1.18710607
H       -0.52526475      -1.47580353      -0.63109942
H        0.07154883      -0.71828143       1.07029413
H        2.20101201      -0.52130663      -1.46115722
H        2.72195629      -0.64000129       0.09164549
14
Frame=2 idx=005071 GeodesicLength=0.22252099465677355 rxn_smarts="[C:1]([C:2]([C@@:3]([N:4]([H:13])[H:14])([C:5]#[N:6])[H:12])([H:10])[H:11])([H:7])([H:8])[H:9]>>[C:1](/[C:2](=[C:3](/[N:4]([H:13])[H:14])[C:5]#[N:6])[H:11])([H:7])([H:8])[H:9].[H:10][H:12]"
C       -1.74769884       0.30661225      -0.13173474
C       -0.51610557      -0.55622947      -0.05555413
C        0.80911505       0.06907820      -0.07271422
N        1.91737267      -0.71724415      -0.49011541
C        0.94056361       1.41535827       0.33029961
N        1.05679356       2.51227767       0.67904473
H       -1.79810816       0.71841759      -1.14141642
H       -1.69103600       1.14181808       0.56510443
H       -2.65433311      -0.26544097       0.06401556
H       -0.78630903      -1.26830898       1.18810535
H       -0.52955967      -1.45742926      -0.66185645
H        0.08957322      -0.73567700       1.09338286
H        2.17269431      -0.55796730      -1.45472395
H        2.73703796      -0.60526494       0.08816278
14
Frame=3 idx=005071 GeodesicLength=0.33327159827499164 rxn_smarts="[C:1]([C:2]([C@@:3]([N:4]([H:13])[H:14])([C:5]#[N:6])[H:12])([H:10])[H:11])([H:7])([H:8])[H:9]>>[C:1](/[C:2](=[C:3](/[N:4]([H:13])[H:14])[C:5]#[N:6])[H:11])([H:7])([H:8])[H:9].[H:10][H:12]"
C       -1.74865995       0.31192881      -0.13433323
C       -0.51893507      -0.55445337      -0.06004724
C        0.80689297       0.06335659      -0.05486325
N        1.91865596      -0.71913226      -0.46940986
C        0.93899406       1.41867333       0.32532964
N        1.05957598       2.51977512       0.65679156
H       -1.79663548       0.73984316      -1.13745230
H       -1.69950863       1.13550236       0.57694312
H       -2.65709059      -0.26254001       0.04634857
H       -0.77367358      -1.29574576       1.18879644
H       -0.53319211      -1.43817004      -0.69243211
H        0.10841939      -0.75309325       1.11762418
H        2.14468555      -0.59440239      -1.44617796
H        2.75047150      -0.57154226       0.08288242
14
Frame=4 idx=005071 GeodesicLength=0.4439231588432421 rxn_smarts="[C:1]([C:2]([C@@:3]([N:4]([H:13])[H:14])([C:5]#[N:6])[H:12])([H:10])[H:11])([H:7])([H:8])[H:9]>>[C:1](/[C:2](=[C:3](/[N:4]([H:13])[H:14])[C:5]#[N:6])[H:11])([H:7])([H:8])[H:9].[H:10][H:12]"
C       -1.74975641       0.31733115      -0.13716279
C       -0.52189519      -0.55256850      -0.06489378
C        0.80428921       0.05759005      -0.03635203
N        1.91956295      -0.72059723      -0.44902166
C        0.93727921       1.42173248       0.32040368
N        1.06235438       2.52689510       0.63390883
H       -1.79523533       0.76140001      -1.13339473
H       -1.70832989       1.12890746       0.58842828
H       -2.65981781      -0.25945286       0.02829781
H       -0.75970140      -1.32332973       1.18917467
H       -0.53618577      -1.41800034      -0.72292682
H        0.12822494      -0.77050412       1.14314355
H        2.11702711      -0.63043504      -1.43562113
H        2.76218398      -0.53896842       0.07601611
14
Frame=5 idx=005071 GeodesicLength=0.5545803661431632 rxn_smarts="[C:1]([C:2]([C@@:3]([N:4]([H:13])[H:14])([C:5]#[N:6])[H:12])([H:10])[H:11])([H:7])([H:8])[H:9]>>[C:1](/[C:2](=[C:3](/[N:4]([H:13])[H:14])[C:5]#[N:6])[H:11])([H:7])([H:8])[H:9].[H:10][H:12]"
C       -1.75102058       0.32282417      -0.14025692
C       -0.52502207      -0.55057332      -0.07015326
C        0.80124922       0.05172976      -0.01715557
N        1.92004215      -0.72168742      -0.42895383
C        0.93540176       1.42447315       0.31554878
N        1.06513472       2.53354125       0.61042724
H       -1.79394005       0.78310342      -1.12926055
H       -1.71753458       1.12202213       0.59952632
H       -2.66254394      -0.25617241       0.00981991
H       -0.74423602      -1.35089283       1.18929599
H       -0.53855477      -1.39690283      -0.75341972
H        0.14915995      -0.78790897       1.17006923
H        2.08974287      -0.66593435      -1.42315569
H        2.77212134      -0.50762175       0.06766807
14
Frame=6 idx=005071 GeodesicLength=0.6654277078727091 rxn_smarts="[C:1]([C:2]([C@@:3]([N:4]([H:13])[H:14])([C:5]#[N:6])[H:12])([H:10])[H:11])([H:7])([H:8])[H:9]>>[C:1](/[C:2](=[C:3](/[N:4]([H:13])[H:14])[C:5]#[N:6])[H:11])([H:7])([H:8])[H:9].[H:10][H:12]"
C       -1.75249562       0.32841062      -0.14365501
C       -0.52834708      -0.54844504      -0.07594841
C        0.79769771       0.04573827       0.00268390
N        1.92003456      -0.72243275      -0.40923011
C        0.93334081       1.42681815       0.31079827
N        1.06792268       2.53959701       0.58640794
H       -1.79283395       0.80498151      -1.12506616
H       -1.72715948       1.11482182       0.61021007
H       -2.66529800      -0.25270647      -0.00910772
H       -0.72707571      -1.37822014       1.18922488
H       -0.54031829      -1.37485154      -0.78398766
H        0.17144257      -0.80529076       1.19852746
H        2.06286371      -0.70081162      -1.40889881
H        2.78022609      -0.47760906       0.05804137
14
Frame=7 idx=005071 GeodesicLength=0.7766054136520362 rxn_smarts="[C:1]([C:2]([C@@:3]([N:4]([H:13])[H:14])([C:5]#[N:6])[H:12])([H:10])[H:11])([H:7])([H:8])[H:9]>>[C:1](/[C:2](=[C:3](/[N:4]([H:13])[H:14])[C:5]#[N:6])[H:11])([H:7])([H:8])[H:9].[H:10][H:12]"
C       -1.75423125       0.33408305      -0.14743737
C       -0.53191826      -0.54617468      -0.08237683
C        0.79355027       0.03956005       0.02315157
N        1.91945434      -0.72289875      -0.38990480
C        0.93106737       1.42867799       0.30622198
N        1.07076756       2.54487499       0.56205507
H       -1.79196812       0.82704470      -1.12086270
H       -1.73727141       1.10725928       0.62040598
H       -2.66811662      -0.24906563      -0.02860012
H       -0.70805321      -1.40497141       1.18913990
H       -0.54149810      -1.35185150      -0.81466381
H        0.19534382      -0.82260508       1.22866381
H        2.03635689      -0.73499888      -1.39303923
H        2.78651672      -0.44893412       0.04724656
14
Frame=8 idx=005071 GeodesicLength=0.8881380192933912 rxn_smarts="[C:1]([C:2]([C@@:3]([N:4]([H:13])[H:14])([C:5]#[N:6])[H:12])([H:10])[H:11])([H:7])([H:8])[H:9]>>[C:1](/[C:2](=[C:3](/[N:4]([H:13])[H:14])[C:5]#[N:6])[H:11])([H:7])([H:8])[H:9].[H:10][H:12]"
C       -1.75625722       0.33984272      -0.15170082
C       -0.53576093      -0.54375624      -0.08949866
C        0.78872368       0.03312789       0.04422031
N        1.91822429      -0.72311226      -0.37105817
C        0.92855787       1.42994894       0.30197581
N        1.07365849       2.54923303       0.53758064
H       -1.79135561       0.84926984      -1.11674286
H       -1.74793516       1.09932899       0.62999570
H       -2.67103235      -0.24523805      -0.04876582
H       -0.68707248      -1.43076044       1.18927992
H       -0.54210744      -1.32793941      -0.84541942
H        0.22119800      -0.83990389       1.26058249
H        2.01020427      -0.76836538      -1.37574936
H        2.79095458      -0.42167573       0.03530022
14
Frame=9 idx=005071 GeodesicLength=1.0001367658160436 rxn_smarts="[C:1]([C:2]([C@@:3]([N:4]([H:13])[H:14])([C:5]#[N:6])[H:12])([H:10])[H:11])([H:7])([H:8])[H:9]>>[C:1](/[C:2](=[C:3](/[N:4]([H:13])[H:14])[C:5]#[N:6])[H:11])([H:7])([H:8])[H:9].[H:10][H:12]"
C       -1.75857561       0.34575022      -0.15668283
C       -0.53994753      -0.54122699      -0.09731871
C        0.78311649       0.02623502       0.06607067
N        1.91620181      -0.72302073      -0.35285546
C        0.92570939       1.43045152       0.29827106
N        1.07639326       2.55243591       0.51354980
H       -1.79076361       0.87166649      -1.11296759
H       -1.75923328       1.09110458       0.63871455
H       -2.67410915      -0.24107569      -0.06997508
H       -0.66395539      -1.45470615       1.19012761
H       -0.54229853      -1.30347390      -0.87592013
H        0.24986582      -0.85763947       1.29423106
H        1.98407752      -0.80077682      -1.35733123
H        2.79351881      -0.39572399       0.02208627
14
Frame=10 idx=005071 GeodesicLength=1.112186532544754 rxn_smarts="[C:1]([C:2]([C@@:3]([N:4]([H:13])[H:14])([C:5]#[N:6])[H:12])([H:10])[H:11])([H:7])([H:8])[H:9]>>[C:1](/[C:2](=[C:3](/[N:4]([H:13])[H:14])[C:5]#[N:6])[H:11])([H:7])([H:8])[H:9].[H:10][H:12]"
C       -1.76121680       0.35174212      -0.16239127
C       -0.54446933      -0.53858132      -0.10585991
C        0.77668480       0.01892417       0.08845226
N        1.91337755      -0.72271201      -0.33538201
C        0.92255180       1.43015270       0.29524271
N        1.07909751       2.55440578       0.49012409
H       -1.79033881       0.89414178      -1.10954397
H       -1.77122109       1.08253571       0.64650547
H       -2.67732763      -0.23668398      -0.09218747
H       -0.63876312      -1.47668944       1.19202864
H       -0.54197592      -1.27827074      -0.90640471
H        0.28138814      -0.87552888       1.32961227
H        1.95805362      -0.83219387      -1.33803941
H        2.79415928      -0.37124200       0.00784328
14
Frame=11 idx=005071 GeodesicLength=1.224193293248265 rxn_smarts="[C:1]([C:2]([C@@:3]([N:4]([H:13])[H:14])([C:5]#[N:6])[H:12])([H:10])[H:11])([H:7])([H:8])[H:9]>>[C:1](/[C:2](=[C:3](/[N:4]([H:13])[H:14])[C:5]#[N:6])[H:11])([H:7])([H:8])[H:9].[H:10][H:12]"
C       -1.76418222       0.35782216      -0.16897565
C       -0.54935129      -0.53584223      -0.11511643
C        0.76936114       0.01110277       0.11131065
N        1.90967530      -0.72221508      -0.31880627
C        0.91904550       1.42895032       0.29308274
N        1.08173592       2.55500172       0.46779845
H       -1.79000392       0.91663157      -1.10665639
H       -1.78396528       1.07366661       0.65316558
H       -2.68070240      -0.23203022      -0.11559136
H       -0.61154130      -1.49618789       1.19551463
H       -0.54118604      -1.25249256      -0.93675538
H        0.31627261      -0.89368409       1.36666658
H        1.93200037      -0.86252736      -1.31820172
H        2.79284161      -0.34819573      -0.00743544
14
Frame=12 idx=005071 GeodesicLength=1.336005157972078 rxn_smarts="[C:1]([C:2]([C@@:3]([N:4]([H:13])[H:14])([C:5]#[N:6])[H:12])([H:10])[H:11])([H:7])([H:8])[H:9]>>[C:1](/[C:2](=[C:3](/[N:4]([H:13])[H:14])[C:5]#[N:6])[H:11])([H:7])([H:8])[H:9].[H:10][H:12]"
C       -1.76745972       0.36399903      -0.17657250
C       -0.55462164      -0.53306054      -0.12503995
C        0.76108970       0.00265019       0.13459246
N        1.90502441      -0.72155853      -0.30328535
C        0.91513954       1.42673208       0.29203245
N        1.08418640       2.55410298       0.44698951
H       -1.78961877       0.93911007      -1.10445668
H       -1.79753854       1.06452182       0.65851793
H       -2.68424039      -0.22705036      -0.14042075
H       -0.58239325      -1.51266476       1.20119042
H       -0.53997752      -1.22627159      -0.96686829
H        0.35507430      -0.91226129       1.40523021
H        1.90578722      -0.89170821      -1.29813480
H        2.78954826      -0.32654088      -0.02377467
14
Frame=13 idx=005071 GeodesicLength=1.4475142001541048 rxn_smarts="[C:1]([C:2]([C@@:3]([N:4]([H:13])[H:14])([C:5]#[N:6])[H:12])([H:10])[H:11])([H:7])([H:8])[H:9]>>[C:1](/[C:2](=[C:3](/[N:4]([H:13])[H:14])[C:5]#[N:6])[H:11])([H:7])([H:8])[H:9].[H:10][H:12]"
C       -1.77102872       0.37028486      -0.18532072
C       -0.56030376      -0.53028456      -0.13558798
C        0.75182590      -0.00654778       0.15821201
N        1.89936411      -0.72077745      -0.28899102
C        0.91078435       1.42340409       0.29230023
N        1.08633558       2.55161325       0.42823648
H       -1.78905907       0.96152542      -1.10312236
H       -1.81199552       1.05515434       0.66236613
H       -2.68793791      -0.22168818      -0.16686801
H       -0.55149367      -1.52560155       1.20968530
H       -0.53841702      -1.19979706      -0.99660480
H        0.39834718      -0.93137292       1.44506501
H        1.87931890      -0.91970282      -1.27813522
H        2.78425964      -0.30620965      -0.04123505
14
Frame=14 idx=005071 GeodesicLength=1.558640942431952 rxn_smarts="[C:1]([C:2]([C@@:3]([N:4]([H:13])[H:14])([C:5]#[N:6])[H:12])([H:10])[H:11])([H:7])([H:8])[H:9]>>[C:1](/[C:2](=[C:3](/[N:4]([H:13])[H:14])[C:5]#[N:6])[H:11])([H:7])([H:8])[H:9].[H:10][H:12]"
C       -1.77485417       0.37668874      -0.19532077
C       -0.56642127      -0.52758671      -0.14668605
C        0.74154056      -0.01663923       0.18212937
N        1.89265109      -0.71991802      -0.27605287
C        0.90592469       1.41885934       0.29412526
N        1.08802181       2.54746330       0.41188260
H       -1.78814298       0.98388995      -1.10274197
H       -1.82739785       1.04556471       0.66458318
H       -2.69177304      -0.21586226      -0.19517084
H       -0.51906415      -1.53457119       1.22163727
H       -0.53655046      -1.17319308      -1.02588360
H        0.44661402      -0.95108836       1.48582335
H        1.85249427      -0.94649050      -1.25847223
H        2.77695746      -0.28711669      -0.05985271
14
Frame=15 idx=005071 GeodesicLength=1.669406760999721 rxn_smarts="[C:1]([C:2]([C@@:3]([N:4]([H:13])[H:14])([C:5]#[N:6])[H:12])([H:10])[H:11])([H:7])([H:8])[H:9]>>[C:1](/[C:2](=[C:3](/[N:4]([H:13])[H:14])[C:5]#[N:6])[H:11])([H:7])([H:8])[H:9].[H:10][H:12]"
C       -1.77889346       0.38322805      -0.20664754
C       -0.57298800      -0.52502614      -0.15826984
C        0.73021591      -0.02775156       0.20626515
N        1.88485248      -0.71902089      -0.26456976
C        0.90050518       1.41302365       0.29766271
N        1.08906729       2.54162061       0.39831899
H       -1.78671915       1.00620536      -1.10339030
H       -1.84377738       1.03578015       0.66505200
H       -2.69571002      -0.20949346      -0.22549271
H       -0.48532851      -1.53924375       1.23762308
H       -0.53443230      -1.14659131      -1.05461802
H        0.50032223      -0.97141699       1.52706483
H        1.82526484      -0.97212485      -1.23935355
H        2.76762089      -0.26918888      -0.07964505
14
Frame=16 idx=005071 GeodesicLength=1.779935531844033 rxn_smarts="[C:1]([C:2]([C@@:3]([N:4]([H:13])[H:14])([C:5]#[N:6])[H:12])([H:10])[H:11])([H:7])([H:8])[H:9]>>[C:1](/[C:2](=[C:3](/[N:4]([H:13])[H:14])[C:5]#[N:6])[H:11])([H:7])([H:8])[H:9].[H:10][H:12]"
C       -1.78309449       0.38991832      -0.21933702
C       -0.58001544      -0.52266855      -0.17026077
C        0.71785140      -0.04002324       0.23055813
N        1.87595286      -0.71814638      -0.25458365
C        0.89447176       1.40582280       0.30305918
N        1.08929362       2.53407270       0.38780867
H       -1.78461731       1.02850922      -1.10507355
H       -1.86116335       1.02579759       0.66370516
H       -2.69969500      -0.20249286      -0.25799194
H       -0.45052747      -1.53939680       1.25816041
H       -0.53210032      -1.12008553      -1.08274095
H        0.55980847      -0.99230495       1.56825600
H        1.79760713      -0.99668776      -1.22092138
H        2.75622814      -0.25231456      -0.10063830
