11
Frame=0 idx=010778 GeodesicLength=0.0 rxn_smarts="[O:1]=[C:2]([C:3]1([C:6](=[O:7])[H:11])[C:4]([H:9])([H:10])[O:5]1)[H:8]>>[C:3]1(=[C:6](\[O:7][H:8])[H:11])\[C:4]([H:9])([H:10])[O:5]1.[O+:1]#[C-:2]"
O       -2.13993877       1.19076489       0.02236033
C       -0.99664251       1.24677941      -0.02579926
C        0.12346526      -0.37561291      -0.20998252
C       -0.25431827      -1.27638783       0.85568982
O       -0.35337987      -1.62607883      -0.53410665
C        1.15572215       0.35455512      -0.77696203
O        1.39183527       1.52065029      -0.30473863
H        0.24205822       1.82875114      -0.01912263
H        0.51812779      -1.80531120       1.40479781
H       -1.20635746      -1.14634333       1.36263584
H        1.51942816       0.08823322      -1.77477208
11
Frame=1 idx=010778 GeodesicLength=0.06260247548735193 rxn_smarts="[O:1]=[C:2]([C:3]1([C:6](=[O:7])[H:11])[C:4]([H:9])([H:10])[O:5]1)[H:8]>>[C:3]1(=[C:6](\[O:7][H:8])[H:11])\[C:4]([H:9])([H:10])[O:5]1.[O+:1]#[C-:2]"
O       -2.15796009       1.20772040       0.05352427
C       -1.01485853       1.25640113      -0.01963464
C        0.11751232      -0.37084614      -0.21454289
C       -0.25225639      -1.27797438       0.84898686
O       -0.35134736      -1.62486167      -0.54063004
C        1.16102249       0.35034022      -0.77544540
O        1.39214053       1.52428116      -0.31962926
H        0.23240260       1.83863202      -0.03226856
H        0.52439006      -1.80124819       1.39766879
H       -1.20583925      -1.15956172       1.35584642
H        1.55479361       0.05711717      -1.75387555
11
Frame=2 idx=010778 GeodesicLength=0.12493749927864134 rxn_smarts="[O:1]=[C:2]([C:3]1([C:6](=[O:7])[H:11])[C:4]([H:9])([H:10])[O:5]1)[H:8]>>[C:3]1(=[C:6](\[O:7][H:8])[H:11])\[C:4]([H:9])([H:10])[O:5]1.[O+:1]#[C-:2]"
O       -2.17548888       1.22467953       0.08539043
C       -1.03320185       1.26596477      -0.01311978
C        0.11180518      -0.36606887      -0.21917810
C       -0.25019471      -1.27953555       0.84207153
O       -0.34931578      -1.62345774      -0.54739946
C        1.16659724       0.34598668      -0.77383107
O        1.39236445       1.52789499      -0.33531695
H        0.22235941       1.84852408      -0.04656464
H        0.53042061      -1.79739816       1.39034328
H       -1.20522370      -1.17274849       1.34875437
H        1.58987806       0.02615875      -1.73114962
11
Frame=3 idx=010778 GeodesicLength=0.18697296620884457 rxn_smarts="[O:1]=[C:2]([C:3]1([C:6](=[O:7])[H:11])[C:4]([H:9])([H:10])[O:5]1)[H:8]>>[C:3]1(=[C:6](\[O:7][H:8])[H:11])\[C:4]([H:9])([H:10])[O:5]1.[O+:1]#[C-:2]"
O       -2.19244062       1.24162496       0.11779701
C       -1.05160341       1.27543309      -0.00632458
C        0.10642116      -0.36132989      -0.22384238
C       -0.24815107      -1.28107633       0.83498928
O       -0.34718703      -1.62192255      -0.55435864
C        1.17254250       0.34144421      -0.77202343
O        1.39257656       1.53140382      -0.35172289
H        0.21197789       1.85831601      -0.06194133
H        0.53616161      -1.79374185       1.38295571
H       -1.20456780      -1.18586753       1.34132505
H        1.62427021      -0.00428396      -1.70685379
11
Frame=4 idx=010778 GeodesicLength=0.2487626140304616 rxn_smarts="[O:1]=[C:2]([C:3]1([C:6](=[O:7])[H:11])[C:4]([H:9])([H:10])[O:5]1)[H:8]>>[C:3]1(=[C:6](\[O:7][H:8])[H:11])\[C:4]([H:9])([H:10])[O:5]1.[O+:1]#[C-:2]"
O       -2.20877228       1.25856853       0.15074830
C       -1.07003420       1.28480926       0.00079022
C        0.10139377      -0.35663528      -0.22849972
C       -0.24614724      -1.28262680       0.82776074
O       -0.34493275      -1.62026966      -0.56150921
C        1.17891263       0.33671790      -0.76994214
O        1.39278520       1.53482574      -0.36888515
H        0.20123472       1.86800132      -0.07848639
H        0.54157082      -1.79032917       1.37555272
H       -1.20391787      -1.19895065       1.33354813
H        1.65790721      -0.03411120      -1.68107750
11
Frame=5 idx=010778 GeodesicLength=0.3102450363613952 rxn_smarts="[O:1]=[C:2]([C:3]1([C:6](=[O:7])[H:11])[C:4]([H:9])([H:10])[O:5]1)[H:8]>>[C:3]1(=[C:6](\[O:7][H:8])[H:11])\[C:4]([H:9])([H:10])[O:5]1.[O+:1]#[C-:2]"
O       -2.22444741       1.27549904       0.18397475
C       -1.08842649       1.29409919       0.00833560
C        0.09677157      -0.35198603      -0.23307680
C       -0.24417123      -1.28419852       0.82041572
O       -0.34252369      -1.61846311      -0.56880996
C        1.18574054       0.33179891      -0.76747601
O        1.39299739       1.53811709      -0.38681601
H        0.19014166       1.87749592      -0.09613319
H        0.54664335      -1.78720868       1.36816904
H       -1.20326800      -1.21197756       1.32541150
H        1.69054229      -0.06317624      -1.65399464
11
Frame=6 idx=010778 GeodesicLength=0.37149365383722305 rxn_smarts="[O:1]=[C:2]([C:3]1([C:6](=[O:7])[H:11])[C:4]([H:9])([H:10])[O:5]1)[H:8]>>[C:3]1(=[C:6](\[O:7][H:8])[H:11])\[C:4]([H:9])([H:10])[O:5]1.[O+:1]#[C-:2]"
O       -2.23946420       1.29240498       0.21718294
C       -1.10672179       1.30328692       0.01626069
C        0.09262368      -0.34743574      -0.23752816
C       -0.24224591      -1.28580923       0.81303606
O       -0.33986376      -1.61659924      -0.57619120
C        1.19312262       0.32667103      -0.76452614
O        1.39329726       1.54122929      -0.40543649
H        0.17878835       1.88669254      -0.11460761
H        0.55132196      -1.78436503       1.36096974
H       -1.20268931      -1.22491583       1.31694730
H        1.72183109      -0.09115969      -1.62610713
11
Frame=7 idx=010778 GeodesicLength=0.43243912144374264 rxn_smarts="[O:1]=[C:2]([C:3]1([C:6](=[O:7])[H:11])[C:4]([H:9])([H:10])[O:5]1)[H:8]>>[C:3]1(=[C:6](\[O:7][H:8])[H:11])\[C:4]([H:9])([H:10])[O:5]1.[O+:1]#[C-:2]"
O       -2.25373603       1.30934722       0.25093642
C       -1.12494251       1.31236953       0.02456475
C        0.08893379      -0.34293669      -0.24184920
C       -0.24040201      -1.28746512       0.80554491
O       -0.33695138      -1.61458483      -0.58373599
C        1.20107098       0.32136301      -0.76093432
O        1.39357309       1.54418728      -0.42487922
H        0.16698022       1.89562544      -0.13443614
H        0.55555689      -1.78184760       1.35388259
H       -1.20221590      -1.23783626       1.30802722
H        1.75213286      -0.11822198      -1.59712101
11
Frame=8 idx=010778 GeodesicLength=0.49328480874769465 rxn_smarts="[O:1]=[C:2]([C:3]1([C:6](=[O:7])[H:11])[C:4]([H:9])([H:10])[O:5]1)[H:8]>>[C:3]1(=[C:6](\[O:7][H:8])[H:11])\[C:4]([H:9])([H:10])[O:5]1.[O+:1]#[C-:2]"
O       -2.26730300       1.32637726       0.28509960
C       -1.14306393       1.32139372       0.03338245
C        0.08573418      -0.33849756      -0.24599633
C       -0.23865773      -1.28921437       0.79797686
O       -0.33374660      -1.61246377      -0.59142819
C        1.20963277       0.31591601      -0.75662642
O        1.39383143       1.54703288      -0.44526748
H        0.15470845       1.90426818      -0.15554270
H        0.55932861      -1.77971774       1.34695482
H       -1.20191215      -1.25077858       1.29866472
H        1.78144797      -0.14431603      -1.56721734
11
Frame=9 idx=010778 GeodesicLength=0.5538862185749208 rxn_smarts="[O:1]=[C:2]([C:3]1([C:6](=[O:7])[H:11])[C:4]([H:9])([H:10])[O:5]1)[H:8]>>[C:3]1(=[C:6](\[O:7][H:8])[H:11])\[C:4]([H:9])([H:10])[O:5]1.[O+:1]#[C-:2]"
O       -2.28016292       1.34347942       0.31929347
C       -1.16099403       1.33035362       0.04279873
C        0.08305933      -0.33412251      -0.24991898
C       -0.23699957      -1.29104113       0.79037488
O       -0.33018129      -1.61022078      -0.59921891
C        1.21880227       0.31035093      -0.75149836
O        1.39406111       1.54968824      -0.46665358
H        0.14204212       1.91246573      -0.17757167
H        0.56263008      -1.77793170       1.34027609
H       -1.20177442      -1.26371230       1.28883996
H        1.80951732      -0.16930952      -1.53672162
11
Frame=10 idx=010778 GeodesicLength=0.6142456372070915 rxn_smarts="[O:1]=[C:2]([C:3]1([C:6](=[O:7])[H:11])[C:4]([H:9])([H:10])[O:5]1)[H:8]>>[C:3]1(=[C:6](\[O:7][H:8])[H:11])\[C:4]([H:9])([H:10])[O:5]1.[O+:1]#[C-:2]"
O       -2.29203593       1.36081887       0.35489573
C       -1.17882287       1.33925596       0.05277132
C        0.08086695      -0.32974003      -0.25367591
C       -0.23552706      -1.29298551       0.78255961
O       -0.32625042      -1.60773924      -0.60732337
C        1.22858354       0.30477116      -0.74538492
O        1.39400331       1.55225671      -0.48941109
H        0.12852582       1.92029967      -0.20173043
H        0.56531349      -1.77661100       1.33366285
H       -1.20191967      -1.27678922       1.27831902
H        1.83726284      -0.19353736      -1.50468282
11
Frame=11 idx=010778 GeodesicLength=0.6745099833851672 rxn_smarts="[O:1]=[C:2]([C:3]1([C:6](=[O:7])[H:11])[C:4]([H:9])([H:10])[O:5]1)[H:8]>>[C:3]1(=[C:6](\[O:7][H:8])[H:11])\[C:4]([H:9])([H:10])[O:5]1.[O+:1]#[C-:2]"
O       -2.30310153       1.37836022       0.39093858
C       -1.19644080       1.34816494       0.06348307
C        0.07920607      -0.32539345      -0.25719852
C       -0.23419227      -1.29505185       0.77464155
O       -0.32190247      -1.60511068      -0.61561237
C        1.23897029       0.29921315      -0.73826826
O        1.39373078       1.55464791      -0.51367289
H        0.11440854       1.92758484      -0.22702976
H        0.56745994      -1.77571023       1.32725500
H       -1.20233209      -1.28992610       1.26718963
H        1.86419354      -0.21677875      -1.47172602
11
Frame=12 idx=010778 GeodesicLength=0.7346368238214 rxn_smarts="[O:1]=[C:2]([C:3]1([C:6](=[O:7])[H:11])[C:4]([H:9])([H:10])[O:5]1)[H:8]>>[C:3]1(=[C:6](\[O:7][H:8])[H:11])\[C:4]([H:9])([H:10])[O:5]1.[O+:1]#[C-:2]"
O       -2.31321967       1.39617674       0.42776988
C       -1.21390596       1.35705789       0.07468280
C        0.07805553      -0.32109624      -0.26057542
C       -0.23303185      -1.29720340       0.76657264
O       -0.31701684      -1.60239069      -0.62411577
C        1.24990015       0.29375688      -0.73014548
O        1.39311113       1.55678439      -0.53974121
H        0.09966528       1.93419875      -0.25317675
H        0.56901404      -1.77509450       1.32111074
H       -1.20308162      -1.30312001       1.25531511
H        1.89050981      -0.23906981      -1.43769655
11
Frame=13 idx=010778 GeodesicLength=0.7946034093210259 rxn_smarts="[O:1]=[C:2]([C:3]1([C:6](=[O:7])[H:11])[C:4]([H:9])([H:10])[O:5]1)[H:8]>>[C:3]1(=[C:6](\[O:7][H:8])[H:11])\[C:4]([H:9])([H:10])[O:5]1.[O+:1]#[C-:2]"
O       -2.32243622       1.41424114       0.46504930
C       -1.23129214       1.36590728       0.08608161
C        0.07737796      -0.31689210      -0.26391168
C       -0.23202335      -1.29936148       0.75837631
O       -0.31150145      -1.59970261      -0.63276211
C        1.26123827       0.28846277      -0.72117103
O        1.39208525       1.55849290      -0.56791469
H        0.08457157       1.94003054      -0.27896043
H        0.57002770      -1.77452538       1.31534641
H       -1.20415261      -1.31626381       1.24268794
H        1.91610502      -0.26038927      -1.40282164
11
Frame=14 idx=010778 GeodesicLength=0.8543975090825385 rxn_smarts="[O:1]=[C:2]([C:3]1([C:6](=[O:7])[H:11])[C:4]([H:9])([H:10])[O:5]1)[H:8]>>[C:3]1(=[C:6](\[O:7][H:8])[H:11])\[C:4]([H:9])([H:10])[O:5]1.[O+:1]#[C-:2]"
O       -2.33093360       1.43245663       0.50216473
C       -1.24872624       1.37466371       0.09732492
C        0.07710880      -0.31283273      -0.26734019
C       -0.23111434      -1.30142241       0.75010684
O       -0.30529815      -1.59720075      -0.64143419
C        1.27280413       0.28337193      -0.71162296
O        1.39062409       1.55953462      -0.59849330
H        0.06960066       1.94509689      -0.30270815
H        0.57061135      -1.77370630       1.31008644
H       -1.20547480      -1.32921495       1.22938687
H        1.94079810      -0.28074665      -1.36747099
11
Frame=15 idx=010778 GeodesicLength=0.9140713736494039 rxn_smarts="[O:1]=[C:2]([C:3]1([C:6](=[O:7])[H:11])[C:4]([H:9])([H:10])[O:5]1)[H:8]>>[C:3]1(=[C:6](\[O:7][H:8])[H:11])\[C:4]([H:9])([H:10])[O:5]1.[O+:1]#[C-:2]"
O       -2.33870691       1.45082568       0.53921198
C       -1.26647309       1.38323084       0.10789348
C        0.07715787      -0.30896680      -0.27105396
C       -0.23030353      -1.30330421       0.74173904
O       -0.29831316      -1.59505699      -0.65010592
C        1.28443896       0.27853716      -0.70175277
O        1.38858262       1.55969711      -0.63191037
H        0.05510818       1.94956734      -0.32325828
H        0.57080663      -1.77234926       1.30541172
H       -1.20705351      -1.34192902       1.21536786
H        1.96475593      -0.30025186      -1.33154278
11
Frame=16 idx=010778 GeodesicLength=0.9734889757533044 rxn_smarts="[O:1]=[C:2]([C:3]1([C:6](=[O:7])[H:11])[C:4]([H:9])([H:10])[O:5]1)[H:8]>>[C:3]1(=[C:6](\[O:7][H:8])[H:11])\[C:4]([H:9])([H:10])[O:5]1.[O+:1]#[C-:2]"
O       -2.34643295       1.46899060       0.57441066
C       -1.28469831       1.39152687       0.11738484
C        0.07740767      -0.30535410      -0.27522143
C       -0.22941652      -1.30480754       0.73343821
O       -0.29063572      -1.59344050      -0.65850381
C        1.29585507       0.27390413      -0.69212964
O        1.38586790       1.55856622      -0.66866603
H        0.04228762       1.95370884      -0.33726047
H        0.57092476      -1.77002366       1.30145871
H       -1.20859191      -1.35409957       1.20099836
H        1.98743236      -0.31897128      -1.29590940
