11
Frame=0 idx=005348 GeodesicLength=0.0 rxn_smarts="[C:1]([C:2](=[O:3])[C:4]([C:5]#[N:6])([H:10])[H:11])([H:7])([H:8])[H:9]>>[C:1]([C:2]([O:3][N+:6]#[C-:5])=[C:4]([H:10])[H:11])([H:7])([H:8])[H:9]"
C       -1.51137789       0.00811111      -0.44795266
C       -0.13686566       0.00078132       0.11488306
O       -0.09347928       0.23340677       1.41694442
C        1.05678517      -0.14904677      -0.52171706
C        2.15772896       0.46363872       1.02974834
N        1.22601079       0.41691147       1.86212913
H       -2.12343417       0.78445643       0.00907090
H       -1.98141810      -0.95880119      -0.25370057
H       -1.47241773       0.14998071      -1.52596169
H        1.13407016      -0.06961028      -1.59746631
H        1.74439779      -0.87982824      -0.08597751
11
Frame=1 idx=005348 GeodesicLength=0.10796712509135317 rxn_smarts="[C:1]([C:2](=[O:3])[C:4]([C:5]#[N:6])([H:10])[H:11])([H:7])([H:8])[H:9]>>[C:1]([C:2]([O:3][N+:6]#[C-:5])=[C:4]([H:10])[H:11])([H:7])([H:8])[H:9]"
C       -1.51260896       0.01808111      -0.44795918
C       -0.14214291      -0.02261520       0.12249819
O       -0.09852730       0.20557088       1.42386376
C        1.05559419      -0.18369644      -0.51170102
C        2.16419668       0.50506705       1.00935188
N        1.24473341       0.49437612       1.84739015
H       -2.14766294       0.73642984       0.06846647
H       -1.96603206      -0.97121184      -0.35235768
H       -1.47202519       0.26350771      -1.50744336
H        1.12847526      -0.14294847      -1.58999235
H        1.74599981      -0.90256077      -0.06211686
11
Frame=2 idx=005348 GeodesicLength=0.21587671682597134 rxn_smarts="[C:1]([C:2](=[O:3])[C:4]([C:5]#[N:6])([H:10])[H:11])([H:7])([H:8])[H:9]>>[C:1]([C:2]([O:3][N+:6]#[C-:5])=[C:4]([H:10])[H:11])([H:7])([H:8])[H:9]"
C       -1.51297984       0.02704550      -0.44720650
C       -0.14807175      -0.05266850       0.13176480
O       -0.10301352       0.17950096       1.43099539
C        1.05413150      -0.21851773      -0.50107284
C        2.16794454       0.54782964       0.98639672
N        1.26035732       0.56949892       1.82824450
H       -2.16908081       0.68420213       0.12149687
H       -1.95248089      -0.97288716      -0.45267720
H       -1.46802733       0.37376097      -1.47812837
H        1.12131305      -0.21426771      -1.58059693
H        1.74990775      -0.92349702      -0.03921643
11
Frame=3 idx=005348 GeodesicLength=0.32392958611690326 rxn_smarts="[C:1]([C:2](=[O:3])[C:4]([C:5]#[N:6])([H:10])[H:11])([H:7])([H:8])[H:9]>>[C:1]([C:2]([O:3][N+:6]#[C-:5])=[C:4]([H:10])[H:11])([H:7])([H:8])[H:9]"
C       -1.51242935       0.03533814      -0.44594194
C       -0.15452419      -0.08575881       0.14217588
O       -0.10735604       0.15643078       1.43820256
C        1.05241161      -0.25356952      -0.48977251
C        2.16952747       0.59083976       0.96049959
N        1.27365701       0.64246294       1.80489376
H       -2.18988609       0.62605115       0.16866759
H       -1.93757322      -0.96469634      -0.55507263
H       -1.46135378       0.48168170      -1.43781245
H        1.11319819      -0.28486413      -1.56934273
H        1.75432839      -0.94391567      -0.01649713
11
Frame=4 idx=005348 GeodesicLength=0.4323239173097047 rxn_smarts="[C:1]([C:2](=[O:3])[C:4]([C:5]#[N:6])([H:10])[H:11])([H:7])([H:8])[H:9]>>[C:1]([C:2]([O:3][N+:6]#[C-:5])=[C:4]([H:10])[H:11])([H:7])([H:8])[H:9]"
C       -1.51116425       0.04348358      -0.44363576
C       -0.16165362      -0.12027430       0.15389728
O       -0.11163293       0.13590443       1.44584494
C        1.04998803      -0.28905094      -0.47770021
C        2.16914689       0.63360111       0.93092894
N        1.28515401       0.71436061       1.77699113
H       -2.21177434       0.56118672       0.20953943
H       -1.91874249      -0.94614419      -0.66043365
H       -1.45137987       0.58697964      -1.38561682
H        1.10381861      -0.35559314      -1.55617617
H        1.75823995      -0.96445352       0.00636090
11
Frame=5 idx=005348 GeodesicLength=0.5408934297610835 rxn_smarts="[C:1]([C:2](=[O:3])[C:4]([C:5]#[N:6])([H:10])[H:11])([H:7])([H:8])[H:9]>>[C:1]([C:2]([O:3][N+:6]#[C-:5])=[C:4]([H:10])[H:11])([H:7])([H:8])[H:9]"
C       -1.50860724       0.05105346      -0.44124978
C       -0.16923045      -0.15685293       0.16617412
O       -0.11640849       0.11502816       1.45360026
C        1.04748526      -0.32437934      -0.46508848
C        2.16587496       0.67673921       0.89822951
N        1.29381243       0.78416168       1.74523334
H       -2.23130750       0.49335388       0.24251021
H       -1.89853478      -0.91653305      -0.76344998
H       -1.44006710       0.68636546      -1.32359726
H        1.09436599      -0.42472575      -1.54140831
H        1.76261692      -0.98421079       0.02904638
11
Frame=6 idx=005348 GeodesicLength=0.649889987186348 rxn_smarts="[C:1]([C:2](=[O:3])[C:4]([C:5]#[N:6])([H:10])[H:11])([H:7])([H:8])[H:9]>>[C:1]([C:2]([O:3][N+:6]#[C-:5])=[C:4]([H:10])[H:11])([H:7])([H:8])[H:9]"
C       -1.50555491       0.05852985      -0.43798097
C       -0.17734459      -0.19196305       0.17914732
O       -0.12166501       0.09632939       1.46165540
C        1.04433642      -0.35894404      -0.45188897
C        2.16118984       0.71798723       0.86251671
N        1.30150384       0.85149438       1.71000368
H       -2.25175600       0.42128329       0.26692048
H       -1.87246256      -0.87692944      -0.86459426
H       -1.42782294       0.77859618      -1.25218653
H        1.08424117      -0.49205852      -1.52505062
H        1.76533473      -1.00432527       0.05145778
11
Frame=7 idx=005348 GeodesicLength=0.7594980020456261 rxn_smarts="[C:1]([C:2](=[O:3])[C:4]([C:5]#[N:6])([H:10])[H:11])([H:7])([H:8])[H:9]>>[C:1]([C:2]([O:3][N+:6]#[C-:5])=[C:4]([H:10])[H:11])([H:7])([H:8])[H:9]"
C       -1.50149603       0.06573709      -0.43476681
C       -0.18574191      -0.22704120       0.19209475
O       -0.12760077       0.07668323       1.46980395
C        1.04128489      -0.39278700      -0.43831899
C        2.15404715       0.75873162       0.82409913
N        1.30692192       0.91662626       1.67170145
H       -2.27000624       0.34819165       0.28279871
H       -1.84360498      -0.82729891      -0.96080665
H       -1.41610875       0.86304427      -1.17301397
H        1.07444072      -0.55796629      -1.50739281
H        1.76786399      -1.02392072       0.07380125
11
Frame=8 idx=005348 GeodesicLength=0.8695713496297003 rxn_smarts="[C:1]([C:2](=[O:3])[C:4]([C:5]#[N:6])([H:10])[H:11])([H:7])([H:8])[H:9]>>[C:1]([C:2]([O:3][N+:6]#[C-:5])=[C:4]([H:10])[H:11])([H:7])([H:8])[H:9]"
C       -1.49710585       0.07291481      -0.43125302
C       -0.19436253      -0.25948569       0.20495431
O       -0.13428443       0.05787676       1.47813866
C        1.03809562      -0.42494649      -0.42447904
C        2.14613103       0.79675387       0.78402915
N        1.31175593       0.97895894       1.63111881
H       -2.28770277       0.27419335       0.28966127
H       -1.80950795      -0.76950032      -1.05054955
H       -1.40641639       0.93798779      -1.08853642
H        1.06467486      -0.62091985      -1.48868838
H        1.76872250      -1.04383318       0.09560420
11
Frame=9 idx=005348 GeodesicLength=0.9799986789257472 rxn_smarts="[C:1]([C:2](=[O:3])[C:4]([C:5]#[N:6])([H:10])[H:11])([H:7])([H:8])[H:9]>>[C:1]([C:2]([O:3][N+:6]#[C-:5])=[C:4]([H:10])[H:11])([H:7])([H:8])[H:9]"
C       -1.49246313       0.08004677      -0.42783642
C       -0.20300912      -0.28905648       0.21736286
O       -0.14179105       0.03949392       1.48658041
C        1.03509414      -0.45514528      -0.41050687
C        2.13800002       0.83184437       0.74314063
N        1.31630732       1.03870337       1.58878706
H       -2.30398475       0.20053354       0.28790005
H       -1.77117458      -0.70487201      -1.13253975
H       -1.40025742       1.00339643      -1.00061611
H        1.05523366      -0.68082889      -1.46917856
H        1.76804491      -1.06411575       0.11690671
11
Frame=10 idx=005348 GeodesicLength=1.0907708542352497 rxn_smarts="[C:1]([C:2](=[O:3])[C:4]([C:5]#[N:6])([H:10])[H:11])([H:7])([H:8])[H:9]>>[C:1]([C:2]([O:3][N+:6]#[C-:5])=[C:4]([H:10])[H:11])([H:7])([H:8])[H:9]"
C       -1.48686552       0.08728331      -0.42461830
C       -0.21170365      -0.31839810       0.22918943
O       -0.15007977       0.01823610       1.49519104
C        1.03247522      -0.48411302      -0.39649603
C        2.12734646       0.86658777       0.70036356
N        1.31877737       1.09619045       1.54461690
H       -2.31704414       0.13064856       0.27852757
H       -1.73107479      -0.63359264      -1.20594354
H       -1.39563161       1.05984421      -0.90991638
H        1.04633310      -0.73911944      -1.44880674
H        1.76746732      -1.08356719       0.13789248
11
Frame=11 idx=005348 GeodesicLength=1.2020049341439527 rxn_smarts="[C:1]([C:2](=[O:3])[C:4]([C:5]#[N:6])([H:10])[H:11])([H:7])([H:8])[H:9]>>[C:1]([C:2]([O:3][N+:6]#[C-:5])=[C:4]([H:10])[H:11])([H:7])([H:8])[H:9]"
C       -1.48120140       0.09481793      -0.42116946
C       -0.22049767      -0.34498270       0.24091260
O       -0.15915658      -0.00229931       1.50419722
C        1.02981011      -0.51158661      -0.38216346
C        2.11698874       0.89845675       0.65624138
N        1.32177484       1.15212569       1.49818869
H       -2.32922994       0.06029478       0.26094016
H       -1.68540978      -0.55596020      -1.27207685
H       -1.39547496       1.10810677      -0.81640100
H        1.03721711      -0.79520922      -1.42744464
H        1.76517954      -1.10376387       0.15877535
11
Frame=12 idx=005348 GeodesicLength=1.3134074384345176 rxn_smarts="[C:1]([C:2](=[O:3])[C:4]([C:5]#[N:6])([H:10])[H:11])([H:7])([H:8])[H:9]>>[C:1]([C:2]([O:3][N+:6]#[C-:5])=[C:4]([H:10])[H:11])([H:7])([H:8])[H:9]"
C       -1.47480468       0.10256731      -0.41798940
C       -0.22922701      -0.37068439       0.25195945
O       -0.16912101      -0.02512734       1.51340802
C        1.02762312      -0.53771198      -0.36779228
C        2.10516784       0.92916623       0.61087960
N        1.32358123       1.20639859       1.45007676
H       -2.33832081      -0.00586772       0.23655490
H       -1.63797507      -0.47352158      -1.32910292
H       -1.39808755       1.14780398      -0.72210839
H        1.02856965      -0.84935028      -1.40538271
H        1.76259428      -1.12367281       0.17949697
11
Frame=13 idx=005348 GeodesicLength=1.425217677350534 rxn_smarts="[C:1]([C:2](=[O:3])[C:4]([C:5]#[N:6])([H:10])[H:11])([H:7])([H:8])[H:9]>>[C:1]([C:2]([O:3][N+:6]#[C-:5])=[C:4]([H:10])[H:11])([H:7])([H:8])[H:9]"
C       -1.46833481       0.11067577      -0.41432099
C       -0.23811509      -0.39423156       0.26319695
O       -0.17994764      -0.04775453       1.52326517
C        1.02525054      -0.56267004      -0.35293108
C        2.09377779       0.95719428       0.56389599
N        1.32608005       1.25986199       1.39905253
H       -2.34601508      -0.07192100       0.20397578
H       -1.58481236      -0.38518240      -1.37796471
H       -1.40564622       1.17967621      -0.62609051
H        1.01932145      -0.90123186      -1.38232939
H        1.75844137      -1.14441686       0.20025027
11
Frame=14 idx=005348 GeodesicLength=1.5371699265134986 rxn_smarts="[C:1]([C:2](=[O:3])[C:4]([C:5]#[N:6])([H:10])[H:11])([H:7])([H:8])[H:9]>>[C:1]([C:2]([O:3][N+:6]#[C-:5])=[C:4]([H:10])[H:11])([H:7])([H:8])[H:9]"
C       -1.46129864       0.11924240      -0.41086487
C       -0.24691365      -0.41617602       0.27403007
O       -0.19180130      -0.07143141       1.53344872
C        1.02321471      -0.58659431      -0.33770506
C        2.08212355       0.98338137       0.51534713
N        1.32869169       1.31249502       1.34541341
H       -2.35048047      -0.13586602       0.16393356
H       -1.52858534      -0.29159850      -1.41789611
H       -1.41829266       1.20383845      -0.52894079
H        1.01000397      -0.95171200      -1.35826058
H        1.75333816      -1.16557897       0.22149453
11
Frame=15 idx=005348 GeodesicLength=1.6493899331531345 rxn_smarts="[C:1]([C:2](=[O:3])[C:4]([C:5]#[N:6])([H:10])[H:11])([H:7])([H:8])[H:9]>>[C:1]([C:2]([O:3][N+:6]#[C-:5])=[C:4]([H:10])[H:11])([H:7])([H:8])[H:9]"
C       -1.45370781       0.12816760      -0.40717477
C       -0.25584243      -0.43748861       0.28486491
O       -0.20479933      -0.09709465       1.54434774
C        1.02131358      -0.60966995      -0.32202819
C        2.06959947       1.00803981       0.46483931
N        1.33081475       1.36454725       1.28871856
H       -2.35194918      -0.19582499       0.11676720
H       -1.46900558      -0.19352389      -1.44791549
H       -1.43459690       1.21987984      -0.43189743
H        1.00047372      -1.00008394      -1.33345602
H        1.74769969      -1.18694846       0.24293416
11
Frame=16 idx=005348 GeodesicLength=1.7618080171249801 rxn_smarts="[C:1]([C:2](=[O:3])[C:4]([C:5]#[N:6])([H:10])[H:11])([H:7])([H:8])[H:9]>>[C:1]([C:2]([O:3][N+:6]#[C-:5])=[C:4]([H:10])[H:11])([H:7])([H:8])[H:9]"
C       -1.44593294       0.13747714      -0.40304447
C       -0.26483383      -0.45699796       0.29597148
O       -0.21904585      -0.12326125       1.55602362
C        1.01937553      -0.63165863      -0.30567190
C        2.05815688       1.02973741       0.41312015
N        1.33369467       1.41654859       1.22794354
H       -2.35007204      -0.25389848       0.06153794
H       -1.40517362      -0.09090502      -1.46723994
H       -1.45705372       1.22778276      -0.33527528
H        0.99030936      -1.04546072      -1.30798869
H        1.74057557      -1.20936384       0.26462355
