12
Frame=0 idx=007465 GeodesicLength=0.0 rxn_smarts="[N:1]([c:2]1[c:3]([H:10])[n:4]([H:11])[c:5](=[O:6])[n:7]1[H:12])([H:8])[H:9]>>[N-:1]([C:2]1=[C:3]([H:10])[N:4]([H:11])[C:5](=[O:6])[N+:7]1([H:9])[H:12])[H:8]"
N        2.07756513      -0.23323945      -0.13587033
C        0.81870161       0.16708453      -0.33045913
C       -0.06961843       1.16585807      -0.48193727
N       -1.34101970       0.69365548       0.00660338
C       -1.30754743      -0.56528750       0.47383106
O       -2.16126051      -1.26712762       0.93627543
N        0.07491727      -1.01045786       0.16127749
H        2.79643978       0.47370097      -0.14259545
H        1.18350112      -1.11226915       0.66673160
H        0.09925705       2.21685816      -0.63118228
H       -2.19413906       1.22172401       0.01286462
H        0.02320317      -1.75049960      -0.53553916
12
Frame=1 idx=007465 GeodesicLength=0.06006044367393778 rxn_smarts="[N:1]([c:2]1[c:3]([H:10])[n:4]([H:11])[c:5](=[O:6])[n:7]1[H:12])([H:8])[H:9]>>[N-:1]([C:2]1=[C:3]([H:10])[N:4]([H:11])[C:5](=[O:6])[N+:7]1([H:9])[H:12])[H:8]"
N        2.07556052      -0.23162972      -0.13006688
C        0.81580949       0.16086767      -0.34255855
C       -0.06728898       1.16852033      -0.47000370
N       -1.34449111       0.69166645      -0.00576747
C       -1.31288493      -0.56627789       0.46470557
O       -2.17391847      -1.27129527       0.91033024
N        0.07190876      -1.00813584       0.16837371
H        2.79542231       0.47079548      -0.19967058
H        1.19274487      -1.09623762       0.69789324
H        0.10887181       2.22216515      -0.59001135
H       -2.19447555       1.22464877       0.00741412
H        0.03274128      -1.76508751      -0.51063835
12
Frame=2 idx=007465 GeodesicLength=0.11998411978311911 rxn_smarts="[N:1]([c:2]1[c:3]([H:10])[n:4]([H:11])[c:5](=[O:6])[n:7]1[H:12])([H:8])[H:9]>>[N-:1]([C:2]1=[C:3]([H:10])[N:4]([H:11])[C:5](=[O:6])[N+:7]1([H:9])[H:12])[H:8]"
N        2.07345258      -0.22870243      -0.12403041
C        0.81280082       0.15533758      -0.35387135
C       -0.06515582       1.17117492      -0.45776577
N       -1.34761204       0.69017200      -0.01697340
C       -1.31810190      -0.56737272       0.45516612
O       -2.18599585      -1.27588600       0.88349255
N        0.06902647      -1.00540897       0.17527881
H        2.79366796       0.46403418      -0.25713833
H        1.20237625      -1.07856439       0.72895827
H        0.11770131       2.22660724      -0.54925048
H       -2.19491572       1.22722575       0.00167715
H        0.04275594      -1.77861717      -0.48554315
12
Frame=3 idx=007465 GeodesicLength=0.17986893332186576 rxn_smarts="[N:1]([c:2]1[c:3]([H:10])[n:4]([H:11])[c:5](=[O:6])[n:7]1[H:12])([H:8])[H:9]>>[N-:1]([C:2]1=[C:3]([H:10])[N:4]([H:11])[C:5](=[O:6])[N+:7]1([H:9])[H:12])[H:8]"
N        2.07129254      -0.22437194      -0.11756820
C        0.80970900       0.15049514      -0.36432402
C       -0.06331229       1.17368299      -0.44568696
N       -1.35036705       0.68915820      -0.02692001
C       -1.32314008      -0.56860644       0.44519770
O       -2.19752390      -1.28103326       0.85529463
N        0.06628464      -1.00232084       0.18195700
H        2.79095427       0.45348355      -0.31443765
H        1.21244866      -1.05938743       0.75986638
H        0.12560596       2.23008843      -0.50981666
H       -2.19519359       1.22983100      -0.00317353
H        0.05324183      -1.79101940      -0.46038867
12
Frame=4 idx=007465 GeodesicLength=0.23969277758412139 rxn_smarts="[N:1]([c:2]1[c:3]([H:10])[n:4]([H:11])[c:5](=[O:6])[n:7]1[H:12])([H:8])[H:9]>>[N-:1]([C:2]1=[C:3]([H:10])[N:4]([H:11])[C:5](=[O:6])[N+:7]1([H:9])[H:12])[H:8]"
N        2.06911066      -0.21906717      -0.11177965
C        0.80652165       0.14621945      -0.37444250
C       -0.06182172       1.17603065      -0.43423436
N       -1.35270315       0.68881287      -0.03501300
C       -1.32789155      -0.56993201       0.43514092
O       -2.20826424      -1.28654771       0.82667103
N        0.06365154      -0.99903750       0.18802616
H        2.78726030       0.43991683      -0.36884041
H        1.22313174      -1.03910328       0.78984677
H        0.13265725       2.23271284      -0.47257283
H       -2.19547876       1.23243237      -0.00714988
H        0.06382628      -1.80243734      -0.43565224
12
Frame=5 idx=007465 GeodesicLength=0.29955452478960787 rxn_smarts="[N:1]([c:2]1[c:3]([H:10])[n:4]([H:11])[c:5](=[O:6])[n:7]1[H:12])([H:8])[H:9]>>[N-:1]([C:2]1=[C:3]([H:10])[N:4]([H:11])[C:5](=[O:6])[N+:7]1([H:9])[H:12])[H:8]"
N        2.06693813      -0.21272205      -0.10616216
C        0.80327960       0.14251611      -0.38398876
C       -0.06067975       1.17821686      -0.42341940
N       -1.35474924       0.68896247      -0.04162293
C       -1.33239394      -0.57137106       0.42494677
O       -2.21838608      -1.29255744       0.79698318
N        0.06112058      -0.99556157       0.19365313
H        2.78265361       0.42327867      -0.42129960
H        1.23439491      -1.01768254       0.81924765
H        0.13887165       2.23459068      -0.43745665
H       -2.19565504       1.23519523      -0.00969157
H        0.07460557      -1.81286537      -0.41118966
12
Frame=6 idx=007465 GeodesicLength=0.3595223819555378 rxn_smarts="[N:1]([c:2]1[c:3]([H:10])[n:4]([H:11])[c:5](=[O:6])[n:7]1[H:12])([H:8])[H:9]>>[N-:1]([C:2]1=[C:3]([H:10])[N:4]([H:11])[C:5](=[O:6])[N+:7]1([H:9])[H:12])[H:8]"
N        2.06480146      -0.20579526      -0.10146208
C        0.79995830       0.13916758      -0.39345270
C       -0.05989060       1.18020222      -0.41358138
N       -1.35660870       0.68957070      -0.04687686
C       -1.33668302      -0.57291595       0.41473918
O       -2.22790653      -1.29892961       0.76669538
N        0.05863929      -0.99205238       0.19867759
H        2.77729816       0.40452304      -0.47029447
H        1.24633210      -0.99526836       0.84776767
H        0.14442478       2.23579875      -0.40473282
H       -2.19573564       1.23828153      -0.01041617
H        0.08537039      -1.82258227      -0.38706335
12
Frame=7 idx=007465 GeodesicLength=0.419405789692861 rxn_smarts="[N:1]([c:2]1[c:3]([H:10])[n:4]([H:11])[c:5](=[O:6])[n:7]1[H:12])([H:8])[H:9]>>[N-:1]([C:2]1=[C:3]([H:10])[N:4]([H:11])[C:5](=[O:6])[N+:7]1([H:9])[H:12])[H:8]"
N        2.06254072      -0.19818577      -0.09721716
C        0.79651782       0.13618764      -0.40252518
C       -0.05939974       1.18196374      -0.40440983
N       -1.35821419       0.69048828      -0.05091869
C       -1.34065622      -0.57448648       0.40455585
O       -2.23674407      -1.30562230       0.73517521
N        0.05620393      -0.98839021       0.20330616
H        2.77093042       0.38335499      -0.51709642
H        1.25884412      -0.97168936       0.87569242
H        0.14935089       2.23632075      -0.37390511
H       -2.19556793       1.24148093      -0.00955012
H        0.09619425      -1.83142221      -0.36310714
12
Frame=8 idx=007465 GeodesicLength=0.4792920947436756 rxn_smarts="[N:1]([c:2]1[c:3]([H:10])[n:4]([H:11])[c:5](=[O:6])[n:7]1[H:12])([H:8])[H:9]>>[N-:1]([C:2]1=[C:3]([H:10])[N:4]([H:11])[C:5](=[O:6])[N+:7]1([H:9])[H:12])[H:8]"
N        2.06020620      -0.19041943      -0.09404200
C        0.79297005       0.13340578      -0.41157591
C       -0.05917385       1.18348928      -0.39610889
N       -1.35960576       0.69175912      -0.05356382
C       -1.34436884      -0.57609905       0.39459999
O       -2.24486883      -1.31242105       0.70346378
N        0.05370539      -0.98482423       0.20718671
H        2.76393478       0.36105357      -0.55991275
H        1.27199463      -0.94741491       0.90255831
H        0.15383569       2.23627557      -0.34562170
H       -2.19528956       1.24479682      -0.00714890
H        0.10666010      -1.83960148      -0.33983483
12
Frame=9 idx=007465 GeodesicLength=0.5392556976266905 rxn_smarts="[N:1]([c:2]1[c:3]([H:10])[n:4]([H:11])[c:5](=[O:6])[n:7]1[H:12])([H:8])[H:9]>>[N-:1]([C:2]1=[C:3]([H:10])[N:4]([H:11])[C:5](=[O:6])[N+:7]1([H:9])[H:12])[H:8]"
N        2.05781469      -0.18256036      -0.09177356
C        0.78928835       0.13075065      -0.42055621
C       -0.05921545       1.18476022      -0.38854332
N       -1.36090264       0.69325416      -0.05519551
C       -1.34789687      -0.57772963       0.38474004
O       -2.25244720      -1.31932492       0.67088034
N        0.05117257      -0.98128031       0.21057131
H        2.75631130       0.33750019      -0.59978821
H        1.28586283      -0.92214135       0.92867742
H        0.15793282       2.23564393      -0.31923333
H       -2.19487217       1.24828382      -0.00305227
H        0.11695179      -1.84715642      -0.31672670
12
Frame=10 idx=007465 GeodesicLength=0.5993321830188204 rxn_smarts="[N:1]([c:2]1[c:3]([H:10])[n:4]([H:11])[c:5](=[O:6])[n:7]1[H:12])([H:8])[H:9]>>[N-:1]([C:2]1=[C:3]([H:10])[N:4]([H:11])[C:5](=[O:6])[N+:7]1([H:9])[H:12])[H:8]"
N        2.05542721      -0.17467297      -0.09038290
C        0.78551398       0.12819404      -0.42950666
C       -0.05946881       1.18588939      -0.38165615
N       -1.36218944       0.69494581      -0.05597730
C       -1.35137139      -0.57945052       0.37495846
O       -2.25966714      -1.32643836       0.63726371
N        0.04856547      -0.97784285       0.21357380
H        2.74825903       0.31279462      -0.63719754
H        1.30042866      -0.89575899       0.95424078
H        0.16175707       2.23465715      -0.29445175
H       -2.19437784       1.25198687       0.00274694
H        0.12712320      -1.85430419      -0.29361137
12
Frame=11 idx=007465 GeodesicLength=0.659385460749895 rxn_smarts="[N:1]([c:2]1[c:3]([H:10])[n:4]([H:11])[c:5](=[O:6])[n:7]1[H:12])([H:8])[H:9]>>[N-:1]([C:2]1=[C:3]([H:10])[N:4]([H:11])[C:5](=[O:6])[N+:7]1([H:9])[H:12])[H:8]"
N        2.05290907      -0.16674137      -0.08971131
C        0.78158295       0.12570871      -0.43830238
C       -0.05992368       1.18681346      -0.37527821
N       -1.36337361       0.69676795      -0.05585098
C       -1.35470021      -0.58118828       0.36533335
O       -2.26637808      -1.33365059       0.60223328
N        0.04587754      -0.97443534       0.21627591
H        2.73951980       0.28681959      -0.67254976
H        1.31568760      -0.86814728       0.97927709
H        0.16531747       2.23322944      -0.27112215
H       -2.19368328       1.25574059       0.01010558
H        0.13716442      -1.86091687      -0.27041042
12
Frame=12 idx=007465 GeodesicLength=0.7194302229714502 rxn_smarts="[N:1]([c:2]1[c:3]([H:10])[n:4]([H:11])[c:5](=[O:6])[n:7]1[H:12])([H:8])[H:9]>>[N-:1]([C:2]1=[C:3]([H:10])[N:4]([H:11])[C:5](=[O:6])[N+:7]1([H:9])[H:12])[H:8]"
N        2.05025109      -0.15913805      -0.08987568
C        0.77751850       0.12312460      -0.44718014
C       -0.06054603       1.18742650      -0.36961077
N       -1.36448559       0.69866337      -0.05494392
C       -1.35795322      -0.58298931       0.35581042
O       -2.27257350      -1.34070115       0.56677411
N        0.04299919      -0.97128208       0.21830882
H        2.73049096       0.26074155      -0.70470219
H        1.33155166      -0.83961836       1.00354816
H        0.16872528       2.23134037      -0.24978230
H       -2.19272608       1.25959850       0.01928349
H        0.14674775      -1.86716595      -0.24763001
12
Frame=13 idx=007465 GeodesicLength=0.7794815737420719 rxn_smarts="[N:1]([c:2]1[c:3]([H:10])[n:4]([H:11])[c:5](=[O:6])[n:7]1[H:12])([H:8])[H:9]>>[N-:1]([C:2]1=[C:3]([H:10])[N:4]([H:11])[C:5](=[O:6])[N+:7]1([H:9])[H:12])[H:8]"
N        2.04747892      -0.15187644      -0.09083179
C        0.77330098       0.12050670      -0.45591119
C       -0.06126975       1.18783029      -0.36419565
N       -1.36549330       0.70062557      -0.05318432
C       -1.36111404      -0.58475830       0.34663396
O       -2.27824217      -1.34752529       0.53068991
N        0.03994321      -0.96830815       0.21990704
H        2.72094373       0.23429356      -0.73466141
H        1.34823107      -0.81016302       1.02709279
H        0.17207012       2.22906837      -0.22955438
H       -2.19173559       1.26326455       0.02908284
H        0.15588682      -1.87295783      -0.22506780
12
Frame=14 idx=007465 GeodesicLength=0.8395256376174792 rxn_smarts="[N:1]([c:2]1[c:3]([H:10])[n:4]([H:11])[c:5](=[O:6])[n:7]1[H:12])([H:8])[H:9]>>[N-:1]([C:2]1=[C:3]([H:10])[N:4]([H:11])[C:5](=[O:6])[N+:7]1([H:9])[H:12])[H:8]"
N        2.04463306      -0.14513914      -0.09249153
C        0.76899269       0.11777190      -0.46461592
C       -0.06207767       1.18800256      -0.35913388
N       -1.36647135       0.70260663      -0.05080572
C       -1.36427545      -0.58655185       0.33770703
O       -2.28347384      -1.35399896       0.49463552
N        0.03665604      -0.96568711       0.22085041
H        2.71123283       0.20807979      -0.76203664
H        1.36564372      -0.77992961       1.04988984
H        0.17537304       2.22647267      -0.21063291
H       -2.19070486       1.26683981       0.03968889
H        0.16447179      -1.87846669      -0.20305509
12
Frame=15 idx=007465 GeodesicLength=0.899599051254045 rxn_smarts="[N:1]([c:2]1[c:3]([H:10])[n:4]([H:11])[c:5](=[O:6])[n:7]1[H:12])([H:8])[H:9]>>[N-:1]([C:2]1=[C:3]([H:10])[N:4]([H:11])[C:5](=[O:6])[N+:7]1([H:9])[H:12])[H:8]"
N        2.04169916      -0.13877343      -0.09469391
C        0.76456626       0.11496168      -0.47320978
C       -0.06299269       1.18796955      -0.35432946
N       -1.36742914       0.70458124      -0.04779257
C       -1.36747054      -0.58839364       0.32894235
O       -2.28831409      -1.36021055       0.45786622
N        0.03315969      -0.96333035       0.22132892
H        2.70123170       0.18153335      -0.78755708
H        1.38387185      -0.74854486       1.07212456
H        0.17861073       2.22357525      -0.19274297
H       -2.18959704       1.27030435       0.05128071
H        0.17266411      -1.88367260      -0.18121700
12
Frame=16 idx=007465 GeodesicLength=0.9596854189299658 rxn_smarts="[N:1]([c:2]1[c:3]([H:10])[n:4]([H:11])[c:5](=[O:6])[n:7]1[H:12])([H:8])[H:9]>>[N-:1]([C:2]1=[C:3]([H:10])[N:4]([H:11])[C:5](=[O:6])[N+:7]1([H:9])[H:12])[H:8]"
N        2.03863854      -0.13280005      -0.09737839
C        0.76000573       0.11204127      -0.48171109
C       -0.06402071       1.18771114      -0.34979847
N       -1.36837227       0.70651064      -0.04423675
C       -1.37073376      -0.59031529       0.32021530
O       -2.29276874      -1.36613473       0.42020206
N        0.02943565      -0.96124615       0.22136917
H        2.69093379       0.15460066      -0.81136713
H        1.40292086      -0.71578546       1.09384179
H        0.18178556       2.22036327      -0.17579017
H       -2.18832172       1.27367139       0.06408412
H        0.18049708      -1.88861668      -0.15943045
