12
Frame=0 idx=006804 GeodesicLength=0.0 rxn_smarts="[O:1]=[C:2]([C@@:3]1([H:9])[C:4]([H:10])([H:11])[N:5]1[C:6](=[O:7])[H:12])[H:8]>>[O:1]=[C:2]([C@@:3]1([H:9])[C-:4]([H:11])[N+:5]1([C:6](=[O:7])[H:12])[H:10])[H:8]"
O        2.96309376      -0.21125433      -0.21959697
C        1.87672567       0.02828090      -0.66020557
C        0.65227423       0.13895368       0.20450537
C       -0.22307189       1.32135300       0.01255882
N       -0.57457690      -0.32147825      -0.44321694
C       -1.58811514      -0.86909444       0.38046670
O       -2.70093347      -1.04308504      -0.00329112
H        1.70023837       0.21429823      -1.73830149
H        0.79461969      -0.25926719       1.20508732
H       -0.83424259       0.63781687      -1.04146407
H       -0.82924651       1.49652136       0.90904533
H       -1.23676522      -1.13304477       1.39441259
12
Frame=1 idx=006804 GeodesicLength=0.06621953601404929 rxn_smarts="[O:1]=[C:2]([C@@:3]1([H:9])[C:4]([H:10])([H:11])[N:5]1[C:6](=[O:7])[H:12])[H:8]>>[O:1]=[C:2]([C@@:3]1([H:9])[C-:4]([H:11])[N+:5]1([C:6](=[O:7])[H:12])[H:10])[H:8]"
O        2.96309867      -0.21284734      -0.22920914
C        1.87201818       0.02228440      -0.66061997
C        0.65812772       0.14589539       0.21592718
C       -0.22329155       1.32243990       0.01255325
N       -0.57557920      -0.30470873      -0.42124636
C       -1.58713270      -0.88258145       0.37634982
O       -2.69684740      -1.04808534      -0.02056854
H        1.68512471       0.19806086      -1.73886972
H        0.80601181      -0.24617069       1.21804944
H       -0.83446622       0.64714685      -1.05068608
H       -0.82507038       1.51307133       0.90828979
H       -1.24199365      -1.15450520       1.39003034
12
Frame=2 idx=006804 GeodesicLength=0.13248389049407586 rxn_smarts="[O:1]=[C:2]([C@@:3]1([H:9])[C:4]([H:10])([H:11])[N:5]1[C:6](=[O:7])[H:12])[H:8]>>[O:1]=[C:2]([C@@:3]1([H:9])[C-:4]([H:11])[N+:5]1([C:6](=[O:7])[H:12])[H:10])[H:8]"
O        2.96249821      -0.21514120      -0.23896590
C        1.86680302       0.01609209      -0.66084795
C        0.66382602       0.15332706       0.22746232
C       -0.22344509       1.32410833       0.01275063
N       -0.57693103      -0.28741936      -0.39869200
C       -1.58553359      -0.89642526       0.37156190
O       -2.69197302      -1.05357922      -0.03833493
H        1.66918179       0.18090802      -1.73910419
H        0.81749400      -0.23219958       1.23116933
H       -0.83460726       0.65647923      -1.05937209
H       -0.82060590       1.53048627       0.90753896
H       -1.24670714      -1.17663640       1.38483393
12
Frame=3 idx=006804 GeodesicLength=0.19879708269771085 rxn_smarts="[O:1]=[C:2]([C@@:3]1([H:9])[C:4]([H:10])([H:11])[N:5]1[C:6](=[O:7])[H:12])[H:8]>>[O:1]=[C:2]([C@@:3]1([H:9])[C-:4]([H:11])[N+:5]1([C:6](=[O:7])[H:12])[H:10])[H:8]"
O        2.96126060      -0.21813579      -0.24886749
C        1.86103913       0.00966854      -0.66088362
C        0.66935950       0.16124906       0.23911434
C       -0.22352590       1.32637600       0.01315620
N       -0.57866596      -0.26960198      -0.37547549
C       -1.58326504      -0.91061258       0.36605265
O       -2.68626177      -1.05958740      -0.05664538
H        1.65233315       0.16279821      -1.73896195
H        0.82908112      -0.21732858       1.24444510
H       -0.83468408       0.66579618      -1.06749408
H       -0.81580228       1.54883121       0.90679777
H       -1.25086847      -1.19945287       1.37876195
12
Frame=4 idx=006804 GeodesicLength=0.2651720438815365 rxn_smarts="[O:1]=[C:2]([C@@:3]1([H:9])[C:4]([H:10])([H:11])[N:5]1[C:6](=[O:7])[H:12])[H:8]>>[O:1]=[C:2]([C@@:3]1([H:9])[C-:4]([H:11])[N+:5]1([C:6](=[O:7])[H:12])[H:10])[H:8]"
O        2.95934256      -0.22183977      -0.25891477
C        1.85467668       0.00298360      -0.66071522
C        0.67471678       0.16966343       0.25089071
C       -0.22353080       1.32925993       0.01377257
N       -0.58082209      -0.25124133      -0.35150317
C       -1.58026188      -0.92512622       0.35976373
O       -2.67965147      -1.06612502      -0.07556249
H        1.63448324       0.14368068      -1.73839003
H        0.84079261      -0.20152788       1.25787636
H       -0.83471486       0.67507453      -1.07502202
H       -0.81060319       1.56817583       0.90606303
H       -1.25442759      -1.22297778       1.37174129
12
Frame=5 idx=006804 GeodesicLength=0.33163438155129105 rxn_smarts="[O:1]=[C:2]([C@@:3]1([H:9])[C:4]([H:10])([H:11])[N:5]1[C:6](=[O:7])[H:12])[H:8]>>[O:1]=[C:2]([C@@:3]1([H:9])[C-:4]([H:11])[N+:5]1([C:6](=[O:7])[H:12])[H:10])[H:8]"
O        2.95665127      -0.22635800      -0.26913242
C        1.84764131      -0.00396136      -0.66032558
C        0.67987769       0.17862246       0.26281614
C       -0.22345971       1.33282461       0.01462924
N       -0.58344585      -0.23225541      -0.32665177
C       -1.57643891      -0.93989706       0.35264856
O       -2.67198670      -1.07333579      -0.09525729
H        1.61546862       0.12336441      -1.73733222
H        0.85264306      -0.18470023       1.27148116
H       -0.83472375       0.68434206      -1.08189640
H       -0.80494072       1.58864734       0.90536480
H       -1.25728631      -1.24729302       1.36365578
12
Frame=6 idx=006804 GeodesicLength=0.3981854546269572 rxn_smarts="[O:1]=[C:2]([C@@:3]1([H:9])[C:4]([H:10])([H:11])[N:5]1[C:6](=[O:7])[H:12])[H:8]>>[O:1]=[C:2]([C@@:3]1([H:9])[C-:4]([H:11])[N+:5]1([C:6](=[O:7])[H:12])[H:10])[H:8]"
O        2.95314614      -0.23167952      -0.27952002
C        1.83987939      -0.01120920      -0.65970497
C        0.68483152       0.18810097       0.27489063
C       -0.22331291       1.33706138       0.01571878
N       -0.58658827      -0.21264887      -0.30080646
C       -1.57171998      -0.95491960       0.34463610
O       -2.66320925      -1.08119920      -0.11578523
H        1.59519601       0.10187246      -1.73571444
H        0.86466732      -0.16684540       1.28524541
H       -0.83472971       0.69352526      -1.08809028
H       -0.79874382       1.61030891       0.90468385
H       -1.25941643      -1.27236719       1.35444663
12
Frame=7 idx=006804 GeodesicLength=0.46482597911912704 rxn_smarts="[O:1]=[C:2]([C@@:3]1([H:9])[C:4]([H:10])([H:11])[N:5]1[C:6](=[O:7])[H:12])[H:8]>>[O:1]=[C:2]([C@@:3]1([H:9])[C-:4]([H:11])[N+:5]1([C:6](=[O:7])[H:12])[H:10])[H:8]"
O        2.94876774      -0.23778688      -0.29008406
C        1.83132067      -0.01881802      -0.65884316
C        0.68955587       0.19807108       0.28711445
C       -0.22309458       1.34195844       0.01704053
N       -0.59031200      -0.19241068      -0.27383436
C       -1.56600871      -0.97015394       0.33565975
O       -2.65321632      -1.08972125      -0.13723679
H        1.57355707       0.07920437      -1.73345655
H        0.87689253      -0.14796069       1.29915008
H       -0.83475122       0.70254836      -1.09356483
H       -0.79192703       1.63323244       0.90400798
H       -1.26078402      -1.29816323       1.34404698
12
Frame=8 idx=006804 GeodesicLength=0.5315675094834879 rxn_smarts="[O:1]=[C:2]([C@@:3]1([H:9])[C:4]([H:10])([H:11])[N:5]1[C:6](=[O:7])[H:12])[H:8]>>[O:1]=[C:2]([C@@:3]1([H:9])[C-:4]([H:11])[N+:5]1([C:6](=[O:7])[H:12])[H:10])[H:8]"
O        2.94344136      -0.24467685      -0.30084387
C        1.82188652      -0.02681065      -0.65772575
C        0.69402747       0.20851250       0.29949487
C       -0.22281243       1.34750919       0.01860784
N       -0.59468193      -0.17151287      -0.24557973
C       -1.55919860      -0.98553872       0.32564413
O       -2.64186550      -1.09893692      -0.15975036
H        1.55040112       0.05529417      -1.73047220
H        0.88935755      -0.12803299       1.31317828
H       -0.83480637       0.71133508      -1.09826473
H       -0.78439577       1.65749755       0.90333386
H       -1.26135343      -1.32463947       1.33237766
12
Frame=9 idx=006804 GeodesicLength=0.5984318332573951 rxn_smarts="[O:1]=[C:2]([C@@:3]1([H:9])[C:4]([H:10])([H:11])[N:5]1[C:6](=[O:7])[H:12])[H:8]>>[O:1]=[C:2]([C@@:3]1([H:9])[C-:4]([H:11])[N+:5]1([C:6](=[O:7])[H:12])[H:10])[H:8]"
O        2.93706554      -0.25241485      -0.31182510
C        1.81148349      -0.03520890      -0.65633645
C        0.69821274       0.21941093       0.31204125
C       -0.22248830       1.35371446       0.02043784
N       -0.59978032      -0.14991511      -0.21586294
C       -1.55116428      -1.00096423       0.31453204
O       -2.62895502      -1.10893443      -0.18352592
H        1.52555448       0.03008384      -1.72665967
H        0.90210892      -0.10702910       1.32731146
H       -0.83493091       0.71980269      -1.10211990
H       -0.77604229       1.68321315       0.90265648
H       -1.26106405      -1.35175847       1.31935090
12
Frame=10 idx=006804 GeodesicLength=0.6654504816967073 rxn_smarts="[O:1]=[C:2]([C@@:3]1([H:9])[C:4]([H:10])([H:11])[N:5]1[C:6](=[O:7])[H:12])[H:8]>>[O:1]=[C:2]([C@@:3]1([H:9])[C-:4]([H:11])[N+:5]1([C:6](=[O:7])[H:12])[H:10])[H:8]"
O        2.92953193      -0.26103700      -0.32306629
C        1.80001301      -0.04400334      -0.65466329
C        0.70206899       0.23074104       0.32476279
C       -0.22215453       1.36055891       0.02256467
N       -0.60569886      -0.12757150      -0.18449071
C       -1.54176479      -1.01627553       0.30227641
O       -2.61422416      -1.11979479      -0.20881355
H        1.49880845       0.00343923      -1.72190454
H        0.91519831      -0.08492571       1.34152214
H       -0.83515951       0.72786135      -1.10503910
H       -0.76675660       1.71047049       0.90197812
H       -1.25986224      -1.37946315       1.30487336
12
Frame=11 idx=006804 GeodesicLength=0.7327582884959655 rxn_smarts="[O:1]=[C:2]([C@@:3]1([H:9])[C:4]([H:10])([H:11])[N:5]1[C:6](=[O:7])[H:12])[H:8]>>[O:1]=[C:2]([C@@:3]1([H:9])[C-:4]([H:11])[N+:5]1([C:6](=[O:7])[H:12])[H:10])[H:8]"
O        2.92069989      -0.27083498      -0.33462796
C        1.78736392      -0.05314536      -0.65269320
C        0.70555960       0.24256125       0.33769649
C       -0.22187045       1.36813972       0.02503187
N       -0.61256786      -0.10434891      -0.15118892
C       -1.53090436      -1.03120310       0.28891320
O       -2.59728957      -1.13181622      -0.23608853
H        1.46984425      -0.02490334      -1.71605334
H        0.92873487      -0.06157536       1.35581954
H       -0.83559731       0.73550825      -1.10689543
H       -0.75640949       1.73951942       0.90130373
H       -1.25756351      -1.40790137       1.28878254
12
Frame=12 idx=006804 GeodesicLength=0.8005663574225105 rxn_smarts="[O:1]=[C:2]([C@@:3]1([H:9])[C:4]([H:10])([H:11])[N:5]1[C:6](=[O:7])[H:12])[H:8]>>[O:1]=[C:2]([C@@:3]1([H:9])[C-:4]([H:11])[N+:5]1([C:6](=[O:7])[H:12])[H:10])[H:8]"
O        2.91033666      -0.28168758      -0.34659790
C        1.77335151      -0.06240274      -0.65040765
C        0.70863263       0.25490770       0.35091284
C       -0.22166027       1.37645792       0.02799051
N       -0.62045917      -0.08009994      -0.11567410
C       -1.51841228      -1.04544609       0.27435105
O       -2.57763889      -1.14502721      -0.26591387
H        1.43802383      -0.05586300      -1.70884631
H        0.94284621      -0.03681877       1.37022046
H       -0.83625428       0.74268206      -1.10750065
H       -0.74482702       1.77045804       0.90072321
H       -1.25393894      -1.43716041       1.27074240
12
Frame=13 idx=006804 GeodesicLength=0.8688674225826648 rxn_smarts="[O:1]=[C:2]([C@@:3]1([H:9])[C:4]([H:10])([H:11])[N:5]1[C:6](=[O:7])[H:12])[H:8]>>[O:1]=[C:2]([C@@:3]1([H:9])[C-:4]([H:11])[N+:5]1([C:6](=[O:7])[H:12])[H:10])[H:8]"
O        2.89801843      -0.29451262      -0.35888804
C        1.75782760      -0.07184286      -0.64783597
C        0.71109242       0.26767654       0.36428881
C       -0.22180675       1.38532467       0.03141307
N       -0.62945372      -0.05497857      -0.07789958
C       -1.50404594      -1.05850055       0.25886972
O       -2.55459760      -1.15948035      -0.29844013
H        1.40351543      -0.08852231      -1.70009010
H        0.95741746      -0.01062058       1.38448044
H       -0.83725663       0.74912431      -1.10678604
H       -0.73208756       1.80324741       0.90011555
H       -1.24862314      -1.46691509       1.25077225
12
Frame=14 idx=006804 GeodesicLength=0.9379881000090238 rxn_smarts="[O:1]=[C:2]([C@@:3]1([H:9])[C:4]([H:10])([H:11])[N:5]1[C:6](=[O:7])[H:12])[H:8]>>[O:1]=[C:2]([C@@:3]1([H:9])[C-:4]([H:11])[N+:5]1([C:6](=[O:7])[H:12])[H:10])[H:8]"
O        2.88394809      -0.30827715      -0.37136812
C        1.74094197      -0.08096333      -0.64497148
C        0.71295859       0.28064720       0.37781920
C       -0.22241379       1.39440341       0.03537915
N       -0.63943041      -0.02925021      -0.03804206
C       -1.48793951      -1.07005325       0.24238790
O       -2.52850769      -1.17413691      -0.33334734
H        1.36598134      -0.12395753      -1.68947261
H        0.97263288       0.01684170       1.39857005
H       -0.83853441       0.75462228      -1.10488894
H       -0.71826080       1.83739658       0.89946338
H       -1.24137627      -1.49727278       1.22847088
12
Frame=15 idx=006804 GeodesicLength=1.0078263740769124 rxn_smarts="[O:1]=[C:2]([C@@:3]1([H:9])[C:4]([H:10])([H:11])[N:5]1[C:6](=[O:7])[H:12])[H:8]>>[O:1]=[C:2]([C@@:3]1([H:9])[C-:4]([H:11])[N+:5]1([C:6](=[O:7])[H:12])[H:10])[H:8]"
O        2.86840312      -0.32319365      -0.38379633
C        1.72299131      -0.08989375      -0.64185456
C        0.71415992       0.29347072       0.39128048
C       -0.22381138       1.40325161       0.03975204
N       -0.65032583      -0.00346807       0.00335632
C       -1.47045336      -1.07956975       0.22550227
O       -2.49977933      -1.18833067      -0.36981066
H        1.32636354      -0.16077177      -1.67695791
H        0.98837177       0.04520670       1.41216271
H       -0.84014721       0.75895306      -1.10208606
H       -0.70382360       1.87234107       0.89844399
H       -1.23194894      -1.52799550       1.20400771
12
Frame=16 idx=006804 GeodesicLength=1.0785503877532943 rxn_smarts="[O:1]=[C:2]([C@@:3]1([H:9])[C:4]([H:10])([H:11])[N:5]1[C:6](=[O:7])[H:12])[H:8]>>[O:1]=[C:2]([C@@:3]1([H:9])[C-:4]([H:11])[N+:5]1([C:6](=[O:7])[H:12])[H:10])[H:8]"
O        2.85165757      -0.33823361      -0.39609020
C        1.70428488      -0.09823909      -0.63860320
C        0.71471960       0.30570810       0.40450233
C       -0.22615230       1.41122780       0.04462232
N       -0.66169985       0.02167472       0.04554080
C       -1.45198494      -1.08672822       0.20852904
O       -2.46885060      -1.20120525      -0.40721830
H        1.28508222      -0.19887426      -1.66243537
H        1.00461322       0.07391180       1.42495164
H       -0.84184402       0.76195889      -1.09870859
H       -0.68908261       1.90692916       0.89710938
H       -1.22074316      -1.55813005       1.17780015
