21
Frame=0 idx=009778 GeodesicLength=0.0 rxn_smarts="[C:1]([C@@:2]1([H:11])[C@:3]([C:4]([H:13])([H:14])[H:15])([H:12])[C:5]1([C:6]([H:16])([H:17])[H:18])[C:7]([H:19])([H:20])[H:21])([H:8])([H:9])[H:10]>>[C:1]([C:2][C:5]([C:3]([C:4]([H:13])([H:14])[H:15])([H:11])[H:12])([C:6]([H:16])([H:17])[H:18])[C:7]([H:19])([H:20])[H:21])([H:8])([H:9])[H:10]"
C       -1.63892924      -1.36200572      -0.32720481
C       -0.50039745      -0.73265903      -1.07881449
C       -0.22750935       1.05021446      -0.46032394
C       -0.92797740       1.68339884       0.71905995
C        0.63130103      -0.21539579      -0.26530578
C        0.84437914      -0.66520782       1.17364548
C        1.95649232      -0.15323133      -1.01228220
H       -1.36028405      -2.42241339      -0.30021631
H       -2.57378209      -1.30790533      -0.88575554
H       -1.82428972      -1.06227280       0.71135705
H       -0.98633991       0.67093481      -1.27666295
H        0.30303855       1.76196255      -1.09105088
H       -1.48552415       2.56461386       0.39943595
H       -0.20705463       1.99599437       1.47701122
H       -1.63353628       1.00332717       1.19661960
H        1.55060879      -0.00613471       1.68462452
H        1.27453084      -1.66928559       1.18298465
H       -0.06893836      -0.69221216       1.76491139
H        1.79329501       0.14335150      -2.04866905
H        2.64882772       0.55185953      -0.54145881
H        2.43208927      -1.13693333      -1.02190497
21
Frame=1 idx=009778 GeodesicLength=0.061785467308716 rxn_smarts="[C:1]([C@@:2]1([H:11])[C@:3]([C:4]([H:13])([H:14])[H:15])([H:12])[C:5]1([C:6]([H:16])([H:17])[H:18])[C:7]([H:19])([H:20])[H:21])([H:8])([H:9])[H:10]>>[C:1]([C:2][C:5]([C:3]([C:4]([H:13])([H:14])[H:15])([H:11])[H:12])([C:6]([H:16])([H:17])[H:18])[C:7]([H:19])([H:20])[H:21])([H:8])([H:9])[H:10]"
C       -1.63773752      -1.36543648      -0.32234294
C       -0.50618631      -0.72238834      -1.06884354
C       -0.22178856       1.05629887      -0.45632668
C       -0.93864020       1.68362308       0.71653886
C        0.63238991      -0.21122955      -0.26135321
C        0.84935425      -0.66227959       1.17609088
C        1.95260645      -0.16036667      -1.01771387
H       -1.35469917      -2.42522684      -0.30917966
H       -2.57595649      -1.30850244      -0.87501221
H       -1.81650017      -1.07841306       0.72067252
H       -0.96683245       0.68225089      -1.30808309
H        0.32355023       1.77676432      -1.06434803
H       -1.49310551       2.56599116       0.39436103
H       -0.22949483       1.99490206       1.48610819
H       -1.65028777       1.00344723       1.18446851
H        1.56121184      -0.00567208       1.68244201
H        1.27300804      -1.66919646       1.18462359
H       -0.06121006      -0.68460908       1.77186065
H        1.78647689       0.13845128      -2.05301823
H        2.65298384       0.53918003      -0.55061856
H        2.42085763      -1.14758833      -1.03032622
21
Frame=2 idx=009778 GeodesicLength=0.12358354562338651 rxn_smarts="[C:1]([C@@:2]1([H:11])[C@:3]([C:4]([H:13])([H:14])[H:15])([H:12])[C:5]1([C:6]([H:16])([H:17])[H:18])[C:7]([H:19])([H:20])[H:21])([H:8])([H:9])[H:10]>>[C:1]([C:2][C:5]([C:3]([C:4]([H:13])([H:14])[H:15])([H:11])[H:12])([C:6]([H:16])([H:17])[H:18])[C:7]([H:19])([H:20])[H:21])([H:8])([H:9])[H:10]"
C       -1.63645636      -1.36893707      -0.31739655
C       -0.51232473      -0.71162554      -1.05872569
C       -0.21601331       1.06255405      -0.45216358
C       -0.94930094       1.68392760       0.71390924
C        0.63339905      -0.20705418      -0.25737803
C        0.85430291      -0.65934563       1.17854283
C        1.94843474      -0.16747091      -1.02316530
H       -1.34876437      -2.42784308      -0.31845987
H       -2.57814155      -1.30930462      -0.86394593
H       -1.80846400      -1.09472331       0.72992130
H       -0.94582189       0.69319811      -1.33940676
H        0.34378490       1.79116758      -1.03711407
H       -1.50058398       2.56747112       0.38912365
H       -0.25214947       1.99368450       1.49502121
H       -1.66701009       1.00366760       1.17201244
H        1.57186831      -0.00531596       1.68017830
H        1.27129302      -1.66911937       1.18624351
H       -0.05344881      -0.67681974       1.77883347
H        1.77937874       0.13370228      -2.05733874
H        2.65685994       0.52640627      -0.55985788
H        2.40915789      -1.15821970      -1.03883356
21
Frame=3 idx=009778 GeodesicLength=0.1854023842439267 rxn_smarts="[C:1]([C@@:2]1([H:11])[C@:3]([C:4]([H:13])([H:14])[H:15])([H:12])[C:5]1([C:6]([H:16])([H:17])[H:18])[C:7]([H:19])([H:20])[H:21])([H:8])([H:9])[H:10]>>[C:1]([C:2][C:5]([C:3]([C:4]([H:13])([H:14])[H:15])([H:11])[H:12])([C:6]([H:16])([H:17])[H:18])[C:7]([H:19])([H:20])[H:21])([H:8])([H:9])[H:10]"
C       -1.63506872      -1.37252431      -0.31239101
C       -0.51882462      -0.70035469      -1.04846436
C       -0.21019467       1.06898616      -0.44782796
C       -0.95992108       1.68434730       0.71118897
C        0.63431081      -0.20286536      -0.25338389
C        0.85920468      -0.65641536       1.18099450
C        1.94396438      -0.17453256      -1.02862696
H       -1.34242021      -2.43024350      -0.32804025
H       -2.58030799      -1.31042781      -0.85260428
H       -1.80020269      -1.11117492       0.73905273
H       -0.92335876       0.70370093      -1.37053986
H        0.36369610       1.80515842      -1.00940783
H       -1.50790465       2.56910150       0.38375391
H       -0.27495596       1.99236206       1.50374409
H       -1.68366741       1.00403312       1.15927029
H        1.58256230      -0.00509026       1.67783165
H        1.26935339      -1.66906495       1.18783281
H       -0.04567347      -0.66884896       1.78582028
H        1.77200035       0.12910488      -2.06162503
H        2.66043001       0.51355899      -0.56916723
H        2.39697820      -1.16881068      -1.04741055
21
Frame=4 idx=009778 GeodesicLength=0.2472337902129304 rxn_smarts="[C:1]([C@@:2]1([H:11])[C@:3]([C:4]([H:13])([H:14])[H:15])([H:12])[C:5]1([C:6]([H:16])([H:17])[H:18])[C:7]([H:19])([H:20])[H:21])([H:8])([H:9])[H:10]>>[C:1]([C:2][C:5]([C:3]([C:4]([H:13])([H:14])[H:15])([H:11])[H:12])([C:6]([H:16])([H:17])[H:18])[C:7]([H:19])([H:20])[H:21])([H:8])([H:9])[H:10]"
C       -1.63355834      -1.37621340      -0.30735604
C       -0.52569333      -0.68856758      -1.03806332
C       -0.20434900       1.07559707      -0.44331741
C       -0.97046085       1.68491690       0.70839745
C        0.63510812      -0.19865886      -0.24937463
C        0.86403906      -0.65349784       1.18343916
C        1.93918418      -0.18153982      -1.03408788
H       -1.33561065      -2.43240974      -0.33790455
H       -2.58242365      -1.31198083      -0.84104377
H       -1.79173726      -1.12774154       0.74801978
H       -0.89951347       0.71368121      -1.40138534
H        0.38324133       1.81872330      -0.98129346
H       -1.51501186       2.57093036       0.37828700
H       -0.29784582       1.99095763       1.51226894
H       -1.70022123       1.00458953       1.14626553
H        1.59327483      -0.00501590       1.67540093
H        1.26715962      -1.66904154       1.18938167
H       -0.03790322      -0.66070455       1.79281066
H        1.76434314       0.12465628      -2.06587150
H        2.66366784       0.50066270      -0.57853574
H        2.38431058      -1.17934339      -1.05603749
21
Frame=5 idx=009778 GeodesicLength=0.30908747245241003 rxn_smarts="[C:1]([C@@:2]1([H:11])[C@:3]([C:4]([H:13])([H:14])[H:15])([H:12])[C:5]1([C:6]([H:16])([H:17])[H:18])[C:7]([H:19])([H:20])[H:21])([H:8])([H:9])[H:10]>>[C:1]([C:2][C:5]([C:3]([C:4]([H:13])([H:14])[H:15])([H:11])[H:12])([C:6]([H:16])([H:17])[H:18])[C:7]([H:19])([H:20])[H:21])([H:8])([H:9])[H:10]"
C       -1.63190656      -1.38001624      -0.30232263
C       -0.53293468      -0.67625973      -1.02752501
C       -0.19848862       1.08238869      -0.43862906
C       -0.98088103       1.68567134       0.70555466
C        0.63577525      -0.19443054      -0.24535398
C        0.86878715      -0.65060165       1.18587048
C        1.93408543      -0.18848216      -1.03953726
H       -1.32828389      -2.43432086      -0.34803789
H       -2.58445284      -1.31406810      -0.82932641
H       -1.78309033      -1.14439557       0.75677365
H       -0.87438313       0.72305107      -1.43184544
H        0.40238394       1.83185305      -0.95283778
H       -1.52185243       2.57300443       0.37275840
H       -0.32075284       1.98949622       1.52059198
H       -1.71663327       1.00538305       1.13302429
H        1.60398777      -0.00511250       1.67288523
H        1.26468481      -1.66905668       1.19088162
H       -0.03015586      -0.65239550       1.79979420
H        1.75641011       0.12035180      -2.07007272
H        2.66655058       0.48773997      -0.58795271
H        2.37115043      -1.18980010      -1.06469362
21
Frame=6 idx=009778 GeodesicLength=0.37095963146807637 rxn_smarts="[C:1]([C@@:2]1([H:11])[C@:3]([C:4]([H:13])([H:14])[H:15])([H:12])[C:5]1([C:6]([H:16])([H:17])[H:18])[C:7]([H:19])([H:20])[H:21])([H:8])([H:9])[H:10]>>[C:1]([C:2][C:5]([C:3]([C:4]([H:13])([H:14])[H:15])([H:11])[H:12])([C:6]([H:16])([H:17])[H:18])[C:7]([H:19])([H:20])[H:21])([H:8])([H:9])[H:10]"
C       -1.63009611      -1.38393962      -0.29732656
C       -0.54054493      -0.66343547      -1.01685076
C       -0.19262827       1.08935876      -0.43376335
C       -0.99114172       1.68664363       0.70268346
C        0.63629936      -0.19017577      -0.24132405
C        0.87343227      -0.64773366       1.18828396
C        1.92866344      -0.19534896      -1.04496204
H       -1.32039887      -2.43595716      -0.35843436
H       -2.58636028      -1.31677297      -0.81752336
H       -1.77428340      -1.16111157       0.76526877
H       -0.84808756       0.73171683      -1.46182248
H        0.42108036       1.84453296      -0.92411849
H       -1.52837789       2.57536620       0.36720675
H       -0.34360513       1.98800619       1.52871020
H       -1.73286134       1.00645772       1.11957976
H        1.61468197      -0.00539477       1.67028594
H        1.26190838      -1.66911405       1.19232803
H       -0.02244720      -0.64393416       1.80676194
H        1.74820817       0.11618170      -2.07422357
H        2.66905786       0.47481725      -0.59740624
H        2.35750090      -1.20016308      -1.07335356
21
Frame=7 idx=009778 GeodesicLength=0.4328416057009037 rxn_smarts="[C:1]([C@@:2]1([H:11])[C@:3]([C:4]([H:13])([H:14])[H:15])([H:12])[C:5]1([C:6]([H:16])([H:17])[H:18])[C:7]([H:19])([H:20])[H:21])([H:8])([H:9])[H:10]>>[C:1]([C:2][C:5]([C:3]([C:4]([H:13])([H:14])[H:15])([H:11])[H:12])([C:6]([H:16])([H:17])[H:18])[C:7]([H:19])([H:20])[H:21])([H:8])([H:9])[H:10]"
C       -1.62811027      -1.38798531      -0.29240426
C       -0.54851391      -0.65010895      -1.00604190
C       -0.18678503       1.09650080      -0.42872420
C       -1.00120516       1.68786325       0.69980708
C        0.63667022      -0.18589114      -0.23728789
C        0.87796018      -0.64490063       1.19067487
C        1.92291777      -0.20212897      -1.05034794
H       -1.31192686      -2.43729803      -0.36908761
H       -2.58811236      -1.32016028      -0.80570866
H       -1.76533653      -1.17786541       0.77346317
H       -0.82076769       0.73957769      -1.49122468
H        0.43929609       1.85675296      -0.89521425
H       -1.53454395       2.57805345       0.36167263
H       -0.36633136       1.98651557       1.53662018
H       -1.74886555       1.00785440       1.10596759
H        1.62533741      -0.00587415       1.66760477
H        1.25881654      -1.66921585       1.19371803
H       -0.01479129      -0.63533548       1.81370396
H        1.73974761       0.11213517      -2.07831833
H        2.67117241       0.46192381      -0.60688321
H        2.34337172      -1.21041291      -1.08198936
21
Frame=8 idx=009778 GeodesicLength=0.4947225390715483 rxn_smarts="[C:1]([C@@:2]1([H:11])[C@:3]([C:4]([H:13])([H:14])[H:15])([H:12])[C:5]1([C:6]([H:16])([H:17])[H:18])[C:7]([H:19])([H:20])[H:21])([H:8])([H:9])[H:10]>>[C:1]([C:2][C:5]([C:3]([C:4]([H:13])([H:14])[H:15])([H:11])[H:12])([C:6]([H:16])([H:17])[H:18])[C:7]([H:19])([H:20])[H:21])([H:8])([H:9])[H:10]"
C       -1.62593413      -1.39214964      -0.28759243
C       -0.55682469      -0.63630158      -0.99509753
C       -0.18097303       1.10380599      -0.42351570
C       -1.01103629       1.68935727       0.69694833
C        0.63688164      -0.18157360      -0.23324607
C        0.88236127      -0.64210936       1.19304136
C        1.91685234      -0.20881275      -1.05568004
H       -1.30285572      -2.43832103      -0.38000256
H       -2.58967036      -1.32427107      -0.79395492
H       -1.75626792      -1.19463828       0.78131607
H       -0.79257882       0.74653343      -1.51996839
H        0.45698356       1.86849942      -0.86621426
H       -1.54031134       2.58110095       0.35619708
H       -0.38886628       1.98505490       1.54432143
H       -1.76460734       1.00961076       1.09222618
H        1.63593722      -0.00655893       1.66484615
H        1.25540379      -1.66936320       1.19505310
H       -0.00719775      -0.62661846       1.82061334
H        1.73104144       0.10819812      -2.08235036
H        2.67288116       0.44908892      -0.61636970
H        2.32878122      -1.22053184      -1.09057109
21
Frame=9 idx=009778 GeodesicLength=0.5564175263868824 rxn_smarts="[C:1]([C@@:2]1([H:11])[C@:3]([C:4]([H:13])([H:14])[H:15])([H:12])[C:5]1([C:6]([H:16])([H:17])[H:18])[C:7]([H:19])([H:20])[H:21])([H:8])([H:9])[H:10]>>[C:1]([C:2][C:5]([C:3]([C:4]([H:13])([H:14])[H:15])([H:11])[H:12])([C:6]([H:16])([H:17])[H:18])[C:7]([H:19])([H:20])[H:21])([H:8])([H:9])[H:10]"
C       -1.62355618      -1.39642031      -0.28293224
C       -0.56542447      -0.62210468      -0.98399951
C       -0.17523271       1.11122187      -0.41818066
C       -1.02059950       1.69111819       0.69411934
C        0.63694231      -0.17723052      -0.22919083
C        0.88663708      -0.63935532       1.19539393
C        1.91048790      -0.21539830      -1.06093596
H       -1.29324417      -2.43902975      -0.39122630
H       -2.59100425      -1.32904903      -0.78234840
H       -1.74708136      -1.21143944       0.78880871
H       -0.76376812       0.75264293      -1.54795251
H        0.47410565       1.87973658      -0.83723292
H       -1.54564875       2.58450110       0.35081228
H       -0.41113744       1.98364975       1.55179518
H       -1.78003910       1.01173724       1.07841202
H        1.64645445      -0.00741971       1.66202114
H        1.25170427      -1.66953220       1.19636372
H        0.00033034      -0.61781043       1.82748832
H        1.72211053       0.10432300      -2.08631639
H        2.67417653       0.43635761      -0.62585729
H        2.31378700      -1.23049858      -1.09904164
21
Frame=10 idx=009778 GeodesicLength=0.6181233905822497 rxn_smarts="[C:1]([C@@:2]1([H:11])[C@:3]([C:4]([H:13])([H:14])[H:15])([H:12])[C:5]1([C:6]([H:16])([H:17])[H:18])[C:7]([H:19])([H:20])[H:21])([H:8])([H:9])[H:10]>>[C:1]([C:2][C:5]([C:3]([C:4]([H:13])([H:14])[H:15])([H:11])[H:12])([C:6]([H:16])([H:17])[H:18])[C:7]([H:19])([H:20])[H:21])([H:8])([H:9])[H:10]"
C       -1.62096573      -1.40078655      -0.27845191
C       -0.57431343      -0.60749863      -0.97275908
C       -0.16955058       1.11877047      -0.41269081
C       -1.02987810       1.69318411       0.69134895
C        0.63684236      -0.17285295      -0.22513011
C        0.89077762      -0.63664857       1.19772202
C        1.90382410      -0.22187271      -1.06610849
H       -1.28305146      -2.43937903      -0.40273676
H       -2.59208856      -1.33454876      -0.77093471
H       -1.73778997      -1.22823840       0.79589984
H       -0.73444654       0.75765303      -1.57516543
H        0.49065538       1.89049948      -0.80830786
H       -1.55053754       2.58829720       0.34555501
H       -0.43310539       1.98232502       1.55906256
H       -1.79514526       1.01427398       1.06454875
H        1.65688452      -0.00848247       1.65912910
H        1.24769692      -1.66973652       1.19763254
H        0.00778560      -0.60892130       1.83431944
H        1.71296634       0.10052431      -2.09020872
H        2.67505547       0.42374090      -0.63532689
H        2.29838425      -1.24030261      -1.10739743
21
Frame=11 idx=009778 GeodesicLength=0.6798716822294708 rxn_smarts="[C:1]([C@@:2]1([H:11])[C@:3]([C:4]([H:13])([H:14])[H:15])([H:12])[C:5]1([C:6]([H:16])([H:17])[H:18])[C:7]([H:19])([H:20])[H:21])([H:8])([H:9])[H:10]>>[C:1]([C:2][C:5]([C:3]([C:4]([H:13])([H:14])[H:15])([H:11])[H:12])([C:6]([H:16])([H:17])[H:18])[C:7]([H:19])([H:20])[H:21])([H:8])([H:9])[H:10]"
C       -1.61815389      -1.40523091      -0.27418408
C       -0.58345909      -0.59252384      -0.96137092
C       -0.16393575       1.12643557      -0.40705304
C       -1.03885197       1.69556509       0.68865647
C        0.63658539      -0.16843937      -0.22106394
C        0.89478300      -0.63398886       1.20002636
C        1.89687608      -0.22822822      -1.07118378
H       -1.27230501      -2.43935312      -0.41455098
H       -2.59290324      -1.34074096      -0.75977553
H       -1.72839700      -1.24502793       0.80256258
H       -0.70481338       0.76144335      -1.60157565
H        0.50663125       1.90079826      -0.77950015
H       -1.55495929       2.59250005       0.34045675
H       -0.45472693       1.98110184       1.56613191
H       -1.80990062       1.01723994       1.05067378
H        1.66721437      -0.00973995       1.65617578
H        1.24339650      -1.66996663       1.19886825
H        0.01516735      -0.59996926       1.84110279
H        1.70362803       0.09678839      -2.09402218
H        2.67551999       0.41126514      -0.64476397
H        2.28260422      -1.24992859      -1.11561046
21
Frame=12 idx=009778 GeodesicLength=0.741657090149435 rxn_smarts="[C:1]([C@@:2]1([H:11])[C@:3]([C:4]([H:13])([H:14])[H:15])([H:12])[C:5]1([C:6]([H:16])([H:17])[H:18])[C:7]([H:19])([H:20])[H:21])([H:8])([H:9])[H:10]>>[C:1]([C:2][C:5]([C:3]([C:4]([H:13])([H:14])[H:15])([H:11])[H:12])([C:6]([H:16])([H:17])[H:18])[C:7]([H:19])([H:20])[H:21])([H:8])([H:9])[H:10]"
C       -1.61511812      -1.40973064      -0.27015968
C       -0.59282129      -0.57723260      -0.94982799
C       -0.15839954       1.13419461      -0.40127736
C       -1.04750688       1.69826268       0.68605761
C        0.63618033      -0.16399109      -0.21698971
C        0.89865818      -0.63137652       1.20231089
C        1.88966412      -0.23445843      -1.07614642
H       -1.26105050      -2.43893166      -0.42669639
H       -2.59343267      -1.34756556      -0.74892150
H       -1.71889992      -1.26180929       0.80877823
H       -0.67506365       0.76392267      -1.62716407
H        0.52201677       1.91063557      -0.75087740
H       -1.55890388       2.59711077       0.33554577
H       -0.47596116       1.97999757       1.57300474
H       -1.82428394       1.02064486       1.03682513
H        1.67743300      -0.01118069       1.65316987
H        1.23882749      -1.67021297       1.20008436
H        0.02247820      -0.59097555       1.84783662
H        1.69411831       0.09309796      -2.09775036
H        2.67557535       0.39895951      -0.65415319
H        2.26648979      -1.25936120      -1.12364915
21
Frame=13 idx=009778 GeodesicLength=0.8034801901003603 rxn_smarts="[C:1]([C@@:2]1([H:11])[C@:3]([C:4]([H:13])([H:14])[H:15])([H:12])[C:5]1([C:6]([H:16])([H:17])[H:18])[C:7]([H:19])([H:20])[H:21])([H:8])([H:9])[H:10]>>[C:1]([C:2][C:5]([C:3]([C:4]([H:13])([H:14])[H:15])([H:11])[H:12])([C:6]([H:16])([H:17])[H:18])[C:7]([H:19])([H:20])[H:21])([H:8])([H:9])[H:10]"
C       -1.61185750      -1.41426086      -0.26640617
C       -0.60235853      -0.56167860      -0.93812592
C       -0.15295207       1.14202449      -0.39537526
C       -1.05583154       1.70127540       0.68356714
C        0.63563806      -0.15951020      -0.21290662
C        0.90240980      -0.62881131       1.20457815
C        1.88221196      -0.24055581      -1.08098192
H       -1.24934430      -2.43809939      -0.43919475
H       -2.59366715      -1.35495388      -0.73841764
H       -1.70929434      -1.27858242       0.81452753
H       -0.64539600       0.76499211      -1.65192819
H        0.53681188       1.92002316      -0.72249527
H       -1.56236651       2.60212591       0.33084713
H       -0.49677640       1.97902863       1.57968896
H       -1.83827851       1.02449499       1.02304061
H        1.68753024      -0.01279134       1.65011974
H        1.23401793      -1.67046579       1.20129312
H        0.02972197      -0.58196132       1.85451797
H        1.68446248       0.08943940      -2.10138702
H        2.67523166       0.38685212      -0.66347725
H        2.25008688      -1.26858527      -1.13148433
21
Frame=14 idx=009778 GeodesicLength=0.8653509811815879 rxn_smarts="[C:1]([C@@:2]1([H:11])[C@:3]([C:4]([H:13])([H:14])[H:15])([H:12])[C:5]1([C:6]([H:16])([H:17])[H:18])[C:7]([H:19])([H:20])[H:21])([H:8])([H:9])[H:10]>>[C:1]([C:2][C:5]([C:3]([C:4]([H:13])([H:14])[H:15])([H:11])[H:12])([C:6]([H:16])([H:17])[H:18])[C:7]([H:19])([H:20])[H:21])([H:8])([H:9])[H:10]"
C       -1.60837481      -1.41879292      -0.26294704
C       -0.61202743      -0.54591533      -0.92625691
C       -0.14760033       1.14990373      -0.38935609
C       -1.06382222       1.70459580       0.68119842
C        0.63497323      -0.15499657      -0.20881091
C        0.90604870      -0.62629046       1.20683375
C        1.87454484      -0.24651613      -1.08567690
H       -1.23725115      -2.43683505      -0.45207942
H       -2.59360008      -1.36281467      -0.72829743
H       -1.69957125      -1.29535535       0.81979638
H       -0.61599725       0.76455832      -1.67588584
H        0.55101695       1.92897062      -0.69439938
H       -1.56535351       2.60753369       0.32638136
H       -0.51715063       1.97820671       1.58619209
H       -1.85187527       1.02878763       1.00935399
H        1.69750012      -0.01455374       1.64703543
H        1.22900203      -1.67071268       1.20250999
H        0.03690640      -0.57294683       1.86114766
H        1.67468610       0.08579724      -2.10492720
H        2.67450400       0.37496631      -0.67272295
H        2.23344156      -1.27759028      -1.13908900
21
Frame=15 idx=009778 GeodesicLength=0.9272617344598575 rxn_smarts="[C:1]([C@@:2]1([H:11])[C@:3]([C:4]([H:13])([H:14])[H:15])([H:12])[C:5]1([C:6]([H:16])([H:17])[H:18])[C:7]([H:19])([H:20])[H:21])([H:8])([H:9])[H:10]>>[C:1]([C:2][C:5]([C:3]([C:4]([H:13])([H:14])[H:15])([H:11])[H:12])([C:6]([H:16])([H:17])[H:18])[C:7]([H:19])([H:20])[H:21])([H:8])([H:9])[H:10]"
C       -1.60467722      -1.42329785      -0.25980238
C       -0.62178358      -0.52999908      -0.91421587
C       -0.14235200       1.15780880      -0.38323173
C       -1.07147664       1.70821214       0.67896232
C        0.63420232      -0.15045182      -0.20469997
C        0.90958658      -0.62381172       1.20908242
C        1.86669090      -0.25233460      -1.09021866
H       -1.22484298      -2.43512147      -0.46537836
H       -2.59323310      -1.37105296      -0.71858597
H       -1.68971926      -1.31213583       0.82457474
H       -0.58704330       0.76254532      -1.69906711
H        0.56463410       1.93748955      -0.66663051
H       -1.56787243       2.61331785       0.32216650
H       -0.53707000       1.97754009       1.59252303
H       -1.86506753       1.03351642       0.99579684
H        1.70733675      -0.01644872       1.64392706
H        1.22381629      -1.67094219       1.20374952
H        0.04403938      -0.56395227       1.86772582
H        1.66481727       0.08215800      -2.10836563
H        2.67341010       0.36332545      -0.68187506
H        2.21660433      -1.28636512      -1.14643702
21
Frame=16 idx=009778 GeodesicLength=0.9892083344903542 rxn_smarts="[C:1]([C@@:2]1([H:11])[C@:3]([C:4]([H:13])([H:14])[H:15])([H:12])[C:5]1([C:6]([H:16])([H:17])[H:18])[C:7]([H:19])([H:20])[H:21])([H:8])([H:9])[H:10]>>[C:1]([C:2][C:5]([C:3]([C:4]([H:13])([H:14])[H:15])([H:11])[H:12])([C:6]([H:16])([H:17])[H:18])[C:7]([H:19])([H:20])[H:21])([H:8])([H:9])[H:10]"
C       -1.60077304      -1.42774775      -0.25698886
C       -0.63158391      -0.51398219      -0.90199724
C       -0.13721081       1.16571909      -0.37701215
C       -1.07879803       1.71211057       0.67686787
C        0.63334354      -0.14587673      -0.20057038
C        0.91303656      -0.62137139       1.21132977
C        1.85867869      -0.25800764      -1.09459583
H       -1.21219712      -2.43294421      -0.47911915
H       -2.59257264      -1.37957431      -0.70930208
H       -1.67972498      -1.32893433       0.82885360
H       -0.55869793       0.75888637      -1.72151438
H        0.57767125       1.94559496      -0.63921939
H       -1.56993596       2.61945946       0.31821693
H       -0.55652613       1.97703444       1.59869128
H       -1.87785411       1.03867123       0.98239736
H        1.71703702      -0.01845587       1.64080547
H        1.21849880      -1.67114242       1.20502679
H        0.05112970      -0.55499595       1.87425389
H        1.65488367       0.07850949      -2.11169806
H        2.67197130       0.35194897      -0.69091974
H        2.19962411      -1.29490179      -1.15350568
