10
Frame=0 idx=005704 GeodesicLength=0.0 rxn_smarts="[C:1]([O:2][C:3](=[O:4])[C:5](=[O:6])[H:10])([H:7])([H:8])[H:9]>>[C:1]([O+:2]=[C-:3][O:4][C:5](=[O:6])[H:10])([H:7])([H:8])[H:9]"
C       -1.72323039       0.08751783       0.44969951
O       -0.54471966      -0.62356840       0.89891212
C        0.54853136      -0.48453295       0.22226027
O        0.54666336       0.26464598      -0.81511246
C        2.08715513       0.00073517      -0.54552480
O        2.77037715       0.86517240      -0.12186362
H       -2.50012252      -0.17177022       1.16185948
H       -1.53506386       1.15969866       0.45553582
H       -1.99815273      -0.23488333      -0.55337122
H        2.34856216      -0.86301513      -1.15239511
10
Frame=1 idx=005704 GeodesicLength=0.20380012849266338 rxn_smarts="[C:1]([O:2][C:3](=[O:4])[C:5](=[O:6])[H:10])([H:7])([H:8])[H:9]>>[C:1]([O+:2]=[C-:3][O:4][C:5](=[O:6])[H:10])([H:7])([H:8])[H:9]"
C       -1.74947938       0.07490701       0.45260744
O       -0.58227695      -0.69722532       0.82195246
C        0.53858034      -0.43940068       0.23068279
O        0.54048854       0.39504963      -0.73617021
C        2.07326877       0.00191318      -0.56027801
O        2.84741089       0.89834883      -0.45826604
H       -2.54725534      -0.28825985       1.09273183
H       -1.56284285       1.13398087       0.62278642
H       -1.99736488      -0.08800362      -0.59519922
H        2.43947085      -0.99131004      -0.87084746
10
Frame=2 idx=005704 GeodesicLength=0.3613663505434901 rxn_smarts="[C:1]([O:2][C:3](=[O:4])[C:5](=[O:6])[H:10])([H:7])([H:8])[H:9]>>[C:1]([O+:2]=[C-:3][O:4][C:5](=[O:6])[H:10])([H:7])([H:8])[H:9]"
C       -1.76753108       0.06571143       0.45254936
O       -0.61802559      -0.77063189       0.72339642
C        0.52328149      -0.43527852       0.21479255
O        0.54567662       0.52164633      -0.62838562
C        2.06003798      -0.00214187      -0.57910772
O        2.86331664       0.85564790      -0.82212780
H       -2.58348557      -0.37512640       1.01646919
H       -1.57245041       1.08632640       0.77839303
H       -1.99476106       0.06474105      -0.61268132
H        2.54394098      -1.01089443      -0.54329811
10
Frame=3 idx=005704 GeodesicLength=0.4669616150297971 rxn_smarts="[C:1]([O:2][C:3](=[O:4])[C:5](=[O:6])[H:10])([H:7])([H:8])[H:9]>>[C:1]([O+:2]=[C-:3][O:4][C:5](=[O:6])[H:10])([H:7])([H:8])[H:9]"
C       -1.77657106       0.06057501       0.44871069
O       -0.65092313      -0.83106842       0.62553824
C        0.50175331      -0.47104904       0.16058601
O        0.56679139       0.61889808      -0.49398099
C        2.05218450      -0.00287919      -0.58934791
O        2.82508623       0.74438401      -1.14071239
H       -2.60956405      -0.42299521       0.94881375
H       -1.56275267       1.02864298       0.89914266
H       -1.98579803       0.19747792      -0.61129004
H        2.63979351      -0.92198615      -0.24746003
10
Frame=4 idx=005704 GeodesicLength=0.580228293724665 rxn_smarts="[C:1]([O:2][C:3](=[O:4])[C:5](=[O:6])[H:10])([H:7])([H:8])[H:9]>>[C:1]([O+:2]=[C-:3][O:4][C:5](=[O:6])[H:10])([H:7])([H:8])[H:9]"
C       -1.77688773       0.05812898       0.44626524
O       -0.68031370      -0.88301195       0.51791921
C        0.48686668      -0.49943178       0.11051462
O        0.58602925       0.66333859      -0.39696816
C        2.04896666      -0.00315725      -0.60074732
O        2.76610427       0.59538445      -1.38158625
H       -2.62710992      -0.45327324       0.88569713
H       -1.53582303       0.96046092       1.00642547
H       -1.97204065       0.32512565      -0.59152081
H        2.70420819      -0.76356439       0.00400087
10
Frame=5 idx=005704 GeodesicLength=0.6498670718472471 rxn_smarts="[C:1]([O:2][C:3](=[O:4])[C:5](=[O:6])[H:10])([H:7])([H:8])[H:9]>>[C:1]([O+:2]=[C-:3][O:4][C:5](=[O:6])[H:10])([H:7])([H:8])[H:9]"
C       -1.77236768       0.05782111       0.43892522
O       -0.70437789      -0.91829348       0.42355598
C        0.48616835      -0.51831993       0.10634677
O        0.60653839       0.67753371      -0.31644642
C        2.05478796      -0.01547326      -0.59125200
O        2.67458212       0.43956422      -1.54107823
H       -2.64358960      -0.46755712       0.81588227
H       -1.51284738       0.89349035       1.08769730
H       -1.94376049       0.43421571      -0.56881482
H        2.75486622      -0.58298130       0.14518392
10
Frame=6 idx=005704 GeodesicLength=0.7416923782481897 rxn_smarts="[C:1]([O:2][C:3](=[O:4])[C:5](=[O:6])[H:10])([H:7])([H:8])[H:9]>>[C:1]([O+:2]=[C-:3][O:4][C:5](=[O:6])[H:10])([H:7])([H:8])[H:9]"
C       -1.76645282       0.05642110       0.43750553
O       -0.72281158      -0.93968155       0.32533904
C        0.48408517      -0.53089054       0.08699163
O        0.62023761       0.68619398      -0.26338713
C        2.05805962      -0.02061725      -0.60055084
O        2.61828787       0.26202597      -1.63810944
H       -2.65237812      -0.48145529       0.75797443
H       -1.48874548       0.81863758       1.16464586
H       -1.92284628       0.53537909      -0.52840839
H        2.77256401      -0.38601308       0.25799932
10
Frame=7 idx=005704 GeodesicLength=0.9224904346730997 rxn_smarts="[C:1]([O:2][C:3](=[O:4])[C:5](=[O:6])[H:10])([H:7])([H:8])[H:9]>>[C:1]([O+:2]=[C-:3][O:4][C:5](=[O:6])[H:10])([H:7])([H:8])[H:9]"
C       -1.76110387       0.05611488       0.43502421
O       -0.73914745      -0.95034319       0.24419355
C        0.48227603      -0.54680003       0.07759781
O        0.63678057       0.68654590      -0.21309880
C        2.06745374      -0.04333740      -0.59272494
O        2.57725885       0.10703304      -1.66790572
H       -2.66003768      -0.48617772       0.70814217
H       -1.47116790       0.75286261       1.22097279
H       -1.90137769       0.61469427      -0.48986547
H        2.76906540      -0.19059236       0.27766439
10
Frame=8 idx=005704 GeodesicLength=0.9750996473936206 rxn_smarts="[C:1]([O:2][C:3](=[O:4])[C:5](=[O:6])[H:10])([H:7])([H:8])[H:9]>>[C:1]([O+:2]=[C-:3][O:4][C:5](=[O:6])[H:10])([H:7])([H:8])[H:9]"
C       -1.75816430       0.05534302       0.43090648
O       -0.74197294      -0.95119138       0.21535904
C        0.48285872      -0.55103810       0.06445056
O        0.64819007       0.69344253      -0.16508112
C        2.07561164      -0.04131928      -0.59133043
O        2.54719052       0.04422310      -1.68796495
H       -2.65927353      -0.48851990       0.69356716
H       -1.46815717       0.73369509       1.23269210
H       -1.89322689       0.63438787      -0.48202012
H        2.76694388      -0.12902295       0.28942127
10
Frame=9 idx=005704 GeodesicLength=1.0137386121138419 rxn_smarts="[C:1]([O:2][C:3](=[O:4])[C:5](=[O:6])[H:10])([H:7])([H:8])[H:9]>>[C:1]([O+:2]=[C-:3][O:4][C:5](=[O:6])[H:10])([H:7])([H:8])[H:9]"
C       -1.75629902       0.05442716       0.42810268
O       -0.74100390      -0.94960827       0.20081400
C        0.48424432      -0.54925362       0.05544934
O        0.65545610       0.70021928      -0.13145771
C        2.08284624      -0.03863242      -0.59279301
O        2.52994126       0.01439231      -1.70038703
H       -2.65642190      -0.49125947       0.69050692
H       -1.46875243       0.72845784       1.23440113
H       -1.89172883       0.63861719      -0.48150440
H        2.76171817      -0.10735999       0.29686809
10
Frame=10 idx=005704 GeodesicLength=1.0469031565265157 rxn_smarts="[C:1]([O:2][C:3](=[O:4])[C:5](=[O:6])[H:10])([H:7])([H:8])[H:9]>>[C:1]([O+:2]=[C-:3][O:4][C:5](=[O:6])[H:10])([H:7])([H:8])[H:9]"
C       -1.75524559       0.05321894       0.42534609
O       -0.73823055      -0.94577537       0.18753294
C        0.48819914      -0.54304080       0.06080075
O        0.66103033       0.70824498      -0.10576985
C        2.08820298      -0.03881369      -0.59611463
O        2.51641138      -0.00822759      -1.71084972
H       -2.65399352      -0.49588148       0.68557193
H       -1.47355773       0.72401528       1.23637149
H       -1.89112670       0.64192054      -0.48129048
H        2.75831026      -0.09566082       0.29840147
10
Frame=11 idx=005704 GeodesicLength=1.0795367370201452 rxn_smarts="[C:1]([O:2][C:3](=[O:4])[C:5](=[O:6])[H:10])([H:7])([H:8])[H:9]>>[C:1]([O+:2]=[C-:3][O:4][C:5](=[O:6])[H:10])([H:7])([H:8])[H:9]"
C       -1.75475668       0.05163212       0.42097640
O       -0.73283722      -0.93912850       0.17366306
C        0.49580816      -0.53236539       0.08537620
O        0.66742763       0.71887157      -0.07894415
C        2.09047467      -0.04143632      -0.60130761
O        2.49883312      -0.03204213      -1.72269041
H       -2.65234833      -0.50346128       0.67270833
H       -1.48480496       0.71720584       1.24021724
H       -1.88788530       0.64760442      -0.48130280
H        2.76008891      -0.08688032       0.29130373
10
Frame=12 idx=005704 GeodesicLength=1.1161532942180477 rxn_smarts="[C:1]([O:2][C:3](=[O:4])[C:5](=[O:6])[H:10])([H:7])([H:8])[H:9]>>[C:1]([O+:2]=[C-:3][O:4][C:5](=[O:6])[H:10])([H:7])([H:8])[H:9]"
C       -1.75398892       0.04955832       0.41292881
O       -0.72172469      -0.92891371       0.16346335
C        0.50826262      -0.51610984       0.13408237
O        0.67770225       0.73373686      -0.03982620
C        2.08732836      -0.04530684      -0.60892157
O        2.46710944      -0.06000774      -1.73907845
H       -2.65103212      -0.51515624       0.64497447
H       -1.50613408       0.70765895       1.24504430
H       -1.87709510       0.65573266      -0.48393541
H        2.76957224      -0.08119242       0.27126834
10
Frame=13 idx=005704 GeodesicLength=1.1618781747074227 rxn_smarts="[C:1]([O:2][C:3](=[O:4])[C:5](=[O:6])[H:10])([H:7])([H:8])[H:9]>>[C:1]([O+:2]=[C-:3][O:4][C:5](=[O:6])[H:10])([H:7])([H:8])[H:9]"
C       -1.75077463       0.04699248       0.39898673
O       -0.70074080      -0.91554118       0.16659208
C        0.52671780      -0.49387453       0.21019430
O        0.69491207       0.75382328       0.02317694
C        2.07472405      -0.04864599      -0.61951669
O        2.40907453      -0.09010773      -1.76214222
H       -2.64822776      -0.53092262       0.59486893
H       -1.54060827       0.69692227       1.24765810
H       -1.85153925       0.66391134      -0.49327149
H        2.78646226      -0.08255730       0.23345331
10
Frame=14 idx=005704 GeodesicLength=1.2212646258441082 rxn_smarts="[C:1]([O:2][C:3](=[O:4])[C:5](=[O:6])[H:10])([H:7])([H:8])[H:9]>>[C:1]([O+:2]=[C-:3][O:4][C:5](=[O:6])[H:10])([H:7])([H:8])[H:9]"
C       -1.74190758       0.04413834       0.37866962
O       -0.66901605      -0.90130501       0.19041687
C        0.55066968      -0.46793864       0.30833742
O        0.71943471       0.77766610       0.11189031
C        2.04890256      -0.04940674      -0.63225716
O        2.31939609      -0.11741114      -1.78932565
H       -2.63982509      -0.54874636       0.52144356
H       -1.58542140       0.68708177       1.24395255
H       -1.80613934       0.66924712      -0.51117448
H        2.80390642      -0.09332543       0.17804696
10
Frame=15 idx=005704 GeodesicLength=1.2953309985826453 rxn_smarts="[C:1]([O:2][C:3](=[O:4])[C:5](=[O:6])[H:10])([H:7])([H:8])[H:9]>>[C:1]([O+:2]=[C-:3][O:4][C:5](=[O:6])[H:10])([H:7])([H:8])[H:9]"
C       -1.72542663       0.04125559       0.35392423
O       -0.63069942      -0.88837276       0.23303249
C        0.57770683      -0.44198415       0.41568665
O        0.74856794       0.80204281       0.21585998
C        2.00962188      -0.04633895      -0.64503123
O        2.20437136      -0.13961309      -1.81445960
H       -2.62164163      -0.56639171       0.43184517
H       -1.63279328       0.67875766       1.23211863
H       -1.74232480       0.67118233      -0.53457394
H        2.81261775      -0.11053773       0.11159763
10
Frame=16 idx=005704 GeodesicLength=1.3807835463451483 rxn_smarts="[C:1]([O:2][C:3](=[O:4])[C:5](=[O:6])[H:10])([H:7])([H:8])[H:9]>>[C:1]([O+:2]=[C-:3][O:4][C:5](=[O:6])[H:10])([H:7])([H:8])[H:9]"
C       -1.70227810       0.03849787       0.32774493
O       -0.59154186      -0.87711272       0.28545750
C        0.60493341      -0.41850308       0.51951408
O        0.77884489       0.82443166       0.32112330
C        1.96081504      -0.03972335      -0.65605156
O        2.07736683      -0.15791170      -1.83263850
H       -2.59260459      -0.58286827       0.33674033
H       -1.67585426       0.67138262       1.21350368
H       -1.66763557       0.67114087      -0.55821385
H        2.80795421      -0.12933388       0.04282010
