14
Frame=0 idx=009164 GeodesicLength=0.0 rxn_smarts="[C:1]([n:2]1[c:3]([H:11])[c:4]([H:12])[c:5]([H:13])[c:6]1[O:7][H:14])([H:8])([H:9])[H:10]>>[C:1]([N:2]1[C@:3]2([H:11])[C:4]([H:12])=[C:5]([H:13])[C@:6]12[O:7][H:14])([H:8])([H:9])[H:10]"
C       -1.52854717       0.00302800       1.02811395
N       -0.93071805       0.32852198      -0.26530079
C       -0.27621171      -0.84876656      -0.92052296
C        1.02800675      -1.07072098      -0.42369315
C        1.44947874       0.04490445       0.28567042
C        0.33320768       0.84563385      -0.27729337
O        0.55726290       1.88245728      -1.03497653
H       -2.37868829      -0.64820467       0.83564887
H       -1.88537173       0.91853314       1.50308811
H       -0.82534950      -0.50923142       1.69386825
H       -0.67004460      -1.13771187      -1.88380357
H        1.61470510      -1.95043324      -0.67318555
H        1.98970201       0.16497781       1.21026703
H        1.52256786       1.97701226      -1.07788071
14
Frame=1 idx=009164 GeodesicLength=0.05520448748348742 rxn_smarts="[C:1]([n:2]1[c:3]([H:11])[c:4]([H:12])[c:5]([H:13])[c:6]1[O:7][H:14])([H:8])([H:9])[H:10]>>[C:1]([N:2]1[C@:3]2([H:11])[C:4]([H:12])=[C:5]([H:13])[C@:6]12[O:7][H:14])([H:8])([H:9])[H:10]"
C       -1.53495091       0.00468096       1.02320960
N       -0.92257812       0.31434817      -0.26465417
C       -0.26586744      -0.85258496      -0.92130245
C        1.03698461      -1.08275984      -0.42077634
C        1.45610588       0.04167109       0.27404265
C        0.33871282       0.83803490      -0.28509048
O        0.54258213       1.89995004      -1.01849735
H       -2.41033553      -0.60941669       0.82083699
H       -1.85835210       0.92641981       1.50963268
H       -0.85381382      -0.54078123       1.68511825
H       -0.67457667      -1.16273979      -1.87139741
H        1.61862718      -1.97011436      -0.65245735
H        2.02269632       0.17628256       1.18067134
H        1.50476566       2.01700933      -1.05933596
14
Frame=2 idx=009164 GeodesicLength=0.11008317553390473 rxn_smarts="[C:1]([n:2]1[c:3]([H:11])[c:4]([H:12])[c:5]([H:13])[c:6]1[O:7][H:14])([H:8])([H:9])[H:10]>>[C:1]([N:2]1[C@:3]2([H:11])[C:4]([H:12])=[C:5]([H:13])[C@:6]12[O:7][H:14])([H:8])([H:9])[H:10]"
C       -1.54132635       0.00632046       1.01794710
N       -0.91419071       0.30014071      -0.26391848
C       -0.25523105      -0.85632770      -0.92227119
C        1.04600835      -1.09470078      -0.41742814
C        1.46277191       0.03860118       0.26236191
C        0.34433377       0.83061480      -0.29321033
O        0.52728620       1.91760229      -1.00038446
H       -2.44102168      -0.56824009       0.80517650
H       -1.83020573       0.93269674       1.51683404
H       -0.88417603      -0.57291136       1.67500756
H       -0.67893887      -1.18822462      -1.85805012
H        1.62240842      -1.98955341      -0.63052248
H        2.05635716       0.18810576       1.14916507
H        1.48592461       2.05587602      -1.04070698
14
Frame=3 idx=009164 GeodesicLength=0.1645669876040094 rxn_smarts="[C:1]([n:2]1[c:3]([H:11])[c:4]([H:12])[c:5]([H:13])[c:6]1[O:7][H:14])([H:8])([H:9])[H:10]>>[C:1]([N:2]1[C@:3]2([H:11])[C:4]([H:12])=[C:5]([H:13])[C@:6]12[O:7][H:14])([H:8])([H:9])[H:10]"
C       -1.54774171       0.00795482       1.01235112
N       -0.90557429       0.28593334      -0.26303643
C       -0.24431270      -0.85996261      -0.92339855
C        1.05504389      -1.10653075      -0.41353308
C        1.46943223       0.03569076       0.25076684
C        0.35005205       0.82340414      -0.30157827
O        0.51142133       1.93532424      -0.98046062
H       -2.47055105      -0.52470039       0.78870902
H       -1.80115351       0.93719486       1.52473185
H       -0.91659746      -0.60543757       1.66350414
H       -0.68307389      -1.21407807      -1.84371029
H        1.62620123      -2.00850147      -0.60766777
H        2.09065657       0.20042740       1.11569495
H        1.46619729       2.09328130      -1.02237291
14
Frame=4 idx=009164 GeodesicLength=0.21855241680616883 rxn_smarts="[C:1]([n:2]1[c:3]([H:11])[c:4]([H:12])[c:5]([H:13])[c:6]1[O:7][H:14])([H:8])([H:9])[H:10]>>[C:1]([N:2]1[C@:3]2([H:11])[C:4]([H:12])=[C:5]([H:13])[C@:6]12[O:7][H:14])([H:8])([H:9])[H:10]"
C       -1.55421873       0.00948319       1.00646583
N       -0.89670469       0.27182107      -0.26187813
C       -0.23309330      -0.86328311      -0.92465054
C        1.06404647      -1.11807711      -0.40901519
C        1.47603057       0.03300590       0.23943176
C        0.35585847       0.81652776      -0.30998998
O        0.49510714       1.95314958      -0.95835460
H       -2.49861209      -0.47905174       0.77151496
H       -1.77151851       0.93956831       1.53338121
H       -0.95116496      -0.63827119       1.65054000
H       -0.68680445      -1.23982173      -1.82840489
H        1.62992041      -2.02674090      -0.58387674
H        2.12535509       0.21313133       1.08032319
H        1.44579858       2.12855864      -1.00548688
14
Frame=5 idx=009164 GeodesicLength=0.27197504229509534 rxn_smarts="[C:1]([n:2]1[c:3]([H:11])[c:4]([H:12])[c:5]([H:13])[c:6]1[O:7][H:14])([H:8])([H:9])[H:10]>>[C:1]([N:2]1[C@:3]2([H:11])[C:4]([H:12])=[C:5]([H:13])[C@:6]12[O:7][H:14])([H:8])([H:9])[H:10]"
C       -1.56087667       0.01101219       1.00032977
N       -0.88763634       0.25778620      -0.26038951
C       -0.22163149      -0.86642253      -0.92588743
C        1.07295057      -1.12947008      -0.40364043
C        1.48251232       0.03046863       0.22854799
C        0.36172084       0.80992912      -0.31838569
O        0.47843650       1.97078879      -0.93407768
H       -2.52510082      -0.43126908       0.75368319
H       -1.74157515       0.93985087       1.54275715
H       -0.98805737      -0.67106188       1.63614623
H       -0.69010111      -1.26554916      -1.81204041
H        1.63405017      -2.04391781      -0.56000308
H        2.16042561       0.22616986       1.04303230
H        1.42488293       2.16168489      -0.99007239
14
Frame=6 idx=009164 GeodesicLength=0.3246890509974751 rxn_smarts="[C:1]([n:2]1[c:3]([H:11])[c:4]([H:12])[c:5]([H:13])[c:6]1[O:7][H:14])([H:8])([H:9])[H:10]>>[C:1]([N:2]1[C@:3]2([H:11])[C:4]([H:12])=[C:5]([H:13])[C@:6]12[O:7][H:14])([H:8])([H:9])[H:10]"
C       -1.56777552       0.01245842       0.99402259
N       -0.87839192       0.24396117      -0.25841934
C       -0.20994050      -0.86917817      -0.92709927
C        1.08175275      -1.14057037      -0.39738965
C        1.48891033       0.02812905       0.21830766
C        0.36762764       0.80376504      -0.32648142
O        0.46161810       1.98827984      -0.90725174
H       -2.54972479      -0.38186020       0.73534785
H       -1.71190075       0.93779489       1.55288658
H       -1.02722253      -0.70357763       1.62034706
H       -0.69282016      -1.29069686      -1.79483643
H        1.63849576      -2.06004040      -0.53598364
H        2.19573228       0.23935615       1.00392459
H        1.40363929       2.19217905      -0.97737485
14
Frame=7 idx=009164 GeodesicLength=0.37697928050139407 rxn_smarts="[C:1]([n:2]1[c:3]([H:11])[c:4]([H:12])[c:5]([H:13])[c:6]1[O:7][H:14])([H:8])([H:9])[H:10]>>[C:1]([N:2]1[C@:3]2([H:11])[C:4]([H:12])=[C:5]([H:13])[C@:6]12[O:7][H:14])([H:8])([H:9])[H:10]"
C       -1.57489314       0.01400414       0.98749329
N       -0.86894423       0.23008952      -0.25607647
C       -0.19809089      -0.87202045      -0.92799051
C        1.09033487      -1.15163792      -0.38996524
C        1.49514920       0.02587685       0.20857023
C        0.37358951       0.79772690      -0.33465636
O        0.44470710       2.00499067      -0.87865963
H       -2.57251573      -0.33013480       0.71661771
H       -1.68201818       0.93355486       1.56371851
H       -1.06898359      -0.73566168       1.60295105
H       -0.69490496      -1.31584222      -1.77640183
H        1.64373273      -2.07488226      -0.51255797
H        2.23103187       0.25272916       0.96262498
H        1.38180543       2.22120724      -0.96566776
14
Frame=8 idx=009164 GeodesicLength=0.42874367695841287 rxn_smarts="[C:1]([n:2]1[c:3]([H:11])[c:4]([H:12])[c:5]([H:13])[c:6]1[O:7][H:14])([H:8])([H:9])[H:10]>>[C:1]([N:2]1[C@:3]2([H:11])[C:4]([H:12])=[C:5]([H:13])[C@:6]12[O:7][H:14])([H:8])([H:9])[H:10]"
C       -1.58224335       0.01562406       0.98074823
N       -0.85928840       0.21628656      -0.25327025
C       -0.18607395      -0.87479808      -0.92849343
C        1.09867215      -1.16256237      -0.38124771
C        1.50116818       0.02370875       0.19957639
C        0.37956820       0.79190787      -0.34269556
O        0.42781698       2.02072722      -0.84836712
H       -2.59322691      -0.27614532       0.69745686
H       -1.65216482       0.92680231       1.57539715
H       -1.11338802      -0.76721715       1.58378775
H       -0.69625973      -1.34071284      -1.75683665
H        1.64969713      -2.08847755      -0.48961429
H        2.26642613       0.26625059       0.91890380
H        1.35929640       2.24860596      -0.95534517
14
Frame=9 idx=009164 GeodesicLength=0.4798720104995617 rxn_smarts="[C:1]([n:2]1[c:3]([H:11])[c:4]([H:12])[c:5]([H:13])[c:6]1[O:7][H:14])([H:8])([H:9])[H:10]>>[C:1]([N:2]1[C@:3]2([H:11])[C:4]([H:12])=[C:5]([H:13])[C@:6]12[O:7][H:14])([H:8])([H:9])[H:10]"
C       -1.58968280       0.01745087       0.97385473
N       -0.84948223       0.20246557      -0.25006519
C       -0.17400608      -0.87779490      -0.92863060
C        1.10686082      -1.17345970      -0.37151836
C        1.50721949       0.02166393       0.19084003
C        0.38553485       0.78623882      -0.35091272
O        0.41105320       2.03535979      -0.81680726
H       -2.61142530      -0.22051537       0.67841752
H       -1.62278217       0.91792672       1.58747037
H       -1.15992448      -0.79746048       1.56307883
H       -0.69692559      -1.36525092      -1.73637619
H        1.65637627      -2.10121841      -0.46700116
H        2.30117886       0.27941255       0.87303169
H        1.33600516       2.27518152      -0.94538171
14
Frame=10 idx=009164 GeodesicLength=0.5307748645582729 rxn_smarts="[C:1]([n:2]1[c:3]([H:11])[c:4]([H:12])[c:5]([H:13])[c:6]1[O:7][H:14])([H:8])([H:9])[H:10]>>[C:1]([N:2]1[C@:3]2([H:11])[C:4]([H:12])=[C:5]([H:13])[C@:6]12[O:7][H:14])([H:8])([H:9])[H:10]"
C       -1.59741663       0.01937084       0.96671619
N       -0.83947214       0.18856903      -0.24641193
C       -0.16177286      -0.88101924      -0.92817189
C        1.11482373      -1.18422661      -0.36034047
C        1.51306216       0.01978080       0.18278733
C        0.39151032       0.78070023      -0.35915042
O        0.39439906       2.04861165      -0.78433134
H       -2.62730276      -0.16210809       0.65908905
H       -1.59325254       0.90613685       1.60062467
H       -1.20961499      -0.82705305       1.54009954
H       -0.69668568      -1.38973832      -1.71476807
H        1.66371265      -2.11297027      -0.44429411
H        2.33621682       0.29283396       0.82350933
H        1.31179288       2.30111222      -0.93535788
14
Frame=11 idx=009164 GeodesicLength=0.5812498519574648 rxn_smarts="[C:1]([n:2]1[c:3]([H:11])[c:4]([H:12])[c:5]([H:13])[c:6]1[O:7][H:14])([H:8])([H:9])[H:10]>>[C:1]([N:2]1[C@:3]2([H:11])[C:4]([H:12])=[C:5]([H:13])[C@:6]12[O:7][H:14])([H:8])([H:9])[H:10]"
C       -1.60511361       0.02147200       0.95940382
N       -0.82930463       0.17457510      -0.24239214
C       -0.14945900      -0.88455876      -0.92729757
C        1.12280457      -1.19479490      -0.34826343
C        1.51911435       0.01818185       0.17465992
C        0.39742171       0.77526048      -0.36776352
O        0.37780875       2.06057133      -0.75097785
H       -2.64029827      -0.10171303       0.64020627
H       -1.56391647       0.89171987       1.61434061
H       -1.26152032      -0.85513311       1.51502329
H       -0.69563155      -1.41383350      -1.69238609
H        1.67154448      -2.12411131      -0.42104748
H        2.37008110       0.30572549       0.77161844
H        1.28646890       2.32663850      -0.92512428
14
Frame=12 idx=009164 GeodesicLength=0.6314992394283341 rxn_smarts="[C:1]([n:2]1[c:3]([H:11])[c:4]([H:12])[c:5]([H:13])[c:6]1[O:7][H:14])([H:8])([H:9])[H:10]>>[C:1]([N:2]1[C@:3]2([H:11])[C:4]([H:12])=[C:5]([H:13])[C@:6]12[O:7][H:14])([H:8])([H:9])[H:10]"
C       -1.61306523       0.02362612       0.95186878
N       -0.81892241       0.16061619      -0.23772314
C       -0.13694938      -0.88821006      -0.92553799
C        1.13058138      -1.20505878      -0.33451097
C        1.52493364       0.01679519       0.16744802
C        0.40324701       0.77003406      -0.37604478
O        0.36140553       2.07089897      -0.71728895
H       -2.65028432      -0.03845964       0.62127977
H       -1.53478982       0.87364371       1.62935256
H       -1.31670066      -0.88223420       1.48709017
H       -0.69341353      -1.43738901      -1.66907347
H        1.67999573      -2.13422044      -0.39731619
H        2.40387257       0.31863577       0.71541169
H        1.26008949       2.35132212      -0.91495550
14
Frame=13 idx=009164 GeodesicLength=0.6812973693391402 rxn_smarts="[C:1]([n:2]1[c:3]([H:11])[c:4]([H:12])[c:5]([H:13])[c:6]1[O:7][H:14])([H:8])([H:9])[H:10]>>[C:1]([N:2]1[C@:3]2([H:11])[C:4]([H:12])=[C:5]([H:13])[C@:6]12[O:7][H:14])([H:8])([H:9])[H:10]"
C       -1.62077000       0.02594810       0.94435762
N       -0.80837120       0.14658199      -0.23260836
C       -0.12446911      -0.89225773      -0.92319297
C        1.13835680      -1.21503094      -0.31992379
C        1.53104237       0.01580036       0.15988363
C        0.40895661       0.76495122      -0.38472879
O        0.34530050       2.07982024      -0.68372804
H       -2.65669208       0.02631789       0.60352401
H       -1.50611997       0.85267219       1.64493061
H       -1.37380345      -0.90723774       1.45701453
H       -0.69030188      -1.46023921      -1.64544188
H        1.68903982      -2.14356948      -0.37342295
H        2.43509406       0.33066687       0.65815034
H        1.23273752       2.37557623      -0.90481396
14
Frame=14 idx=009164 GeodesicLength=0.7306192601265561 rxn_smarts="[C:1]([n:2]1[c:3]([H:11])[c:4]([H:12])[c:5]([H:13])[c:6]1[O:7][H:14])([H:8])([H:9])[H:10]>>[C:1]([N:2]1[C@:3]2([H:11])[C:4]([H:12])=[C:5]([H:13])[C@:6]12[O:7][H:14])([H:8])([H:9])[H:10]"
C       -1.62859600       0.02842696       0.93683446
N       -0.79766918       0.13263286      -0.22670552
C       -0.11186405      -0.89640064      -0.91989932
C        1.14614870      -1.22453217      -0.30408959
C        1.53727878       0.01510224       0.15260971
C        0.41452517       0.76004153      -0.39304813
O        0.32956259       2.08700385      -0.65045855
H       -2.65954580       0.09275653       0.58670750
H       -1.47870928       0.82825102       1.66132384
H       -1.43325505      -0.92996078       1.42428327
H       -0.68609595      -1.48214070      -1.62130056
H        1.69891474      -2.15180864      -0.34955112
H        2.46479352       0.34191759       0.59820390
H        1.20451180       2.39871034      -0.89490990
14
Frame=15 idx=009164 GeodesicLength=0.7795826537129318 rxn_smarts="[C:1]([n:2]1[c:3]([H:11])[c:4]([H:12])[c:5]([H:13])[c:6]1[O:7][H:14])([H:8])([H:9])[H:10]>>[C:1]([N:2]1[C@:3]2([H:11])[C:4]([H:12])=[C:5]([H:13])[C@:6]12[O:7][H:14])([H:8])([H:9])[H:10]"
C       -1.63619712       0.03102764       0.92943940
N       -0.78681433       0.11868528      -0.22020118
C       -0.09930138      -0.90083367      -0.91590144
C        1.15402279      -1.23357404      -0.28749818
C        1.54385282       0.01483596       0.14488637
C        0.41992441       0.75532060      -0.40150097
O        0.31423568       2.09280775      -0.61789782
H       -2.65846023       0.16052384       0.57150580
H       -1.45218058       0.80042378       1.67844781
H       -1.49454752      -0.95013552       1.38904362
H       -0.68109309      -1.50326733      -1.59700424
H        1.70948296      -2.15913775      -0.32573805
H        2.49166712       0.35223491       0.53801447
H        1.17540848       2.42108855      -0.88559559
14
Frame=16 idx=009164 GeodesicLength=0.8285541539723618 rxn_smarts="[C:1]([n:2]1[c:3]([H:11])[c:4]([H:12])[c:5]([H:13])[c:6]1[O:7][H:14])([H:8])([H:9])[H:10]>>[C:1]([N:2]1[C@:3]2([H:11])[C:4]([H:12])=[C:5]([H:13])[C@:6]12[O:7][H:14])([H:8])([H:9])[H:10]"
C       -1.64367894       0.03363197       0.92203278
N       -0.77580077       0.10476280      -0.21304216
C       -0.08662488      -0.90542128      -0.91106975
C        1.16203947      -1.24197503      -0.26990603
C        1.55066277       0.01508186       0.13695821
C        0.42507893       0.75082751      -0.40981905
O        0.29918243       2.09726445      -0.58618035
H       -2.65311380       0.23050301       0.55807046
H       -1.42637414       0.76798794       1.69669574
H       -1.55842765      -0.96794647       1.35015480
H       -0.67511889      -1.52374838      -1.57226499
H        1.72049121      -2.16557941      -0.30094947
H        2.51640136       0.36191929       0.47604202
H        1.14528290       2.44269173      -0.87672221
