11
Frame=0 idx=004002 GeodesicLength=0.0 rxn_smarts="[N:1](=[C:2]1\[C:3]([H:8])([H:9])[N:4]=[C:5]([H:10])[N:6]1[H:11])\[H:7]>>[N:1]1([H:7])[C:2]([C:3]([N:4]=[C:5]([H:10])[H:11])([H:8])[H:9])=[N:6]1"
N       -1.60194313       1.56512962      -0.24322370
C       -0.57339269       0.77130355      -0.01650786
C       -0.54923959      -0.74418136       0.07105525
N        0.76311333      -1.29525146      -0.14255277
C        1.73230901      -0.52268755      -0.14990778
N        0.45639626       1.50431940       0.23980575
H       -2.45008146       1.14973264       0.14475061
H       -0.90580710      -1.07155175       1.05127864
H       -1.24001674      -1.14230955      -0.67554998
H        2.76217947      -0.83114984      -0.31738258
H        1.60648269       0.61664626       0.03823442
11
Frame=1 idx=004002 GeodesicLength=0.07169026229119871 rxn_smarts="[N:1](=[C:2]1\[C:3]([H:8])([H:9])[N:4]=[C:5]([H:10])[N:6]1[H:11])\[H:7]>>[N:1]1([H:7])[C:2]([C:3]([N:4]=[C:5]([H:10])[H:11])([H:8])[H:9])=[N:6]1"
N       -1.59149021       1.57572220      -0.22362065
C       -0.57794295       0.75687580      -0.01941010
C       -0.55281472      -0.75695409       0.06415150
N        0.76529112      -1.29936215      -0.14045888
C        1.72724131      -0.51525361      -0.12800692
N        0.45454702       1.48068213       0.25432112
H       -2.44130478       1.17328111       0.17386182
H       -0.92045397      -1.08934968       1.03855573
H       -1.23535657      -1.15121826      -0.69207494
H        2.76236188      -0.82781366      -0.25113517
H        1.60992187       0.65339022      -0.07618351
11
Frame=2 idx=004002 GeodesicLength=0.14467428703612117 rxn_smarts="[N:1](=[C:2]1\[C:3]([H:8])([H:9])[N:4]=[C:5]([H:10])[N:6]1[H:11])\[H:7]>>[N:1]1([H:7])[C:2]([C:3]([N:4]=[C:5]([H:10])[H:11])([H:8])[H:9])=[N:6]1"
N       -1.58031017       1.58547576      -0.20530937
C       -0.58245381       0.74253276      -0.02261322
C       -0.55602351      -0.76984727       0.05678405
N        0.76808252      -1.30364826      -0.13883460
C        1.72055584      -0.50536568      -0.11035610
N        0.45596207       1.45798426       0.25363209
H       -2.43018550       1.19797025       0.20627608
H       -0.93357173      -1.10619117       1.02596896
H       -1.23047161      -1.16063748      -0.70839015
H        2.76035764      -0.81717627      -0.18951674
H        1.60805827       0.67890309      -0.16764100
11
Frame=3 idx=004002 GeodesicLength=0.21815610579842631 rxn_smarts="[N:1](=[C:2]1\[C:3]([H:8])([H:9])[N:4]=[C:5]([H:10])[N:6]1[H:11])\[H:7]>>[N:1]1([H:7])[C:2]([C:3]([N:4]=[C:5]([H:10])[H:11])([H:8])[H:9])=[N:6]1"
N       -1.56847258       1.59423749      -0.19034738
C       -0.58686491       0.72820292      -0.02824634
C       -0.55907296      -0.78265715       0.04995191
N        0.77093365      -1.30828607      -0.13549865
C        1.71281427      -0.49473709      -0.09799778
N        0.45763403       1.43607714       0.24780072
H       -2.41707371       1.22293549       0.23801213
H       -0.94586019      -1.12083533       1.01476960
H       -1.22556516      -1.17158874      -0.72306126
H        2.75607031      -0.80257798      -0.13781947
H        1.60545726       0.69922931      -0.23756347
11
Frame=4 idx=004002 GeodesicLength=0.2918571039581288 rxn_smarts="[N:1](=[C:2]1\[C:3]([H:8])([H:9])[N:4]=[C:5]([H:10])[N:6]1[H:11])\[H:7]>>[N:1]1([H:7])[C:2]([C:3]([N:4]=[C:5]([H:10])[H:11])([H:8])[H:9])=[N:6]1"
N       -1.55600881       1.60233327      -0.17806306
C       -0.59134279       0.71395216      -0.03489008
C       -0.56206370      -0.79542386       0.04382259
N        0.77378994      -1.31319480      -0.13033419
C        1.70457423      -0.48403941      -0.08813260
N        0.45899578       1.41468234       0.24073117
H       -2.40260347       1.24804078       0.26793281
H       -0.95810939      -1.13421109       1.00459657
H       -1.22036197      -1.18361737      -0.73650385
H        2.75033996      -0.78594878      -0.09464500
H        1.60279021       0.71742675      -0.29451438
11
Frame=5 idx=004002 GeodesicLength=0.3656698545702609 rxn_smarts="[N:1](=[C:2]1\[C:3]([H:8])([H:9])[N:4]=[C:5]([H:10])[N:6]1[H:11])\[H:7]>>[N:1]1([H:7])[C:2]([C:3]([N:4]=[C:5]([H:10])[H:11])([H:8])[H:9])=[N:6]1"
N       -1.54323573       1.60971675      -0.16773000
C       -0.59600548       0.69978387      -0.04250146
C       -0.56503465      -0.80811212       0.03801129
N        0.77654316      -1.31820530      -0.12398073
C        1.69598053      -0.47347818      -0.07958907
N        0.45989939       1.39374861       0.23269718
H       -2.38660913       1.27321866       0.29736534
H       -0.97039960      -1.14668265       0.99490560
H       -1.21489090      -1.19645381      -0.74925686
H        2.74360108      -0.76815701      -0.05688350
H        1.60015134       0.73462119      -0.34303779
11
Frame=6 idx=004002 GeodesicLength=0.4395407704015995 rxn_smarts="[N:1](=[C:2]1\[C:3]([H:8])([H:9])[N:4]=[C:5]([H:10])[N:6]1[H:11])\[H:7]>>[N:1]1([H:7])[C:2]([C:3]([N:4]=[C:5]([H:10])[H:11])([H:8])[H:9])=[N:6]1"
N       -1.53021814       1.61646314      -0.15899433
C       -0.60089006       0.68571072      -0.05059469
C       -0.56799659      -0.82071903       0.03250483
N        0.77916109      -1.32324985      -0.11668600
C        1.68710299      -0.46313024      -0.07196551
N        0.46034562       1.37320884       0.22423889
H       -2.36922482       1.29839273       0.32617851
H       -0.98275725      -1.15855238       0.98556741
H       -1.20916738      -1.20987302      -0.76143032
H        2.73610376      -0.74969162      -0.02338854
H        1.59754078       0.75144070      -0.38543024
11
Frame=7 idx=004002 GeodesicLength=0.5134447903791526 rxn_smarts="[N:1](=[C:2]1\[C:3]([H:8])([H:9])[N:4]=[C:5]([H:10])[N:6]1[H:11])\[H:7]>>[N:1]1([H:7])[C:2]([C:3]([N:4]=[C:5]([H:10])[H:11])([H:8])[H:9])=[N:6]1"
N       -1.51704855       1.62262554      -0.15152395
C       -0.60601320       0.67176155      -0.05897396
C       -0.57095597      -0.83323391       0.02723874
N        0.78161197      -1.32828674      -0.10876318
C        1.67798379      -0.45305299      -0.06508242
N        0.46036579       1.35305801       0.21547056
H       -2.35050276       1.32345519       0.35446870
H       -0.99512613      -1.16998390       0.97649499
H       -1.20326529      -1.22373013      -0.77310346
H        2.72799732      -0.73086390       0.00694592
H        1.59495302       0.76825127      -0.42317194
11
Frame=8 idx=004002 GeodesicLength=0.5873628556690447 rxn_smarts="[N:1](=[C:2]1\[C:3]([H:8])([H:9])[N:4]=[C:5]([H:10])[N:6]1[H:11])\[H:7]>>[N:1]1([H:7])[C:2]([C:3]([N:4]=[C:5]([H:10])[H:11])([H:8])[H:9])=[N:6]1"
N       -1.50363931       1.62822265      -0.14526727
C       -0.61133225       0.65791753      -0.06726032
C       -0.57391417      -0.84564479       0.02232843
N        0.78384623      -1.33326053      -0.10023431
C        1.66861573      -0.44325094      -0.05877559
N        0.46000038       1.33321000       0.20692191
H       -2.33060586       1.34830297       0.38160993
H       -1.00747311      -1.18107442       0.96774158
H       -1.19722166      -1.23790016      -0.78418101
H        2.71937115      -0.71191510       0.03393517
H        1.59235285       0.78539280      -0.45681853
11
Frame=9 idx=004002 GeodesicLength=0.6612767908408947 rxn_smarts="[N:1](=[C:2]1\[C:3]([H:8])([H:9])[N:4]=[C:5]([H:10])[N:6]1[H:11])\[H:7]>>[N:1]1([H:7])[C:2]([C:3]([N:4]=[C:5]([H:10])[H:11])([H:8])[H:9])=[N:6]1"
N       -1.49010866       1.63331978      -0.14003735
C       -0.61686000       0.64421191      -0.07540273
C       -0.57688334      -0.85795310       0.01773299
N        0.78588320      -1.33818412      -0.09121426
C        1.65906814      -0.43376897      -0.05293063
N        0.45928522       1.31368667       0.19855215
H       -2.30965231       1.37290005       0.40772247
H       -1.01982677      -1.19191621       0.95927222
H       -1.19106442      -1.25230454      -0.79474209
H        2.71039644      -0.69304156       0.05812456
H        1.58976251       0.80305008      -0.48707731
11
Frame=10 idx=004002 GeodesicLength=0.735187597659999 rxn_smarts="[N:1](=[C:2]1\[C:3]([H:8])([H:9])[N:4]=[C:5]([H:10])[N:6]1[H:11])\[H:7]>>[N:1]1([H:7])[C:2]([C:3]([N:4]=[C:5]([H:10])[H:11])([H:8])[H:9])=[N:6]1"
N       -1.47642522       1.63794800      -0.13569147
C       -0.62256170       0.63064638      -0.08327008
C       -0.57984881      -0.87014475       0.01346977
N        0.78769496      -1.34304472      -0.08172098
C        1.64932294      -0.42462191      -0.04749044
N        0.45825020       1.29445792       0.19047116
H       -2.28771320       1.39715744       0.43262439
H       -1.03216049      -1.20253903       0.95105328
H       -1.18477208      -1.26686467      -0.80477197
H        2.70110551      -0.67437586       0.07966791
H        1.58710787       0.82138118      -0.51434156
11
Frame=11 idx=004002 GeodesicLength=0.8091072543891258 rxn_smarts="[N:1](=[C:2]1\[C:3]([H:8])([H:9])[N:4]=[C:5]([H:10])[N:6]1[H:11])\[H:7]>>[N:1]1([H:7])[C:2]([C:3]([N:4]=[C:5]([H:10])[H:11])([H:8])[H:9])=[N:6]1"
N       -1.46263836       1.64211857      -0.13213392
C       -0.62842519       0.61721453      -0.09079470
C       -0.58282924      -0.88223283       0.00951188
N        0.78928426      -1.34785015      -0.07184129
C        1.63942113      -0.41582680      -0.04247759
N        0.45697043       1.27551352       0.18262166
H       -2.26486149       1.42108329       0.45641664
H       -1.04448776      -1.21302133       0.94306624
H       -1.17840344      -1.28152686      -0.81432787
H        2.69158432      -0.65597568       0.09901784
H        1.58438534       0.84050374      -0.53905891
11
Frame=12 idx=004002 GeodesicLength=0.8830436352340454 rxn_smarts="[N:1](=[C:2]1\[C:3]([H:8])([H:9])[N:4]=[C:5]([H:10])[N:6]1[H:11])\[H:7]>>[N:1]1([H:7])[C:2]([C:3]([N:4]=[C:5]([H:10])[H:11])([H:8])[H:9])=[N:6]1"
N       -1.44881409       1.64582554      -0.12919841
C       -0.63444795       0.60391448      -0.09803391
C       -0.58582618      -0.89421217       0.00578320
N        0.79064739      -1.35260401      -0.06156521
C        1.62936892      -0.40740057      -0.03787633
N        0.45548186       1.25685983       0.17475308
H       -2.24100928       1.44465258       0.47942517
H       -1.05685425      -1.22338116       0.93519323
H       -1.17191598      -1.29625438      -0.82352057
H        2.68183136      -0.63783203       0.11673899
H        1.58153819       0.86043189      -0.56169924
11
Frame=13 idx=004002 GeodesicLength=0.9570258674951325 rxn_smarts="[N:1](=[C:2]1\[C:3]([H:8])([H:9])[N:4]=[C:5]([H:10])[N:6]1[H:11])\[H:7]>>[N:1]1([H:7])[C:2]([C:3]([N:4]=[C:5]([H:10])[H:11])([H:8])[H:9])=[N:6]1"
N       -1.43493816       1.64907880      -0.12685492
C       -0.64060890       0.59072064      -0.10488685
C       -0.58883642      -0.90611157       0.00228637
N        0.79177884      -1.35732580      -0.05091171
C        1.61916888      -0.39935994      -0.03376842
N        0.45382388       1.23846460       0.16689174
H       -2.21616526       1.46792274       0.50162456
H       -1.06925283      -1.23369115       0.92741774
H       -1.16531163      -1.31102688      -0.83236288
H        2.67183727      -0.61994232       0.13304861
H        1.57850432       0.88127088      -0.58248426
11
Frame=14 idx=004002 GeodesicLength=1.0310220891991908 rxn_smarts="[N:1](=[C:2]1\[C:3]([H:8])([H:9])[N:4]=[C:5]([H:10])[N:6]1[H:11])\[H:7]>>[N:1]1([H:7])[C:2]([C:3]([N:4]=[C:5]([H:10])[H:11])([H:8])[H:9])=[N:6]1"
N       -1.42102602       1.65192351      -0.12501948
C       -0.64688060       0.57767293      -0.11138479
C       -0.59186951      -0.91789194      -0.00094715
N        0.79266765      -1.36199721      -0.03977642
C        1.60884425      -0.39171309      -0.02992224
N        0.45201901       1.22034178       0.15909056
H       -2.19049566       1.49072937       0.52282225
H       -1.08174112      -1.24388759       0.91975614
H       -1.15856961      -1.32580402      -0.84084078
H        2.66172880      -0.60247598       0.14759409
H        1.57532281       0.90310224      -0.60137217
11
Frame=15 idx=004002 GeodesicLength=1.1050578847107468 rxn_smarts="[N:1](=[C:2]1\[C:3]([H:8])([H:9])[N:4]=[C:5]([H:10])[N:6]1[H:11])\[H:7]>>[N:1]1([H:7])[C:2]([C:3]([N:4]=[C:5]([H:10])[H:11])([H:8])[H:9])=[N:6]1"
N       -1.40703687       1.65436759      -0.12373598
C       -0.65324101       0.56473598      -0.11739609
C       -0.59492265      -0.92958621      -0.00388538
N        0.79331312      -1.36663759      -0.02822585
C        1.59840506      -0.38448327      -0.02646207
N        0.45010527       1.20242981       0.15147404
H       -2.16408551       1.51316452       0.54285692
H       -1.09426421      -1.25404386       0.91224523
H       -1.15174179      -1.34056384      -0.84890715
H        2.65152528      -0.58545842       0.16043011
H        1.57194333       0.92607528      -0.61839378
11
Frame=16 idx=004002 GeodesicLength=1.1791057503680096 rxn_smarts="[N:1](=[C:2]1\[C:3]([H:8])([H:9])[N:4]=[C:5]([H:10])[N:6]1[H:11])\[H:7]>>[N:1]1([H:7])[C:2]([C:3]([N:4]=[C:5]([H:10])[H:11])([H:8])[H:9])=[N:6]1"
N       -1.39297661       1.65644549      -0.12295001
C       -0.65965802       0.55194222      -0.12296687
C       -0.59800279      -0.94115950      -0.00650329
N        0.79370278      -1.37123160      -0.01620185
C        1.58786647      -0.37767582      -0.02319972
N        0.44810833       1.18474152       0.14406164
H       -2.13710628       1.53508572       0.56157878
H       -1.10684496      -1.26409334       0.90491054
H       -1.14483051      -1.35527548      -0.85653571
H        2.64134157      -0.56905160       0.17126333
H        1.56840003       0.95027239      -0.63345683
