15
Frame=0 idx=008213 GeodesicLength=0.0 rxn_smarts="[C:1]1([H:8])([H:9])[O:2][C@@:3]2([H:10])[C:4]([H:11])=[C:5]([H:12])[C:6]([H:13])([H:14])[C@@:7]12[H:15]>>[C:1](=[C:7]([C:6](/[C:5](=[C:4](\[C:3](=[O:2])[H:10])[H:11])[H:12])([H:13])[H:14])[H:15])([H:8])[H:9]"
C       -1.45897232      -0.36984083      -0.50060808
O       -1.03503410      -1.63788796       0.06594595
C        0.15220434      -1.56295036       0.62427906
C        1.30301775      -0.80633044       0.29112357
C        1.39838208       0.47478420      -0.14498325
C        0.26651571       1.41047523      -0.05103625
C       -1.00240865       0.77233156       0.31033941
H       -1.02783565      -0.33280777      -1.51204325
H       -2.54046090      -0.47335552      -0.58250194
H        0.36057192      -2.48890275       1.15729221
H        2.22846012      -1.35802618       0.43816617
H        2.35076955       0.83738207      -0.51864300
H        0.54212069       2.19261910       0.66920032
H        0.22308618       1.94886225      -1.01733633
H       -1.76041671       1.39364738       0.77080541
15
Frame=1 idx=008213 GeodesicLength=0.11980966617114146 rxn_smarts="[C:1]1([H:8])([H:9])[O:2][C@@:3]2([H:10])[C:4]([H:11])=[C:5]([H:12])[C:6]([H:13])([H:14])[C@@:7]12[H:15]>>[C:1](=[C:7]([C:6](/[C:5](=[C:4](\[C:3](=[O:2])[H:10])[H:11])[H:12])([H:13])[H:14])[H:15])([H:8])[H:9]"
C       -1.46724672      -0.35984700      -0.53510192
O       -1.02262694      -1.64579023       0.06552943
C        0.15035393      -1.54130547       0.64904866
C        1.31160885      -0.80840403       0.28397006
C        1.40109081       0.46929398      -0.15751190
C        0.26986605       1.40650268      -0.04525693
C       -1.00191725       0.75912235       0.29642994
H       -1.03254153      -0.31359089      -1.54401023
H       -2.54869785      -0.46210868      -0.61698223
H        0.35263756      -2.44231256       1.22733913
H        2.23490721      -1.36353024       0.42887789
H        2.34291216       0.82643275      -0.56178900
H        0.54052670       2.16535831       0.70069951
H        0.22207872       1.96328885      -0.99982217
H       -1.75295170       1.34689019       0.80857975
15
Frame=2 idx=008213 GeodesicLength=0.2395716421979674 rxn_smarts="[C:1]1([H:8])([H:9])[O:2][C@@:3]2([H:10])[C:4]([H:11])=[C:5]([H:12])[C:6]([H:13])([H:14])[C@@:7]12[H:15]>>[C:1](=[C:7]([C:6](/[C:5](=[C:4](\[C:3](=[O:2])[H:10])[H:11])[H:12])([H:13])[H:14])[H:15])([H:8])[H:9]"
C       -1.47558764      -0.34918880      -0.56861516
O       -1.01003474      -1.65375579       0.06719260
C        0.14898696      -1.51972995       0.67266060
C        1.32009507      -0.81028687       0.27841622
C        1.40366591       0.46366821      -0.16938142
C        0.27317747       1.40232014      -0.03960311
C       -1.00144552       0.74632484       0.28280644
H       -1.03830391      -0.29316845      -1.57533227
H       -2.55708438      -0.44976123      -0.65031479
H        0.34564130      -2.39533619       1.29251478
H        2.24134436      -1.36844128       0.42209966
H        2.33397280       0.81488331      -0.60423152
H        0.53876140       2.13779729       0.73063248
H        0.22115910       1.97640561      -0.98260736
H       -1.74434819       1.29826916       0.84376285
15
Frame=3 idx=008213 GeodesicLength=0.3592395761230863 rxn_smarts="[C:1]1([H:8])([H:9])[O:2][C@@:3]2([H:10])[C:4]([H:11])=[C:5]([H:12])[C:6]([H:13])([H:14])[C@@:7]12[H:15]>>[C:1](=[C:7]([C:6](/[C:5](=[C:4](\[C:3](=[O:2])[H:10])[H:11])[H:12])([H:13])[H:14])[H:15])([H:8])[H:9]"
C       -1.48398465      -0.33786958      -0.60122657
O       -0.99721566      -1.66193444       0.07078174
C        0.14818507      -1.49844372       0.69517980
C        1.32858348      -0.81210168       0.27413505
C        1.40612739       0.45787735      -0.18060496
C        0.27643157       1.39784928      -0.03387115
C       -1.00095250       0.73368553       0.26969566
H       -1.04505975      -0.27132560      -1.60605093
H       -2.56559724      -0.43629435      -0.68262031
H        0.33962653      -2.34774454       1.35385083
H        2.24791750      -1.37292721       0.41713265
H        2.32387206       0.80274894      -0.64602673
H        0.53680825       2.10983887       0.75933195
H        0.22024631       1.98832499      -0.96541526
H       -1.73498836       1.24831615       0.87570822
15
Frame=4 idx=008213 GeodesicLength=0.47883115926443953 rxn_smarts="[C:1]1([H:8])([H:9])[O:2][C@@:3]2([H:10])[C:4]([H:11])=[C:5]([H:12])[C:6]([H:13])([H:14])[C@@:7]12[H:15]>>[C:1](=[C:7]([C:6](/[C:5](=[C:4](\[C:3](=[O:2])[H:10])[H:11])[H:12])([H:13])[H:14])[H:15])([H:8])[H:9]"
C       -1.49243876      -0.32588186      -0.63295990
O       -0.98412416      -1.67043589       0.07635823
C        0.14799695      -1.47749348       0.71692223
C        1.33713329      -0.81388057       0.27101459
C        1.40849212       0.45191787      -0.19113933
C        0.27961274       1.39306591      -0.02796862
C       -1.00040937       0.72104622       0.25720872
H       -1.05272816      -0.24799097      -1.63613984
H       -2.57423087      -0.42171425      -0.71395220
H        0.33481662      -2.29989428       1.41168924
H        2.25468312      -1.37715809       0.41334430
H        2.31260933       0.79006297      -0.68703419
H        0.53462458       2.08152247       0.78693281
H        0.21930647       1.99908019      -0.94815663
H       -1.72534389       1.19775376       0.90388059
15
Frame=5 idx=008213 GeodesicLength=0.5986358942144371 rxn_smarts="[C:1]1([H:8])([H:9])[O:2][C@@:3]2([H:10])[C:4]([H:11])=[C:5]([H:12])[C:6]([H:13])([H:14])[C@@:7]12[H:15]>>[C:1](=[C:7]([C:6](/[C:5](=[C:4](\[C:3](=[O:2])[H:10])[H:11])[H:12])([H:13])[H:14])[H:15])([H:8])[H:9]"
C       -1.50084478      -0.31324667      -0.66401507
O       -0.97078305      -1.67932402       0.08435076
C        0.14845880      -1.45686048       0.73825242
C        1.34582457      -0.81567035       0.26887913
C        1.41076127       0.44583318      -0.20091868
C        0.28266442       1.38796734      -0.02173977
C       -0.99983530       0.70823862       0.24537294
H       -1.06110638      -0.22301051      -1.66566076
H       -2.58286700      -0.40608917      -0.74462675
H        0.33132324      -2.25217943       1.46651171
H        2.26171144      -1.38131397       0.41010995
H        2.30002443       0.77675833      -0.72749456
H        0.53209415       2.05287998       0.81371111
H        0.21830435       2.00883561      -0.93065705
H       -1.71573015       1.14718156       0.92792462
15
Frame=6 idx=008213 GeodesicLength=0.7184854955361547 rxn_smarts="[C:1]1([H:8])([H:9])[O:2][C@@:3]2([H:10])[C:4]([H:11])=[C:5]([H:12])[C:6]([H:13])([H:14])[C@@:7]12[H:15]>>[C:1](=[C:7]([C:6](/[C:5](=[C:4](\[C:3](=[O:2])[H:10])[H:11])[H:12])([H:13])[H:14])[H:15])([H:8])[H:9]"
C       -1.50928453      -0.29992883      -0.69446683
O       -0.95710713      -1.68877532       0.09442088
C        0.14964473      -1.43668191       0.75909975
C        1.35467741      -0.81755932       0.26748852
C        1.41295240       0.43953531      -0.21010337
C        0.28560944       1.38245743      -0.01524007
C       -0.99915583       0.69506416       0.23413748
H       -1.07029055      -0.19623976      -1.69468097
H       -2.59158804      -0.38936782      -0.77459779
H        0.32922123      -2.20426967       1.51886080
H        2.26904746      -1.38537992       0.40740750
H        2.28624224       0.76292694      -0.76710919
H        0.52925697       2.02379990       0.83966192
H        0.21721070       2.01755379      -0.91291957
H       -1.70643650       1.09686503       0.94804095
15
Frame=7 idx=008213 GeodesicLength=0.8384184632996012 rxn_smarts="[C:1]1([H:8])([H:9])[O:2][C@@:3]2([H:10])[C:4]([H:11])=[C:5]([H:12])[C:6]([H:13])([H:14])[C@@:7]12[H:15]>>[C:1](=[C:7]([C:6](/[C:5](=[C:4](\[C:3](=[O:2])[H:10])[H:11])[H:12])([H:13])[H:14])[H:15])([H:8])[H:9]"
C       -1.51776583      -0.28590664      -0.72446778
O       -0.94304371      -1.69891297       0.10660314
C        0.15159985      -1.41701537       0.77956022
C        1.36371083      -0.81961454       0.26667055
C        1.41507363       0.43298071      -0.21874965
C        0.28843685       1.37647038      -0.00845946
C       -0.99833949       0.68134201       0.22341233
H       -1.08026182      -0.16751755      -1.72327376
H       -2.60039470      -0.37152616      -0.80398735
H        0.32860816      -2.15596138       1.56912943
H        2.27672091      -1.38941895       0.40504379
H        2.27128817       0.74857670      -0.80580840
H        0.52607656       1.99420900       0.86486059
H        0.21601306       2.02524794      -0.89489468
H       -1.69772248       1.04704683       0.96436104
15
Frame=8 idx=008213 GeodesicLength=0.958408617057345 rxn_smarts="[C:1]1([H:8])([H:9])[O:2][C@@:3]2([H:10])[C:4]([H:11])=[C:5]([H:12])[C:6]([H:13])([H:14])[C@@:7]12[H:15]>>[C:1](=[C:7]([C:6](/[C:5](=[C:4](\[C:3](=[O:2])[H:10])[H:11])[H:12])([H:13])[H:14])[H:15])([H:8])[H:9]"
C       -1.52628973      -0.27114233      -0.75415008
O       -0.92857705      -1.70980866       0.12101947
C        0.15434064      -1.39784442       0.79980762
C        1.37294445      -0.82187007       0.26633294
C        1.41712231       0.42615767      -0.22689925
C        0.29111787       1.36998424      -0.00142689
C       -0.99737896       0.66695280       0.21308539
H       -1.09097093      -0.13673227      -1.75149497
H       -2.60928240      -0.35255679      -0.83290811
H        0.32957981      -2.10737487       1.61755205
H        2.28474845      -1.39348945       0.40284382
H        2.25522514       0.73372978      -0.84350443
H        0.52248496       1.96413040       0.88932041
H        0.21468589       2.03194608      -0.87661159
H       -1.68975045       0.99791789       0.97703360
15
Frame=9 idx=008213 GeodesicLength=1.079088057821567 rxn_smarts="[C:1]1([H:8])([H:9])[O:2][C@@:3]2([H:10])[C:4]([H:11])=[C:5]([H:12])[C:6]([H:13])([H:14])[C@@:7]12[H:15]>>[C:1](=[C:7]([C:6](/[C:5](=[C:4](\[C:3](=[O:2])[H:10])[H:11])[H:12])([H:13])[H:14])[H:15])([H:8])[H:9]"
C       -1.53476210      -0.25557643      -0.78388343
O       -0.91375290      -1.72152722       0.13837492
C        0.15788748      -1.37907482       0.82015412
C        1.38236459      -0.82444240       0.26618941
C        1.41904398       0.41906072      -0.23461797
C        0.29356069       1.36294004       0.00591196
C       -0.99634084       0.65170115       0.20294136
H       -1.10230586      -0.10350280      -1.77944679
H       -2.61814893      -0.33248448      -0.86178954
H        0.33219485      -2.05839362       1.66461123
H        2.29311656      -1.39772462       0.40042773
H        2.23799042       0.71839089      -0.88029635
H        0.51833707       1.93348073       0.91322631
H        0.21318660       2.03779548      -0.85793406
H       -1.68237162       0.94935737       0.98613110
15
Frame=10 idx=008213 GeodesicLength=1.1997591103568845 rxn_smarts="[C:1]1([H:8])([H:9])[O:2][C@@:3]2([H:10])[C:4]([H:11])=[C:5]([H:12])[C:6]([H:13])([H:14])[C@@:7]12[H:15]>>[C:1](=[C:7]([C:6](/[C:5](=[C:4](\[C:3](=[O:2])[H:10])[H:11])[H:12])([H:13])[H:14])[H:15])([H:8])[H:9]"
C       -1.54331347      -0.23914649      -0.81359695
O       -0.89843809      -1.73415974       0.15818497
C        0.16227450      -1.36076866       0.84052027
C        1.39197170      -0.82730357       0.26635653
C        1.42088435       0.41162441      -0.24194901
C        0.29580723       1.35529732       0.01340210
C       -0.99512003       0.63549430       0.19288172
H       -1.11440671      -0.06781849      -1.80709846
H       -2.62712331      -0.31120504      -0.89039307
H        0.33657179      -2.00892322       1.71025525
H        2.30182094      -1.40208216       0.39800531
H        2.21982866       0.70260417      -0.91584840
H        0.51364563       1.90230990       0.93635375
H        0.21152705       2.04263088      -0.83906809
H       -1.67593025       0.90144639       0.99199408
15
Frame=11 idx=008213 GeodesicLength=1.3204438949152868 rxn_smarts="[C:1]1([H:8])([H:9])[O:2][C@@:3]2([H:10])[C:4]([H:11])=[C:5]([H:12])[C:6]([H:13])([H:14])[C@@:7]12[H:15]>>[C:1](=[C:7]([C:6](/[C:5](=[C:4](\[C:3](=[O:2])[H:10])[H:11])[H:12])([H:13])[H:14])[H:15])([H:8])[H:9]"
C       -1.55196750      -0.22176403      -0.84346772
O       -0.88257374      -1.74779400       0.18059364
C        0.16752440      -1.34291677       0.86099296
C        1.40175036      -0.83051147       0.26673270
C        1.42262793       0.40380341      -0.24894965
C        0.29781466       1.34698920       0.02098722
C       -0.99370666       0.61816536       0.18273909
H       -1.12729283      -0.02944025      -1.83449394
H       -2.63622847      -0.28866352      -0.91882527
H        0.34275668      -1.95873670       1.75472461
H        2.31085151      -1.40659923       0.39551912
H        2.20086942       0.68640334      -0.95006016
H        0.50833222       1.87058477       0.95868615
H        0.20966873       2.04643325      -0.82004000
H       -1.67042671       0.85404662       0.99486124
15
Frame=12 idx=008213 GeodesicLength=1.4411362210906238 rxn_smarts="[C:1]1([H:8])([H:9])[O:2][C@@:3]2([H:10])[C:4]([H:11])=[C:5]([H:12])[C:6]([H:13])([H:14])[C@@:7]12[H:15]>>[C:1](=[C:7]([C:6](/[C:5](=[C:4](\[C:3](=[O:2])[H:10])[H:11])[H:12])([H:13])[H:14])[H:15])([H:8])[H:9]"
C       -1.56076544      -0.20331494      -0.87364310
O       -0.86610700      -1.76249742       0.20580242
C        0.17364574      -1.32547884       0.88168152
C        1.41168477      -0.83410494       0.26725077
C        1.42425517       0.39556254      -0.25566755
C        0.29952926       1.33796487       0.02859880
C       -0.99209835       0.59956131       0.17233629
H       -1.14097901       0.01183681      -1.86163501
H       -2.64550337      -0.26478408      -0.94717691
H        0.35081861      -1.90778374       1.79819025
H        2.32019323      -1.41131011       0.39291521
H        2.18128224       0.66984010      -0.98281061
H        0.50229667       1.83832054       0.98017677
H        0.20756920       2.04918806      -0.80091527
H       -1.66582173       0.80699984       0.99489641
15
Frame=13 idx=008213 GeodesicLength=1.5618370031984978 rxn_smarts="[C:1]1([H:8])([H:9])[O:2][C@@:3]2([H:10])[C:4]([H:11])=[C:5]([H:12])[C:6]([H:13])([H:14])[C@@:7]12[H:15]>>[C:1](=[C:7]([C:6](/[C:5](=[C:4](\[C:3](=[O:2])[H:10])[H:11])[H:12])([H:13])[H:14])[H:15])([H:8])[H:9]"
C       -1.56975027      -0.18363992      -0.90426910
O       -0.84897775      -1.77838405       0.23395683
C        0.18066157      -1.30844850       0.90266022
C        1.42178499      -0.83815123       0.26783328
C        1.42574880       0.38685153      -0.26216645
C        0.30089205       1.32814035       0.03617572
C       -0.99028224       0.57947773       0.16148420
H       -1.15548989       0.05628676      -1.88848696
H       -2.65498718      -0.23945455      -0.97551727
H        0.36075511      -1.85577947       1.84084976
H        2.32988379      -1.41622691       0.39022609
H        2.16120498       0.65293819      -1.01407081
H        0.49542959       1.80546741       1.00080429
H        0.20516786       2.05087647      -0.78171693
H       -1.66204141       0.76004620       0.99223712
15
Frame=14 idx=008213 GeodesicLength=1.6825029462003451 rxn_smarts="[C:1]1([H:8])([H:9])[O:2][C@@:3]2([H:10])[C:4]([H:11])=[C:5]([H:12])[C:6]([H:13])([H:14])[C@@:7]12[H:15]>>[C:1](=[C:7]([C:6](/[C:5](=[C:4](\[C:3](=[O:2])[H:10])[H:11])[H:12])([H:13])[H:14])[H:15])([H:8])[H:9]"
C       -1.57897992      -0.16259787      -0.93548841
O       -0.83106066      -1.79549813       0.26533624
C        0.18859660      -1.29178361       0.92402682
C        1.43200940      -0.84270189       0.26845907
C        1.42709624       0.37761362      -0.26846295
C        0.30183798       1.31742657       0.04363480
C       -0.98823782       0.55769983       0.14996833
H       -1.17090800       0.10423983      -1.91496514
H       -2.66473258      -0.21256957      -1.00389415
H        0.37267549      -1.80254559       1.88275256
H        2.33987138      -1.42140353       0.38743157
H        2.14085901       0.63574620      -1.04369696
H        0.48759390       1.77202062       1.02048925
H        0.20242575       2.05142372      -0.76251656
H       -1.65904677       0.71292980       0.98692553
15
Frame=15 idx=008213 GeodesicLength=1.803088200527793 rxn_smarts="[C:1]1([H:8])([H:9])[O:2][C@@:3]2([H:10])[C:4]([H:11])=[C:5]([H:12])[C:6]([H:13])([H:14])[C@@:7]12[H:15]>>[C:1](=[C:7]([C:6](/[C:5](=[C:4](\[C:3](=[O:2])[H:10])[H:11])[H:12])([H:13])[H:14])[H:15])([H:8])[H:9]"
C       -1.58852750      -0.13998244      -0.96741128
O       -0.81225311      -1.81391742       0.30018959
C        0.19746692      -1.27545041       0.94587428
C        1.44236470      -0.84782041       0.26908635
C        1.42828281       0.36779418      -0.27459985
C        0.30228781       1.30572416       0.05089457
C       -0.98594076       0.53398397       0.13755285
H       -1.18727541       0.15598084      -1.94094641
H       -2.67480839      -0.18396689      -1.03233644
H        0.38661125      -1.74789312       1.92399884
H        2.35018070      -1.42686103       0.38456392
H        2.12045661       0.61831222      -1.07162807
H        0.47863183       1.73795885       1.03917338
H        0.19927592       2.05078329      -0.74336806
H       -1.65675340       0.66535422       0.97895633
15
Frame=16 idx=008213 GeodesicLength=1.923619982421634 rxn_smarts="[C:1]1([H:8])([H:9])[O:2][C@@:3]2([H:10])[C:4]([H:11])=[C:5]([H:12])[C:6]([H:13])([H:14])[C@@:7]12[H:15]>>[C:1](=[C:7]([C:6](/[C:5](=[C:4](\[C:3](=[O:2])[H:10])[H:11])[H:12])([H:13])[H:14])[H:15])([H:8])[H:9]"
C       -1.59849355      -0.11553581      -1.00014192
O       -0.79239702      -1.83372387       0.33883815
C        0.20730723      -1.25940526       0.96829917
C        1.45285737      -0.85357709       0.26967966
C        1.42930125       0.35733031      -0.28061135
C        0.30214437       1.29289999       0.05785172
C       -0.98334916       0.50801448       0.12393173
H       -1.20465904       0.21186668      -1.96624699
H       -2.68530938      -0.15342114      -1.06085134
H        0.40258629      -1.69155934       1.96468513
H        2.36083890      -1.43263295       0.38164764
H        2.10025661       0.60069350      -1.09777784
H        0.46833513       1.70322032       1.05677551
H        0.19564370       2.04887771      -0.72433194
H       -1.65506269       0.61695245       0.96825267
