9
Frame=0 idx=005269 GeodesicLength=0.0 rxn_smarts="[n:1]1([H:6])[c:2]([H:7])[c:3]([H:8])[c:4]([H:9])[n:5]1>>[N:1](=[C:2]([C:3](=[C:4]=[N:5][H:9])[H:8])[H:7])[H:6]"
N       -0.84923546      -0.65094307       0.04822595
C       -0.65385470       0.67977823       0.02773018
C        0.68262475       0.91056871      -0.13581967
C        1.32417653      -0.34952949      -0.33103586
N        0.31690053      -1.30341694      -0.22228912
H       -1.71704380      -1.15564726       0.08940276
H       -1.48812144       1.35875899       0.12424757
H        1.16361750       1.87478206      -0.15173860
H        1.22093609      -1.36435126       0.55127683
9
Frame=1 idx=005269 GeodesicLength=0.10652397619385652 rxn_smarts="[n:1]1([H:6])[c:2]([H:7])[c:3]([H:8])[c:4]([H:9])[n:5]1>>[N:1](=[C:2]([C:3](=[C:4]=[N:5][H:9])[H:8])[H:7])[H:6]"
N       -0.86007592      -0.64810244       0.05823506
C       -0.66191891       0.68032011       0.03517662
C        0.67674616       0.90986800      -0.14049656
C        1.31734826      -0.34749877      -0.32618272
N        0.33170052      -1.31189732      -0.21424699
H       -1.73649095      -1.13913427       0.08597686
H       -1.49326635       1.36642987       0.10572999
H        1.16173470       1.87212496      -0.14293831
H        1.26422250      -1.38211014       0.53874607
9
Frame=2 idx=005269 GeodesicLength=0.21301238301124903 rxn_smarts="[n:1]1([H:6])[c:2]([H:7])[c:3]([H:8])[c:4]([H:9])[n:5]1>>[N:1](=[C:2]([C:3](=[C:4]=[N:5][H:9])[H:8])[H:7])[H:6]"
N       -0.87191754      -0.64496218       0.06663947
C       -0.67061948       0.68105861       0.03933934
C        0.67057337       0.90896561      -0.14596121
C        1.31048197      -0.34579512      -0.31989058
N        0.34698295      -1.32074012      -0.20460147
H       -1.75643766      -1.12225376       0.08343868
H       -1.49799350       1.37417150       0.08912313
H        1.15981649       1.86889604      -0.13311486
H        1.30911341      -1.39934057       0.52502748
9
Frame=3 idx=005269 GeodesicLength=0.31941023330324814 rxn_smarts="[n:1]1([H:6])[c:2]([H:7])[c:3]([H:8])[c:4]([H:9])[n:5]1>>[N:1](=[C:2]([C:3](=[C:4]=[N:5][H:9])[H:8])[H:7])[H:6]"
N       -0.88468933      -0.64143127       0.07352848
C       -0.67987769       0.68202878       0.04099919
C        0.66436532       0.90788124      -0.15026187
C        1.30371066      -0.34425854      -0.31138335
N        0.36272364      -1.32969554      -0.19417611
H       -1.77682811      -1.10510795       0.08321996
H       -1.50264067       1.38210843       0.07215107
H        1.15767904       1.86551133      -0.12280409
H        1.35555712      -1.41703649       0.50872672
9
Frame=4 idx=005269 GeodesicLength=0.42572216174513994 rxn_smarts="[n:1]1([H:6])[c:2]([H:7])[c:3]([H:8])[c:4]([H:9])[n:5]1>>[N:1](=[C:2]([C:3](=[C:4]=[N:5][H:9])[H:8])[H:7])[H:6]"
N       -0.89856655      -0.63755333       0.07897158
C       -0.68975675       0.68314492       0.03936846
C        0.65790155       0.90650081      -0.15588213
C        1.29669134      -0.34312403      -0.30205519
N        0.37892997      -1.33906223      -0.18130516
H       -1.79793666      -1.08750691       0.08483206
H       -1.50713837       1.39042257       0.05554113
H        1.15556010       1.86101830      -0.10964380
H        1.40431537      -1.43384010       0.49017305
9
Frame=5 idx=005269 GeodesicLength=0.5319174522728506 rxn_smarts="[n:1]1([H:6])[c:2]([H:7])[c:3]([H:8])[c:4]([H:9])[n:5]1>>[N:1](=[C:2]([C:3](=[C:4]=[N:5][H:9])[H:8])[H:7])[H:6]"
N       -0.91333278      -0.63315763       0.08342438
C       -0.70029353       0.68454164       0.03450864
C        0.65159945       0.90499523      -0.15928292
C        1.28966962      -0.34205405      -0.29051570
N        0.39550651      -1.34840055      -0.16782446
H       -1.81955573      -1.06956561       0.09218717
H       -1.51197943       1.39897564       0.03431101
H        1.15326176       1.85625690      -0.09323213
H        1.45512413      -1.45159156       0.46642402
9
Frame=6 idx=005269 GeodesicLength=0.6380130543144069 rxn_smarts="[n:1]1([H:6])[c:2]([H:7])[c:3]([H:8])[c:4]([H:9])[n:5]1>>[N:1](=[C:2]([C:3](=[C:4]=[N:5][H:9])[H:8])[H:7])[H:6]"
N       -0.92895152      -0.62810123       0.08764543
C       -0.71159948       0.68626548       0.02532262
C        0.64550495       0.90347343      -0.16038854
C        1.28251566      -0.34105111      -0.27712725
N        0.41236344      -1.35771435      -0.15359018
H       -1.84168823      -1.05097501       0.10829154
H       -1.51737427       1.40748495       0.00476433
H        1.15085497       1.85094743      -0.07017230
H        1.50837448      -1.47032960       0.43525435
9
Frame=7 idx=005269 GeodesicLength=0.7439450058505359 rxn_smarts="[n:1]1([H:6])[c:2]([H:7])[c:3]([H:8])[c:4]([H:9])[n:5]1>>[N:1](=[C:2]([C:3](=[C:4]=[N:5][H:9])[H:8])[H:7])[H:6]"
N       -0.94574396      -0.62257700       0.09128825
C       -0.72349781       0.68796235       0.01232339
C        0.63949399       0.90159121      -0.15990961
C        1.27502376      -0.34039745      -0.26181759
N        0.42967777      -1.36729383      -0.13564238
H       -1.86466985      -1.03104668       0.12909876
H       -1.52260764       1.41605465      -0.02956765
H        1.14773012       1.84454882      -0.04268168
H        1.56459361      -1.48884207       0.39690851
9
Frame=8 idx=005269 GeodesicLength=0.8498521209820956 rxn_smarts="[n:1]1([H:6])[c:2]([H:7])[c:3]([H:8])[c:4]([H:9])[n:5]1>>[N:1](=[C:2]([C:3](=[C:4]=[N:5][H:9])[H:8])[H:7])[H:6]"
N       -0.96377090      -0.61656110       0.09392298
C       -0.73590853       0.68954402      -0.00515091
C        0.63370230       0.89947799      -0.15654374
C        1.26748857      -0.34005569      -0.24307044
N        0.44759145      -1.37706828      -0.11358936
H       -1.88833895      -1.00928986       0.15758711
H       -1.52771205       1.42426565      -0.07204450
H        1.14348359       1.83745026      -0.00927714
H        1.62346451      -1.50776300       0.34816600
9
Frame=9 idx=005269 GeodesicLength=0.9559202611039138 rxn_smarts="[n:1]1([H:6])[c:2]([H:7])[c:3]([H:8])[c:4]([H:9])[n:5]1>>[N:1](=[C:2]([C:3](=[C:4]=[N:5][H:9])[H:8])[H:7])[H:6]"
N       -0.98360487      -0.61099559       0.08944470
C       -0.74816188       0.69045379      -0.02420635
C        0.62797221       0.89659818      -0.15326596
C        1.26077509      -0.34047062      -0.21641764
N        0.46700399      -1.38749451      -0.08380735
H       -1.91319906      -0.98596145       0.18406375
H       -1.53156849       1.43301592      -0.10806920
H        1.13747424       1.83060014       0.01896807
H        1.68330876      -1.52574586       0.29328999
9
Frame=10 idx=005269 GeodesicLength=1.0612094323303594 rxn_smarts="[n:1]1([H:6])[c:2]([H:7])[c:3]([H:8])[c:4]([H:9])[n:5]1>>[N:1](=[C:2]([C:3](=[C:4]=[N:5][H:9])[H:8])[H:7])[H:6]"
N       -1.00444974      -0.60563540       0.08062304
C       -0.76012042       0.69059404      -0.04713676
C        0.62237537       0.89280313      -0.14946527
C        1.25484046      -0.34150969      -0.17803510
N        0.48778960      -1.39813733      -0.04323355
H       -1.93826780      -0.96097443       0.20834225
H       -1.53414156       1.44174972      -0.13992546
H        1.12929905       1.82451890       0.04288162
H        1.74267504      -1.54340894       0.22594922
9
Frame=11 idx=005269 GeodesicLength=1.166814876084297 rxn_smarts="[n:1]1([H:6])[c:2]([H:7])[c:3]([H:8])[c:4]([H:9])[n:5]1>>[N:1](=[C:2]([C:3](=[C:4]=[N:5][H:9])[H:8])[H:7])[H:6]"
N       -1.02608601      -0.60228738       0.06463108
C       -0.77122146       0.68896908      -0.07423383
C        0.61759956       0.88751884      -0.14729169
C        1.25025685      -0.34331100      -0.12769447
N        0.51035738      -1.40962970       0.00853003
H       -1.96304110      -0.93520298       0.22592261
H       -1.53543607       1.45169040      -0.15831585
H        1.12005017       1.81971059       0.05755618
H        1.79752069      -1.55745785       0.15089593
9
Frame=12 idx=005269 GeodesicLength=1.268043889688033 rxn_smarts="[n:1]1([H:6])[c:2]([H:7])[c:3]([H:8])[c:4]([H:9])[n:5]1>>[N:1](=[C:2]([C:3](=[C:4]=[N:5][H:9])[H:8])[H:7])[H:6]"
N       -1.04538733      -0.60008115       0.05539407
C       -0.77923419       0.68352244      -0.10847672
C        0.61423402       0.87995367      -0.14373235
C        1.24545055      -0.34427978      -0.06466024
N        0.53434843      -1.41980882       0.07559016
H       -1.98774092      -0.90858192       0.23440369
H       -1.53283411       1.45894218      -0.17359611
H        1.10951265       1.81398450       0.06839418
H        1.84165090      -1.56365112       0.05668333
9
Frame=13 idx=005269 GeodesicLength=1.37047193869061 rxn_smarts="[n:1]1([H:6])[c:2]([H:7])[c:3]([H:8])[c:4]([H:9])[n:5]1>>[N:1](=[C:2]([C:3](=[C:4]=[N:5][H:9])[H:8])[H:7])[H:6]"
N       -1.06341210      -0.59945246       0.04539502
C       -0.78543904       0.67793738      -0.12935878
C        0.61240129       0.87020303      -0.14159335
C        1.24072594      -0.34640135      -0.00534785
N        0.56006876      -1.43161238       0.13587228
H       -2.01142660      -0.88547373       0.23320052
H       -1.52847600       1.46472972      -0.18122088
H        1.10318703       1.80719095       0.06832841
H        1.87237070      -1.55712116      -0.02527538
9
Frame=14 idx=005269 GeodesicLength=1.4722100404293166 rxn_smarts="[n:1]1([H:6])[c:2]([H:7])[c:3]([H:8])[c:4]([H:9])[n:5]1>>[N:1](=[C:2]([C:3](=[C:4]=[N:5][H:9])[H:8])[H:7])[H:6]"
N       -1.08023126      -0.59912824       0.04282141
C       -0.79024210       0.67121808      -0.14736940
C        0.61150001       0.85964331      -0.13795205
C        1.23605306      -0.34950817       0.04086499
N        0.58778890      -1.44420153       0.18806347
H       -2.03457334      -0.86265844       0.23361528
H       -1.52288751       1.46848623      -0.19573433
H        1.09842101       1.79836517       0.07406621
H        1.89417123      -1.54221641      -0.09837556
9
Frame=15 idx=005269 GeodesicLength=1.5748775451265353 rxn_smarts="[n:1]1([H:6])[c:2]([H:7])[c:3]([H:8])[c:4]([H:9])[n:5]1>>[N:1](=[C:2]([C:3](=[C:4]=[N:5][H:9])[H:8])[H:7])[H:6]"
N       -1.09733359      -0.59825214       0.04418336
C       -0.79494260       0.66432731      -0.16280940
C        0.61045203       0.84898435      -0.13361204
C        1.23152392      -0.35414282       0.07126544
N        0.61786786      -1.45760715       0.23102368
H       -2.05740634      -0.83873038       0.23831352
H       -1.51710075       1.47125625      -0.21616179
H        1.09384441       1.78773487       0.08680189
H        1.91309505      -1.52357029      -0.15900466
9
Frame=16 idx=005269 GeodesicLength=1.6777715539627687 rxn_smarts="[n:1]1([H:6])[c:2]([H:7])[c:3]([H:8])[c:4]([H:9])[n:5]1>>[N:1](=[C:2]([C:3](=[C:4]=[N:5][H:9])[H:8])[H:7])[H:6]"
N       -1.11506734      -0.59678329       0.04856892
C       -0.79972829       0.65737511      -0.17588900
C        0.60909538       0.83825873      -0.12889609
C        1.22702023      -0.35978795       0.09293333
N        0.65025710      -1.47164332       0.26785873
H       -2.08076039      -0.81391979       0.24413277
H       -1.51118090       1.47354000      -0.23930884
H        1.08930890       1.77622706       0.10223807
H        1.93105530      -1.50326654      -0.21163789
