16
Frame=0 idx=009634 GeodesicLength=0.0 rxn_smarts="[C:1]([C@@:2]1([H:11])[N:3]([H:12])[C@:4]1([C@@:5]1([H:14])[C:6]([H:15])([H:16])[O:7]1)[H:13])([H:8])([H:9])[H:10]>>[C:1]([C@@:2]1([H:11])[N:3]([H:12])[C@:4]1([C@@:5]([C:6][H:15])([O:7][H:16])[H:14])[H:13])([H:8])([H:9])[H:10]"
C       -1.92650200      -0.41878069      -0.03715581
C       -1.14500434       0.67283732       0.64391863
N       -0.09444919       0.35825850       1.61271202
C        0.27412049       0.93893968       0.32806362
C        1.02167408       0.14853873      -0.70938391
C        2.48474101      -0.03589014      -0.60664070
O        1.22286777      -1.25408881      -0.44161282
H       -2.40923219      -0.03881116      -0.94041978
H       -2.70999175      -0.79452273       0.62406500
H       -1.29212067      -1.25991318      -0.32090480
H       -1.74529117       1.52672078       0.94522579
H        0.08925931      -0.64043917       1.60224484
H        0.63910747       1.96010010       0.39583836
H        0.60054067       0.23368344      -1.71051130
H        2.90640948      -0.25205193      -1.59465899
H        2.08387099      -1.14458069       0.20921982
16
Frame=1 idx=009634 GeodesicLength=0.05881473716726388 rxn_smarts="[C:1]([C@@:2]1([H:11])[N:3]([H:12])[C@:4]1([C@@:5]1([H:14])[C:6]([H:15])([H:16])[O:7]1)[H:13])([H:8])([H:9])[H:10]>>[C:1]([C@@:2]1([H:11])[N:3]([H:12])[C@:4]1([C@@:5]([C:6][H:15])([O:7][H:16])[H:14])[H:13])([H:8])([H:9])[H:10]"
C       -1.93454115      -0.41262658      -0.04021710
C       -1.14560342       0.67254611       0.64280477
N       -0.09973877       0.34850557       1.61327666
C        0.27614493       0.93003353       0.33088325
C        1.01859545       0.14128024      -0.70985190
C        2.48374815      -0.02746867      -0.62228171
O        1.25272835      -1.25399829      -0.43000814
H       -2.41478656      -0.02728518      -0.94251020
H       -2.72057201      -0.78444215       0.62014138
H       -1.30413219      -1.25614878      -0.32599165
H       -1.74020809       1.53015635       0.94475853
H        0.07658371      -0.65149129       1.60038831
H        0.64738955       1.94858370       0.40507633
H        0.58516421       0.20793555      -1.70707093
H        2.90164556      -0.24663060      -1.61088582
H        2.11758228      -1.11894951       0.23148824
16
Frame=2 idx=009634 GeodesicLength=0.11753846040486877 rxn_smarts="[C:1]([C@@:2]1([H:11])[N:3]([H:12])[C@:4]1([C@@:5]1([H:14])[C:6]([H:15])([H:16])[O:7]1)[H:13])([H:8])([H:9])[H:10]>>[C:1]([C@@:2]1([H:11])[N:3]([H:12])[C@:4]1([C@@:5]([C:6][H:15])([O:7][H:16])[H:14])[H:13])([H:8])([H:9])[H:10]"
C       -1.94282342      -0.40623995      -0.04329370
C       -1.14619123       0.67214712       0.64174787
N       -0.10501634       0.33835889       1.61368026
C        0.27809667       0.92084973       0.33358887
C        1.01556881       0.13353616      -0.71019222
C        2.48256238      -0.01906003      -0.63778428
O        1.28304706      -1.25341547      -0.41819780
H       -2.42042807      -0.01535742      -0.94458514
H       -2.73145519      -0.77394416       0.61620185
H       -1.31670764      -1.25233351      -0.33114614
H       -1.73490895       1.53348660       0.94459245
H        0.06391033      -0.66287849       1.59807977
H        0.65559382       1.93670528       0.41420188
H        0.57012811       0.18105017      -1.70314548
H        2.89681936      -0.24136869      -1.62686535
H        2.15180431      -1.09153621       0.25311715
16
Frame=3 idx=009634 GeodesicLength=0.1761223863139917 rxn_smarts="[C:1]([C@@:2]1([H:11])[N:3]([H:12])[C@:4]1([C@@:5]1([H:14])[C:6]([H:15])([H:16])[O:7]1)[H:13])([H:8])([H:9])[H:10]>>[C:1]([C@@:2]1([H:11])[N:3]([H:12])[C@:4]1([C@@:5]([C:6][H:15])([O:7][H:16])[H:14])[H:13])([H:8])([H:9])[H:10]"
C       -1.95132028      -0.39962919      -0.04637953
C       -1.14676209       0.67163656       0.64075157
N       -0.11027403       0.32783226       1.61392292
C        0.27997561       0.91140661       0.33618025
C        1.01260523       0.12531974      -0.71039783
C        2.48117147      -0.01071260      -0.65311594
O        1.31375073      -1.25231037      -0.40624627
H       -2.42611526      -0.00305559      -0.94664870
H       -2.74260436      -0.76304632       0.61225372
H       -1.32982466      -1.24847534      -0.33635363
H       -1.72940278       1.53669258       0.94473198
H        0.05126985      -0.67458061       1.59531917
H        0.66370182       1.92449022       0.42320299
H        0.55548228       0.15308985      -1.69871254
H        2.89194633      -0.23631212      -1.64255418
H        2.18640015      -1.06234566       0.27404602
16
Frame=4 idx=009634 GeodesicLength=0.23452127022023933 rxn_smarts="[C:1]([C@@:2]1([H:11])[N:3]([H:12])[C@:4]1([C@@:5]1([H:14])[C:6]([H:15])([H:16])[O:7]1)[H:13])([H:8])([H:9])[H:10]>>[C:1]([C@@:2]1([H:11])[N:3]([H:12])[C@:4]1([C@@:5]([C:6][H:15])([O:7][H:16])[H:14])[H:13])([H:8])([H:9])[H:10]"
C       -1.95999678      -0.39280799      -0.04946978
C       -1.14731083       0.67101536       0.63981979
N       -0.11550356       0.31694951       1.61401336
C        0.28178179       0.90173030       0.33866059
C        1.00971476       0.11665125      -0.71046479
C        2.47956480      -0.00248248      -0.66824048
O        1.34475171      -1.25066406      -0.39422558
H       -2.43180676       0.00958459      -0.94870924
H       -2.75397120      -0.75177855       0.60830603
H       -1.34344836      -1.24458623      -0.34160268
H       -1.72370414       1.53976316       0.94517697
H        0.03869566      -0.68657135       1.59212044
H        0.67169554       1.91197491       0.43207325
H        0.54127440       0.12413829      -1.69376038
H        2.88704360      -0.23150541      -1.65791158
H        2.22121935      -1.03141129       0.29421410
16
Frame=5 idx=009634 GeodesicLength=0.29266417251290816 rxn_smarts="[C:1]([C@@:2]1([H:11])[N:3]([H:12])[C@:4]1([C@@:5]1([H:14])[C:6]([H:15])([H:16])[O:7]1)[H:13])([H:8])([H:9])[H:10]>>[C:1]([C@@:2]1([H:11])[N:3]([H:12])[C@:4]1([C@@:5]([C:6][H:15])([O:7][H:16])[H:14])[H:13])([H:8])([H:9])[H:10]"
C       -1.96881315      -0.38579952      -0.05255321
C       -1.14782363       0.67027846       0.63895021
N       -0.12069678       0.30574149       1.61395020
C        0.28352734       0.89184665       0.34103230
C        1.00690854       0.10756183      -0.71038374
C        2.47773259       0.00557561      -0.68311247
O        1.37592680      -1.24845397      -0.38221773
H       -2.43744918       0.02250369      -0.95076653
H       -2.76551026      -0.74017763       0.60436900
H       -1.35754336      -1.24067784      -0.34686544
H       -1.71781250       1.54267478       0.94590601
H        0.02621308      -0.69880947       1.58849495
H        0.67957859       1.89919134       0.44079716
H        0.52754894       0.09431108      -1.68826520
H        2.88213048      -0.22697703      -1.67288045
H        2.25608249      -0.99878947       0.31354493
16
Frame=6 idx=009634 GeodesicLength=0.35051527510711095 rxn_smarts="[C:1]([C@@:2]1([H:11])[N:3]([H:12])[C@:4]1([C@@:5]1([H:14])[C:6]([H:15])([H:16])[O:7]1)[H:13])([H:8])([H:9])[H:10]>>[C:1]([C@@:2]1([H:11])[N:3]([H:12])[C@:4]1([C@@:5]([C:6][H:15])([O:7][H:16])[H:14])[H:13])([H:8])([H:9])[H:10]"
C       -1.97771304      -0.37861543      -0.05561690
C       -1.14830260       0.66942925       0.63814300
N       -0.12584637       0.29424685       1.61373031
C        0.28520023       0.88178284       0.34329738
C        1.00419027       0.09808456      -0.71015176
C        2.47566436       0.01338318      -0.69768032
O        1.40716886      -1.24567569      -0.37032295
H       -2.44299190       0.03565774      -0.95281140
H       -2.77714105      -0.72827119       0.60045578
H       -1.37203082      -1.23674855      -0.35212009
H       -1.71176987       1.54541270       0.94690608
H        0.01387236      -0.71124629       1.58445382
H        0.68730310       1.88616842       0.44936286
H        0.51434488       0.06373895      -1.68221591
H        2.87723299      -0.22277045      -1.68739746
H        2.29081861      -0.96457689       0.33196754
16
Frame=7 idx=009634 GeodesicLength=0.4080709487699442 rxn_smarts="[C:1]([C@@:2]1([H:11])[N:3]([H:12])[C@:4]1([C@@:5]1([H:14])[C:6]([H:15])([H:16])[O:7]1)[H:13])([H:8])([H:9])[H:10]>>[C:1]([C@@:2]1([H:11])[N:3]([H:12])[C@:4]1([C@@:5]([C:6][H:15])([O:7][H:16])[H:14])[H:13])([H:8])([H:9])[H:10]"
C       -1.98667640      -0.37128306      -0.05867833
C       -1.14873793       0.66848240       0.63741515
N       -0.13095569       0.28248676       1.61341864
C        0.28681940       0.87157889       0.34548267
C        1.00157099       0.08823788      -0.70977698
C        2.47336946       0.02092891      -0.71195562
O        1.43841149      -1.24236187      -0.35855995
H       -2.44839557       0.04901980      -0.95490259
H       -2.78885550      -0.71610658       0.59655778
H       -1.38689317      -1.23283945      -0.35738233
H       -1.70556825       1.54800914       0.94819009
H        0.00165809      -0.72389072       1.58007505
H        0.69489792       1.87298335       0.45780026
H        0.50167476       0.03246134      -1.67564377
H        2.87235408      -0.21890107      -1.70151062
H        2.32532634      -0.92880571       0.34947055
16
Frame=8 idx=009634 GeodesicLength=0.4652891964536432 rxn_smarts="[C:1]([C@@:2]1([H:11])[N:3]([H:12])[C@:4]1([C@@:5]1([H:14])[C:6]([H:15])([H:16])[O:7]1)[H:13])([H:8])([H:9])[H:10]>>[C:1]([C@@:2]1([H:11])[N:3]([H:12])[C@:4]1([C@@:5]([C:6][H:15])([O:7][H:16])[H:14])[H:13])([H:8])([H:9])[H:10]"
C       -1.99566569      -0.36378163      -0.06171956
C       -1.14912303       0.66740028       0.63673997
N       -0.13601846       0.27046247       1.61292726
C        0.28838870       0.86119430       0.34757839
C        0.99905019       0.07803042      -0.70921339
C        2.47084295       0.02816599      -0.72591181
O        1.46958982      -1.23843995      -0.34694427
H       -2.45362425       0.06257480      -0.95696578
H       -2.80060601      -0.70365317       0.59265152
H       -1.40208022      -1.22886364      -0.36261719
H       -1.69921874       1.55036450       0.94970771
H       -0.01041657      -0.73667830       1.57528669
H        0.70235841       1.85953523       0.46608840
H        0.48954022       0.00053205      -1.66842129
H        2.86747784      -0.21539089      -1.71514296
H        2.35950483      -0.89145244       0.36595630
16
Frame=9 idx=009634 GeodesicLength=0.5222345539518034 rxn_smarts="[C:1]([C@@:2]1([H:11])[N:3]([H:12])[C@:4]1([C@@:5]1([H:14])[C:6]([H:15])([H:16])[O:7]1)[H:13])([H:8])([H:9])[H:10]>>[C:1]([C@@:2]1([H:11])[N:3]([H:12])[C@:4]1([C@@:5]([C:6][H:15])([O:7][H:16])[H:14])[H:13])([H:8])([H:9])[H:10]"
C       -2.00467005      -0.35612490      -0.06477734
C       -1.14945794       0.66621405       0.63615289
N       -0.14105683       0.25816980       1.61236278
C        0.28991525       0.85066762       0.34962986
C        0.99663463       0.06745101      -0.70847746
C        2.46809079       0.03511687      -0.73960677
O        1.50072436      -1.23398189      -0.33545437
H       -2.45863601       0.07634446      -0.95909855
H       -2.81240730      -0.69093002       0.58871426
H       -1.41757979      -1.22488069      -0.36786744
H       -1.69271785       1.55256153       0.95150651
H       -0.02239249      -0.74967389       1.57019465
H        0.70969360       1.84592345       0.47428843
H        0.47793414      -0.03210492      -1.66060176
H        2.86259008      -0.21225103      -1.72841192
H        2.39333541      -0.85250144       0.38144623
16
Frame=10 idx=009634 GeodesicLength=0.5789410043672425 rxn_smarts="[C:1]([C@@:2]1([H:11])[N:3]([H:12])[C@:4]1([C@@:5]1([H:14])[C:6]([H:15])([H:16])[O:7]1)[H:13])([H:8])([H:9])[H:10]>>[C:1]([C@@:2]1([H:11])[N:3]([H:12])[C@:4]1([C@@:5]([C:6][H:15])([O:7][H:16])[H:14])[H:13])([H:8])([H:9])[H:10]"
C       -2.01367963      -0.34828645      -0.06786516
C       -1.14973311       0.66489752       0.63565079
N       -0.14607213       0.24557485       1.61169589
C        0.29141092       0.83995891       0.35165247
C        0.99432121       0.05647393      -0.70752916
C        2.46510435       0.04179553      -0.75307137
O        1.53184093      -1.22894531      -0.32403929
H       -2.46338600       0.09035557      -0.96129962
H       -2.82427652      -0.67787277       0.58468996
H       -1.43339081      -1.22084331      -0.37312319
H       -1.68604670       1.55454994       0.95357917
H       -0.03429549      -0.76288525       1.56476672
H        0.71692347       1.83207930       0.48242336
H        0.46682910      -0.06552812      -1.65207927
H        2.85763928      -0.20948852      -1.74133196
H        2.42681114      -0.81183583       0.39588064
16
Frame=11 idx=009634 GeodesicLength=0.6354399475173563 rxn_smarts="[C:1]([C@@:2]1([H:11])[N:3]([H:12])[C@:4]1([C@@:5]1([H:14])[C:6]([H:15])([H:16])[O:7]1)[H:13])([H:8])([H:9])[H:10]>>[C:1]([C@@:2]1([H:11])[N:3]([H:12])[C@:4]1([C@@:5]([C:6][H:15])([O:7][H:16])[H:14])[H:13])([H:8])([H:9])[H:10]"
C       -2.02268423      -0.34025062      -0.07100382
C       -1.14995033       0.66344819       0.63524915
N       -0.15108440       0.23265038       1.61095127
C        0.29287955       0.82905737       0.35367269
C        0.99211769       0.04507690      -0.70635133
C        2.46188416       0.04820972      -0.76635605
O        1.56297535      -1.22332425      -0.31265347
H       -2.46782981       0.10464371      -0.96360065
H       -2.83622898      -0.66444851       0.58053964
H       -1.44950301      -1.21673933      -0.37840278
H       -1.67920519       1.55633323       0.95595022
H       -0.04616511      -0.77634823       1.55902236
H        0.72405481       1.81799704       0.49053652
H        0.45622479      -0.09981929      -1.64279929
H        2.85259773      -0.20712584      -1.75396754
H        2.45991699      -0.76936047       0.40921309
16
Frame=12 idx=009634 GeodesicLength=0.6917726854409907 rxn_smarts="[C:1]([C@@:2]1([H:11])[N:3]([H:12])[C@:4]1([C@@:5]1([H:14])[C:6]([H:15])([H:16])[O:7]1)[H:13])([H:8])([H:9])[H:10]>>[C:1]([C@@:2]1([H:11])[N:3]([H:12])[C@:4]1([C@@:5]([C:6][H:15])([O:7][H:16])[H:14])[H:13])([H:8])([H:9])[H:10]"
C       -2.03167282      -0.33199565      -0.07421652
C       -1.15010204       0.66185370       0.63495602
N       -0.15610342       0.21936330       1.61013398
C        0.29433089       0.81793968       0.35571570
C        0.99002668       0.03323289      -0.70491347
C        2.45841775       0.05436887      -0.77950140
O        1.59416155      -1.21709008      -0.30124607
H       -2.47192509       0.11924724      -0.96602201
H       -2.84827130      -0.65061892       0.57621438
H       -1.46591563      -1.21253952      -0.38372880
H       -1.67217586       1.55789209       0.95863655
H       -0.05803463      -0.79009014       1.55295788
H        0.73110299       1.80364649       0.49866591
H        0.44611214      -0.13507020      -1.63267472
H        2.84741863      -0.20518968      -1.76635708
H        2.49263015      -0.72495006       0.42137963
16
Frame=13 idx=009634 GeodesicLength=0.7478903276184564 rxn_smarts="[C:1]([C@@:2]1([H:11])[N:3]([H:12])[C@:4]1([C@@:5]1([H:14])[C:6]([H:15])([H:16])[O:7]1)[H:13])([H:8])([H:9])[H:10]>>[C:1]([C@@:2]1([H:11])[N:3]([H:12])[C@:4]1([C@@:5]([C:6][H:15])([O:7][H:16])[H:14])[H:13])([H:8])([H:9])[H:10]"
C       -2.04058117      -0.32355930      -0.07749225
C       -1.15018179       0.66012396       0.63477138
N       -0.16112362       0.20577721       1.60926390
C        0.29577196       0.80665334       0.35779453
C        0.98805297       0.02100284      -0.70321821
C        2.45470345       0.06019458      -0.79244200
O        1.62523892      -1.21027202      -0.28993397
H       -2.47561664       0.13408589      -0.96856482
H       -2.86032181      -0.63645195       0.57172849
H       -1.48253637      -1.20826079      -0.38908153
H       -1.66498827       1.55922610       0.96160616
H       -0.06986845      -0.80404498       1.54662195
H        0.73805553       1.78908862       0.50680666
H        0.43652793      -0.17108844      -1.62171076
H        2.84213195      -0.20369590      -1.77844001
H        2.52473542      -0.67877915       0.43229048
16
Frame=14 idx=009634 GeodesicLength=0.803837644904479 rxn_smarts="[C:1]([C@@:2]1([H:11])[N:3]([H:12])[C@:4]1([C@@:5]1([H:14])[C:6]([H:15])([H:16])[O:7]1)[H:13])([H:8])([H:9])[H:10]>>[C:1]([C@@:2]1([H:11])[N:3]([H:12])[C@:4]1([C@@:5]([C:6][H:15])([O:7][H:16])[H:14])[H:13])([H:8])([H:9])[H:10]"
C       -2.04940034      -0.31491875      -0.08085496
C       -1.15018436       0.65824794       0.63470533
N       -0.16615965       0.19185802       1.60834871
C        0.29721274       0.79517424       0.35993647
C        0.98620132       0.00835890      -0.70123480
C        2.45073279       0.06570061      -0.80521806
O        1.65624855      -1.20284755      -0.27866821
H       -2.47886442       0.14920181      -0.97124764
H       -2.87239256      -0.62190716       0.56703228
H       -1.49936419      -1.20387342      -0.39448419
H       -1.65762736       1.56031988       0.96487753
H       -0.08170730      -0.81824257       1.54001227
H        0.74492735       1.77429490       0.51499809
H        0.42746613      -0.20797286      -1.60981414
H        2.83669792      -0.20266224      -1.79025620
H        2.55621338      -0.63073176       0.44186752
16
Frame=15 idx=009634 GeodesicLength=0.8596561491615354 rxn_smarts="[C:1]([C@@:2]1([H:11])[N:3]([H:12])[C@:4]1([C@@:5]1([H:14])[C:6]([H:15])([H:16])[O:7]1)[H:13])([H:8])([H:9])[H:10]>>[C:1]([C@@:2]1([H:11])[N:3]([H:12])[C@:4]1([C@@:5]([C:6][H:15])([O:7][H:16])[H:14])[H:13])([H:8])([H:9])[H:10]"
C       -2.05811487      -0.30605073      -0.08433246
C       -1.15010563       0.65621606       0.63477398
N       -0.17122494       0.17757201       1.60740692
C        0.29866024       0.78348236       0.36217285
C        0.98447680      -0.00472620      -0.69893353
C        2.44649264       0.07089089      -0.81787142
O        1.68723031      -1.19479410      -0.26740030
H       -2.48161441       0.16463969      -0.97410153
H       -2.88449070      -0.60694367       0.56207043
H       -1.51639010      -1.19935224      -0.39996555
H       -1.65008457       1.56116043       0.96848253
H       -0.09358541      -0.83271663       1.53313811
H        0.75172340       1.75924717       0.52328204
H        0.41893069      -0.24581795      -1.59689137
H        2.83106862      -0.20211698      -1.80185346
H        2.58702794      -0.58069011       0.45002275
16
Frame=16 idx=009634 GeodesicLength=0.9153010578393938 rxn_smarts="[C:1]([C@@:2]1([H:11])[N:3]([H:12])[C@:4]1([C@@:5]1([H:14])[C:6]([H:15])([H:16])[O:7]1)[H:13])([H:8])([H:9])[H:10]>>[C:1]([C@@:2]1([H:11])[N:3]([H:12])[C@:4]1([C@@:5]([C:6][H:15])([O:7][H:16])[H:14])[H:13])([H:8])([H:9])[H:10]"
C       -2.06665612      -0.29699992      -0.08791232
C       -1.14993790       0.65403623       0.63497660
N       -0.17631385       0.16298812       1.60645680
C        0.30012414       0.77162541       0.36452062
C        0.98287970      -0.01817901      -0.69631890
C        2.44198372       0.07569168      -0.83033162
O        1.71800961      -1.18614948      -0.25625384
H       -2.48380572       0.18030356      -0.97712511
H       -2.89653286      -0.59162883       0.55685581
H       -1.53351197      -1.19471550      -0.40549948
H       -1.64238994       1.56174391       0.97237970
H       -0.10547181      -0.84739275       1.52605145
H        0.75843751       1.74400357       0.53165582
H        0.41095035      -0.28439151      -1.58295167
H        2.82527931      -0.20207619      -1.81316029
H        2.61695584      -0.52885927       0.45665644
