11
Frame=0 idx=000622 GeodesicLength=0.0 rxn_smarts="[O:1]([C:2]([C:3]([C:4](=[O:5])[H:11])([H:9])[H:10])([H:7])[H:8])[H:6]>>[O:1]1[C:2]([H:7])([H:8])[C:3]([H:9])([H:10])[C@@:4]1([O:5][H:6])[H:11]"
O       -0.88616632       0.87704881      -0.31940274
C       -0.98208493      -0.45923456       0.25150575
C        0.49056213      -0.80525838       0.05507799
C        0.75486444       0.61767574      -0.46976835
O        1.07993643       1.54801521       0.38100732
H       -0.21706877       1.54416141       0.41455440
H       -1.66634462      -1.05109247      -0.35293532
H       -1.34538391      -0.41943054       1.27834835
H        0.66805368      -1.58906877      -0.67955505
H        1.05835013      -1.00172087       0.96173230
H        1.04528179       0.73890440      -1.52056460
11
Frame=1 idx=000622 GeodesicLength=0.0836552948722943 rxn_smarts="[O:1]([C:2]([C:3]([C:4](=[O:5])[H:11])([H:9])[H:10])([H:7])[H:8])[H:6]>>[O:1]1[C:2]([H:7])([H:8])[C:3]([H:9])([H:10])[C@@:4]1([O:5][H:6])[H:11]"
O       -0.89180880       0.87390514      -0.32164726
C       -0.98308227      -0.46062290       0.24914737
C        0.48987080      -0.80581182       0.05496391
C        0.76526228       0.61417476      -0.46709017
O        1.09293152       1.54671381       0.37956996
H       -0.22687028       1.56127617       0.41713235
H       -1.66631021      -1.05830285      -0.35112340
H       -1.34230146      -0.41972918       1.27772527
H        0.66818798      -1.58764421      -0.68167098
H        1.05298582      -1.00570826       0.96390491
H        1.04113462       0.74174934      -1.52091197
11
Frame=2 idx=000622 GeodesicLength=0.16726699823897168 rxn_smarts="[O:1]([C:2]([C:3]([C:4](=[O:5])[H:11])([H:9])[H:10])([H:7])[H:8])[H:6]>>[O:1]1[C:2]([H:7])([H:8])[C:3]([H:9])([H:10])[C@@:4]1([O:5][H:6])[H:11]"
O       -0.89752443       0.87073299      -0.32394328
C       -0.98404802      -0.46201382       0.24677999
C        0.48919591      -0.80637426       0.05480100
C        0.77583692       0.61055254      -0.46444532
O        1.10609613       1.54524277       0.37814921
H       -0.23708572       1.57868422       0.41966942
H       -1.66625434      -1.06554056      -0.34920004
H       -1.33914675      -0.41994950       1.27708672
H        0.66829075      -1.58626178      -0.68380356
H        1.04763989      -1.00974529       0.96597798
H        1.03699968       0.74467270      -1.52107212
11
Frame=3 idx=000622 GeodesicLength=0.25084722228573775 rxn_smarts="[O:1]([C:2]([C:3]([C:4](=[O:5])[H:11])([H:9])[H:10])([H:7])[H:8])[H:6]>>[O:1]1[C:2]([H:7])([H:8])[C:3]([H:9])([H:10])[C@@:4]1([O:5][H:6])[H:11]"
O       -0.90331339       0.86753055      -0.32629679
C       -0.98498002      -0.46340492       0.24440383
C        0.48853897      -0.80694497       0.05458642
C        0.78659520       0.60680392      -0.46183745
O        1.11944852       1.54359147       0.37674347
H       -0.24775467       1.59639615       0.42217329
H       -1.66617626      -1.07280459      -0.34715881
H       -1.33591532      -0.42008544       1.27643271
H        0.66835959      -1.58492273      -0.68595541
H        1.04231459      -1.01383423       0.96794744
H        1.03288280       0.74767480      -1.52103870
11
Frame=4 idx=000622 GeodesicLength=0.33441874269456867 rxn_smarts="[O:1]([C:2]([C:3]([C:4](=[O:5])[H:11])([H:9])[H:10])([H:7])[H:8])[H:6]>>[O:1]1[C:2]([H:7])([H:8])[C:3]([H:9])([H:10])[C@@:4]1([O:5][H:6])[H:11]"
O       -0.90917536       0.86429575      -0.32871500
C       -0.98587572      -0.46479324       0.24201891
C        0.48790182      -0.80752305       0.05431744
C        0.79754473       0.60292337      -0.45927027
O        1.13301222       1.54174661       0.37535008
H       -0.25892454       1.61442265       0.42465389
H       -1.66607481      -1.08009343      -0.34499268
H       -1.33260236      -0.42012947       1.27576312
H        0.66839240      -1.58362822      -0.68812888
H        1.03701198      -1.01797772       0.96980940
H        1.02878965       0.75075677      -1.52080602
11
Frame=5 idx=000622 GeodesicLength=0.41797778402077146 rxn_smarts="[O:1]([C:2]([C:3]([C:4](=[O:5])[H:11])([H:9])[H:10])([H:7])[H:8])[H:6]>>[O:1]1[C:2]([H:7])([H:8])[C:3]([H:9])([H:10])[C@@:4]1([O:5][H:6])[H:11]"
O       -0.91510870       0.86102800      -0.33120401
C       -0.98673222      -0.46617589       0.23962542
C        0.48728644      -0.80810836       0.05399096
C        0.80869477       0.59890393      -0.45674853
O        1.14680329       1.53969766       0.37396841
H       -0.27063889       1.63277456       0.42712073
H       -1.66594917      -1.08740437      -0.34269516
H       -1.32920222      -0.42007445       1.27507791
H        0.66838635      -1.58238053      -0.69032635
H        1.03173454      -1.02217863       0.97155986
H        1.02472582       0.75391807      -1.52036925
11
Frame=6 idx=000622 GeodesicLength=0.5015581935876071 rxn_smarts="[O:1]([C:2]([C:3]([C:4](=[O:5])[H:11])([H:9])[H:10])([H:7])[H:8])[H:6]>>[O:1]1[C:2]([H:7])([H:8])[C:3]([H:9])([H:10])[C@@:4]1([O:5][H:6])[H:11]"
O       -0.92111308       0.85772517      -0.33377260
C       -0.98754628      -0.46754881       0.23722374
C        0.48669505      -0.80869975       0.05360356
C        0.82005425       0.59473936      -0.45427690
O        1.16085326       1.53742624       0.37259498
H       -0.28295955       1.65146497       0.42958454
H       -1.66579785      -1.09473523      -0.34025714
H       -1.32570848      -0.41991085       1.27437722
H        0.66833872      -1.58118080      -0.69255098
H        1.02648469      -1.02644039       0.97319396
H        1.02069928       0.75716011      -1.51972038
11
Frame=7 idx=000622 GeodesicLength=0.5851502546125164 rxn_smarts="[O:1]([C:2]([C:3]([C:4](=[O:5])[H:11])([H:9])[H:10])([H:7])[H:8])[H:6]>>[O:1]1[C:2]([H:7])([H:8])[C:3]([H:9])([H:10])[C@@:4]1([O:5][H:6])[H:11]"
O       -0.92718626       0.85438517      -0.33642980
C       -0.98831480      -0.46890827       0.23481358
C        0.48612971      -0.80929716       0.05315193
C        0.83163323       0.59042132      -0.45186089
O        1.17518063       1.53492003       0.37122920
H       -0.29593518       1.67050534       0.43205896
H       -1.66561998      -1.10208404      -0.33767028
H       -1.32211488      -0.41962802       1.27366055
H        0.66824655      -1.58003164      -0.69480522
H        1.02126461      -1.03076621       0.97470695
H        1.01671636       0.76048349      -1.51885498
11
Frame=8 idx=000622 GeodesicLength=0.6687751357783194 rxn_smarts="[O:1]([C:2]([C:3]([C:4](=[O:5])[H:11])([H:9])[H:10])([H:7])[H:8])[H:6]>>[O:1]1[C:2]([H:7])([H:8])[C:3]([H:9])([H:10])[C@@:4]1([O:5][H:6])[H:11]"
O       -0.93332548       0.85100792      -0.33918355
C       -0.98903335      -0.47024926       0.23239562
C        0.48559324      -0.80990034       0.05263217
C        0.84344395       0.58594078      -0.44950674
O        1.18981735       1.53215922       0.36986848
H       -0.30963874       1.68990985       0.43455477
H       -1.66541427      -1.10944602      -0.33492462
H       -1.31841286      -0.41921458       1.27292839
H        0.66810636      -1.57893578      -0.69709289
H        1.01607750      -1.03516102       0.97609370
H        1.01278631       0.76388924      -1.51776532
11
Frame=9 idx=000622 GeodesicLength=0.7524632218575843 rxn_smarts="[O:1]([C:2]([C:3]([C:4](=[O:5])[H:11])([H:9])[H:10])([H:7])[H:8])[H:6]>>[O:1]1[C:2]([H:7])([H:8])[C:3]([H:9])([H:10])[C@@:4]1([O:5][H:6])[H:11]"
O       -0.93952590       0.84759106      -0.34204693
C       -0.98969772      -0.47156457       0.22997088
C        0.48508854      -0.81050674       0.05204005
C        0.85549628       0.58129440      -0.44721769
O        1.20481167       1.52911499       0.36851140
H       -0.32415662       1.70969036       0.43708286
H       -1.66517940      -1.11681914      -0.33200751
H       -1.31459414      -0.41865760       1.27218144
H        0.66791421      -1.57789158      -0.69941795
H        1.01092580      -1.03962896       0.97734876
H        1.00891727       0.76737779      -1.51644530
11
Frame=10 idx=000622 GeodesicLength=0.8361846999138045 rxn_smarts="[O:1]([C:2]([C:3]([C:4](=[O:5])[H:11])([H:9])[H:10])([H:7])[H:8])[H:6]>>[O:1]1[C:2]([H:7])([H:8])[C:3]([H:9])([H:10])[C@@:4]1([O:5][H:6])[H:11]"
O       -0.94578489       0.84413471      -0.34502672
C       -0.99030305      -0.47285017       0.22753982
C        0.48461854      -0.81111831       0.05137118
C        0.86780425       0.57646709      -0.44500259
O        1.22018136       1.52577313       0.36715752
H       -0.33955315       1.72986189       0.43965372
H       -1.66491435      -1.12419640      -0.32890801
H       -1.31064841      -0.41794238       1.27141998
H        0.66766591      -1.57690522      -0.70178467
H        1.00581314      -1.04417637       0.97846524
H        1.00512065       0.77095202      -1.51488548
11
Frame=11 idx=000622 GeodesicLength=0.9199363820315547 rxn_smarts="[O:1]([C:2]([C:3]([C:4](=[O:5])[H:11])([H:9])[H:10])([H:7])[H:8])[H:6]>>[O:1]1[C:2]([H:7])([H:8])[C:3]([H:9])([H:10])[C@@:4]1([O:5][H:6])[H:11]"
O       -0.95209761       0.84063793      -0.34813439
C       -0.99084413      -0.47409969       0.22510398
C        0.48418644      -0.81173493       0.05062049
C        0.88038070       0.57144850      -0.44286741
O        1.23596504       1.52210751       0.36580755
H       -0.35591521       1.75043971       0.44227545
H       -1.66461817      -1.13157268      -0.32561158
H       -1.30656436      -0.41705284       1.27064506
H        0.66735643      -1.57597893      -0.70419845
H        1.00074296      -1.04880975       0.97943582
H        1.00140791       0.77461516      -1.51307651
11
Frame=12 idx=000622 GeodesicLength=1.0037004643849912 rxn_smarts="[O:1]([C:2]([C:3]([C:4](=[O:5])[H:11])([H:9])[H:10])([H:7])[H:8])[H:6]>>[O:1]1[C:2]([H:7])([H:8])[C:3]([H:9])([H:10])[C@@:4]1([O:5][H:6])[H:11]"
O       -0.95845674       0.83710196      -0.35137939
C       -0.99131489      -0.47530541       0.22266474
C        0.48379607      -0.81235688       0.04978281
C        0.89324158       0.56622632      -0.44082025
O        1.25219928       1.51809226       0.36446205
H       -0.37333574       1.77143694       0.44495746
H       -1.66428999      -1.13893979      -0.32210447
H       -1.30232948      -0.41597224       1.26985784
H        0.66697990      -1.57511598      -0.70666410
H        0.99571919      -1.05353585       0.98025306
H        0.99779081       0.77836868      -1.51100976
11
Frame=13 idx=000622 GeodesicLength=1.0874728751192482 rxn_smarts="[O:1]([C:2]([C:3]([C:4](=[O:5])[H:11])([H:9])[H:10])([H:7])[H:8])[H:6]>>[O:1]1[C:2]([H:7])([H:8])[C:3]([H:9])([H:10])[C@@:4]1([O:5][H:6])[H:11]"
O       -0.96485453       0.83352740      -0.35477223
C       -0.99170832      -0.47645870       0.22022418
C        0.48345148      -0.81298484       0.04885221
C        0.90640321       0.56078688      -0.43886885
O        1.26893112       1.51369532       0.36312124
H       -0.39192559       1.79287008       0.44770726
H       -1.66392891      -1.14628863      -0.31836961
H       -1.29792898      -0.41468024       1.26905993
H        0.66653004      -1.57431974      -0.70918867
H        0.99074629      -1.05836369       0.98090821
H        0.99428420       0.78221615      -1.50867367
11
Frame=14 idx=000622 GeodesicLength=1.1712383687802153 rxn_smarts="[O:1]([C:2]([C:3]([C:4](=[O:5])[H:11])([H:9])[H:10])([H:7])[H:8])[H:6]>>[O:1]1[C:2]([H:7])([H:8])[C:3]([H:9])([H:10])[C@@:4]1([O:5][H:6])[H:11]"
O       -0.97128230       0.82991500      -0.35832649
C       -0.99201705      -0.47755000       0.21778484
C        0.48315698      -0.81361968       0.04782220
C        0.91988316       0.55511530      -0.43702133
O        1.28620901       1.50888212       0.36178665
H       -0.41180156       1.81475419       0.45053203
H       -1.66353412      -1.15360949      -0.31438717
H       -1.29334625      -0.41315345       1.26825329
H        0.66599951      -1.57359359      -0.71177967
H        0.98582864      -1.06330339       0.98139122
H        0.99090398       0.78616300      -1.50605558
11
Frame=15 idx=000622 GeodesicLength=1.2549728215988816 rxn_smarts="[O:1]([C:2]([C:3]([C:4](=[O:5])[H:11])([H:9])[H:10])([H:7])[H:8])[H:6]>>[O:1]1[C:2]([H:7])([H:8])[C:3]([H:9])([H:10])[C@@:4]1([O:5][H:6])[H:11]"
O       -0.97773000       0.82626651      -0.36205433
C       -0.99223298      -0.47856863       0.21534942
C        0.48291722      -0.81426238       0.04668577
C        0.93370041       0.54919561      -0.43528701
O        1.30408366       1.50361569       0.36045953
H       -0.43308883       1.83710439       0.45343872
H       -1.66310510      -1.16089092      -0.31013677
H       -1.28856327      -0.41136712       1.26743992
H        0.66538026      -1.57294102      -0.71444531
H        0.98097110      -1.06836576       0.98169182
H        0.98766753       0.79021363      -1.50314176
11
Frame=16 idx=000622 GeodesicLength=1.3386553077205532 rxn_smarts="[O:1]([C:2]([C:3]([C:4](=[O:5])[H:11])([H:9])[H:10])([H:7])[H:8])[H:6]>>[O:1]1[C:2]([H:7])([H:8])[C:3]([H:9])([H:10])[C@@:4]1([O:5][H:6])[H:11]"
O       -0.98418505       0.82258535      -0.36596867
C       -0.99234656      -0.47950180       0.21292235
C        0.48273737      -0.81491444       0.04543500
C        0.94787633       0.54301027      -0.43367492
O        1.32261679       1.49785094       0.35914308
H       -0.45593585       1.85993469       0.45642698
H       -1.66264162      -1.16811858      -0.30559339
H       -1.28355813      -0.40929236       1.26662354
H        0.66466235      -1.57236518      -0.71719638
H        0.97617930      -1.07356486       0.98179734
H        0.98459505       0.79437597      -1.49991493
