14
Frame=0 idx=002051 GeodesicLength=0.0 rxn_smarts="[C:1]1([H:7])([H:8])[C:2]([H:9])([H:10])[O:3][C:4]([H:11])([H:12])[O:5][C:6]1([H:13])[H:14]>>[C:1]1([H:7])([H:8])[C-:2]([H:10])[O+:3]=[C:4]([H:11])[O:5][C:6]1([H:13])[H:14].[H:9][H:12]"
C        1.03336439       0.67253690       0.21056706
C        0.99895085      -0.82088944       0.10425369
O       -0.09386170      -1.38860917       0.68293097
C       -1.24345900      -0.82830048       0.54985810
O       -1.38437927       0.49530508       0.47498862
C       -0.33440348       1.23364037      -0.15981554
H        1.29559809       1.01551304       1.22000380
H        1.78558184       1.07575882      -0.47039469
H       -0.03325867      -1.04376151      -1.40386185
H        1.88285769      -1.40667657       0.31643493
H       -2.09140616      -1.35677354       0.95911504
H       -0.84993004      -1.09833503      -1.42389158
H       -0.46853975       2.26023288       0.17758603
H       -0.49711479       1.19035868      -1.23777457
14
Frame=1 idx=002051 GeodesicLength=0.0732303112649008 rxn_smarts="[C:1]1([H:7])([H:8])[C:2]([H:9])([H:10])[O:3][C:4]([H:11])([H:12])[O:5][C:6]1([H:13])[H:14]>>[C:1]1([H:7])([H:8])[C-:2]([H:10])[O+:3]=[C:4]([H:11])[O:5][C:6]1([H:13])[H:14].[H:9][H:12]"
C        1.03331967       0.67296445       0.20877126
C        0.99752682      -0.82080960       0.09199257
O       -0.09188437      -1.38211934       0.69309340
C       -1.24523614      -0.82871496       0.53655548
O       -1.38473686       0.49695158       0.47319944
C       -0.33377579       1.23736111      -0.15787833
H        1.29378717       1.00823691       1.22131661
H        1.78651153       1.08039752      -0.46856587
H       -0.02475290      -1.05732808      -1.40038647
H        1.88267431      -1.40271922       0.31117262
H       -2.09172169      -1.35528090       0.95200318
H       -0.85840079      -1.11003959      -1.40856966
H       -0.46684451       2.26281955       0.18357501
H       -0.49646645       1.19828057      -1.23627922
14
Frame=2 idx=002051 GeodesicLength=0.14646029755813603 rxn_smarts="[C:1]1([H:7])([H:8])[C:2]([H:9])([H:10])[O:3][C:4]([H:11])([H:12])[O:5][C:6]1([H:13])[H:14]>>[C:1]1([H:7])([H:8])[C-:2]([H:10])[O+:3]=[C:4]([H:11])[O:5][C:6]1([H:13])[H:14].[H:9][H:12]"
C        1.03326059       0.67337661       0.20695297
C        0.99604316      -0.82071397       0.08006696
O       -0.09003147      -1.37555657       0.70279770
C       -1.24681007      -0.82906537       0.52369070
O       -1.38517181       0.49852090       0.47126698
C       -0.33317147       1.24105239      -0.15590680
H        1.29202048       1.00109929       1.22247619
H        1.78740563       1.08484332      -0.46684353
H       -0.01592096      -1.07094060      -1.39694764
H        1.88237306      -1.39880288       0.30606392
H       -2.09191629      -1.35383088       0.94494012
H       -0.86706671      -1.12158280      -1.39348711
H       -0.46520361       2.26533056       0.18967096
H       -0.49581053       1.20627000      -1.23474142
14
Frame=3 idx=002051 GeodesicLength=0.21967919101172645 rxn_smarts="[C:1]1([H:7])([H:8])[C:2]([H:9])([H:10])[O:3][C:4]([H:11])([H:12])[O:5][C:6]1([H:13])[H:14]>>[C:1]1([H:7])([H:8])[C-:2]([H:10])[O+:3]=[C:4]([H:11])[O:5][C:6]1([H:13])[H:14].[H:9][H:12]"
C        1.03318118       0.67377870       0.20511691
C        0.99450209      -0.82059694       0.06844677
O       -0.08829862      -1.36895096       0.71204843
C       -1.24819665      -0.82936046       0.51122886
O       -1.38566796       0.50001950       0.46918893
C       -0.33258073       1.24471470      -0.15391044
H        1.29027406       0.99408216       1.22349560
H        1.78826443       1.08912973      -0.46519895
H       -0.00674506      -1.08460420      -1.39354100
H        1.88195322      -1.39491382       0.30109397
H       -2.09198623      -1.35241689       0.93796027
H       -0.87596722      -1.13297130      -1.37861896
H       -0.46360136       2.26776638       0.19585229
H       -0.49513116       1.21432340      -1.23316267
14
Frame=4 idx=002051 GeodesicLength=0.2929035886959191 rxn_smarts="[C:1]1([H:7])([H:8])[C:2]([H:9])([H:10])[O:3][C:4]([H:11])([H:12])[O:5][C:6]1([H:13])[H:14]>>[C:1]1([H:7])([H:8])[C-:2]([H:10])[O+:3]=[C:4]([H:11])[O:5][C:6]1([H:13])[H:14].[H:9][H:12]"
C        1.03308689       0.67417267       0.20327345
C        0.99292585      -0.82045980       0.05710634
O       -0.08667481      -1.36233140       0.72085190
C       -1.24942332      -0.82960026       0.49914173
O       -1.38623120       0.50146333       0.46697617
C       -0.33200791       1.24834977      -0.15189556
H        1.28854252       0.98717702       1.22440586
H        1.78910446       1.09327323      -0.46361137
H        0.00280277      -1.09832462      -1.39018611
H        1.88144970      -1.39105015       0.29625486
H       -2.09194758      -1.35101608       0.93110633
H       -0.88514882      -1.14421877      -1.36397316
H       -0.46204532       2.27013494       0.20210680
H       -0.49443326       1.22243012      -1.23155727
14
Frame=5 idx=002051 GeodesicLength=0.36611099765004 rxn_smarts="[C:1]1([H:7])([H:8])[C:2]([H:9])([H:10])[O:3][C:4]([H:11])([H:12])[O:5][C:6]1([H:13])[H:14]>>[C:1]1([H:7])([H:8])[C-:2]([H:10])[O+:3]=[C:4]([H:11])[O:5][C:6]1([H:13])[H:14].[H:9][H:12]"
C        1.03297150       0.67456009       0.20142670
C        0.99131811      -0.82029981       0.04602312
O       -0.08515413      -1.35572392       0.72921197
C       -1.25050228      -0.82978932       0.48740013
O       -1.38684665       0.50285943       0.46463307
C       -0.33144773       1.25195675      -0.14986868
H        1.28680685       0.98037040       1.22521517
H        1.78992142       1.09729293      -0.46206025
H        0.01274831      -1.11209809      -1.38687965
H        1.88086345      -1.38720422       0.29153797
H       -2.09179486      -1.34961624       0.92440450
H       -0.89464683      -1.15532828      -1.34953461
H       -0.46052792       2.27243670       0.20841549
H       -0.49370925       1.23058358      -1.22992494
14
Frame=6 idx=002051 GeodesicLength=0.439345351431407 rxn_smarts="[C:1]1([H:7])([H:8])[C:2]([H:9])([H:10])[O:3][C:4]([H:11])([H:12])[O:5][C:6]1([H:13])[H:14]>>[C:1]1([H:7])([H:8])[C-:2]([H:10])[O+:3]=[C:4]([H:11])[O:5][C:6]1([H:13])[H:14].[H:9][H:12]"
C        1.03283842       0.67494271       0.19958664
C        0.98969530      -0.82011544       0.03517360
O       -0.08372909      -1.34915617       0.73712968
C       -1.25145504      -0.82993129       0.47598171
O       -1.38751346       0.50421521       0.46217066
C       -0.33090022       1.25553230      -0.14783794
H        1.28505468       0.97365355       1.22594892
H        1.79073031       1.10120705      -0.46052045
H        0.02312811      -1.12592344      -1.38363934
H        1.88021815      -1.38336805       0.28693617
H       -2.09153737      -1.34819881       0.91789774
H       -0.90452043      -1.16629911      -1.33530591
H       -0.45905089       2.27467417       0.21475577
H       -0.49295846       1.23876731      -1.22827725
14
Frame=7 idx=002051 GeodesicLength=0.5125599435841862 rxn_smarts="[C:1]1([H:7])([H:8])[C:2]([H:9])([H:10])[O:3][C:4]([H:11])([H:12])[O:5][C:6]1([H:13])[H:14]>>[C:1]1([H:7])([H:8])[C-:2]([H:10])[O+:3]=[C:4]([H:11])[O:5][C:6]1([H:13])[H:14].[H:9][H:12]"
C        1.03268205       0.67532310       0.19775326
C        0.98805707      -0.81990290       0.02453933
O       -0.08239560      -1.34264473       0.74461658
C       -1.25228761      -0.83002854       0.46486428
O       -1.38821551       0.50553702       0.45959406
C       -0.33035988       1.25907807      -0.14580661
H        1.28327340       0.96701619       1.22660742
H        1.79152386       1.10503137      -0.45898044
H        0.03396671      -1.13980637      -1.38046403
H        1.87950968      -1.37953333       0.28244207
H       -2.09117159      -1.34676040       0.91158185
H       -0.91480279      -1.17713705      -1.32125646
H       -0.45760549       2.27684870       0.22111873
H       -0.49217430       1.24697887      -1.22661004
14
Frame=8 idx=002051 GeodesicLength=0.5857789760312699 rxn_smarts="[C:1]1([H:7])([H:8])[C:2]([H:9])([H:10])[O:3][C:4]([H:11])([H:12])[O:5][C:6]1([H:13])[H:14]>>[C:1]1([H:7])([H:8])[C-:2]([H:10])[O+:3]=[C:4]([H:11])[O:5][C:6]1([H:13])[H:14].[H:9][H:12]"
C        1.03250739       0.67570314       0.19593383
C        0.98641982      -0.81966104       0.01410286
O       -0.08114433      -1.33620967       0.75168100
C       -1.25301985      -0.83008111       0.45403102
O       -1.38895543       0.50683405       0.45691611
C       -0.32982955       1.26259405      -0.14377932
H        1.28146100       0.96045255       1.22721131
H        1.79231442       1.10877809      -0.45742555
H        0.04530594      -1.15375296      -1.37736847
H        1.87876325      -1.37569563       0.27804888
H       -2.09071268      -1.34528535       0.90547961
H       -0.92555209      -1.18784785      -1.30739113
H       -0.45619632       2.27896511       0.22749346
H       -0.49136157       1.25520663      -1.22493360
14
Frame=9 idx=002051 GeodesicLength=0.6589993106433092 rxn_smarts="[C:1]1([H:7])([H:8])[C:2]([H:9])([H:10])[O:3][C:4]([H:11])([H:12])[O:5][C:6]1([H:13])[H:14]>>[C:1]1([H:7])([H:8])[C-:2]([H:10])[O+:3]=[C:4]([H:11])[O:5][C:6]1([H:13])[H:14].[H:9][H:12]"
C        1.03231130       0.67608471       0.19413230
C        0.98478741      -0.81938617       0.00384796
O       -0.07997015      -1.32987090       0.75832648
C       -1.25366033      -0.83009140       0.44346462
O       -1.38972159       0.50811040       0.45414487
C       -0.32930553       1.26607893      -0.14176120
H        1.27960430       0.95395335       1.22776772
H        1.79310099       1.11246190      -0.45583902
H        0.05718633      -1.16776303      -1.37435642
H        1.87798130      -1.37184682       0.27374931
H       -2.09015930      -1.34376410       0.89960494
H       -0.93682069      -1.19843264      -1.29369646
H       -0.45481807       2.28102454       0.23386386
H       -0.49051598       1.26344124      -1.22324895
14
Frame=10 idx=002051 GeodesicLength=0.7322196418804643 rxn_smarts="[C:1]1([H:7])([H:8])[C:2]([H:9])([H:10])[O:3][C:4]([H:11])([H:12])[O:5][C:6]1([H:13])[H:14]>>[C:1]1([H:7])([H:8])[C-:2]([H:10])[O+:3]=[C:4]([H:11])[O:5][C:6]1([H:13])[H:14].[H:9][H:12]"
C        1.03209492       0.67646923       0.19235116
C        0.98316849      -0.81907600      -0.00624248
O       -0.07886609      -1.32364160       0.76456172
C       -1.25421964      -0.83005920       0.43315164
O       -1.39051188       0.50937267       0.45128509
C       -0.32878823       1.26953307      -0.13975724
H        1.27769418       0.94750956       1.22828789
H        1.79389036       1.11609588      -0.45420570
H        0.06965011      -1.18184931      -1.37143997
H        1.87717756      -1.36797897       0.26953535
H       -2.08951678      -1.34218690       0.89396630
H       -0.94866699      -1.20889554      -1.28015621
H       -0.45346962       2.28302845       0.24022445
H       -0.48963639       1.27167865      -1.22156202
14
Frame=11 idx=002051 GeodesicLength=0.8054429725404786 rxn_smarts="[C:1]1([H:7])([H:8])[C:2]([H:9])([H:10])[O:3][C:4]([H:11])([H:12])[O:5][C:6]1([H:13])[H:14]>>[C:1]1([H:7])([H:8])[C-:2]([H:10])[O+:3]=[C:4]([H:11])[O:5][C:6]1([H:13])[H:14].[H:9][H:12]"
C        1.03185774       0.67685803       0.19059833
C        0.98157086      -0.81872742      -0.01618167
O       -0.07782649      -1.31754476       0.77038542
C       -1.25470903      -0.82998601       0.42307842
O       -1.39131746       0.51062482       0.44835221
C       -0.32827633       1.27295414      -0.13777239
H        1.27572230       0.94111475       1.22878450
H        1.79468527       1.11969031      -0.45250873
H        0.08275027      -1.19600734      -1.36863129
H        1.87636075      -1.36408656       0.26540268
H       -2.08878679      -1.34054085       0.88858498
H       -0.96115518      -1.21923089      -1.26676749
H       -0.45215174       2.28498092       0.24655240
H       -0.48872416       1.27990086      -1.21987736
14
Frame=12 idx=002051 GeodesicLength=0.8786666697539356 rxn_smarts="[C:1]1([H:7])([H:8])[C:2]([H:9])([H:10])[O:3][C:4]([H:11])([H:12])[O:5][C:6]1([H:13])[H:14]>>[C:1]1([H:7])([H:8])[C-:2]([H:10])[O+:3]=[C:4]([H:11])[O:5][C:6]1([H:13])[H:14].[H:9][H:12]"
C        1.03159660       0.67725320       0.18887802
C        0.97999711      -0.81833584      -0.02598575
O       -0.07684733      -1.31159468       0.77579889
C       -1.25513090      -0.82987325       0.41323302
O       -1.39212830       0.51187055       0.44535086
C       -0.32776594       1.27634180      -0.13581236
H        1.27367225       0.93475883       1.22926517
H        1.79548553       1.12325899      -0.45072906
H        0.09653774      -1.21024918      -1.36593796
H        1.87553285      -1.36015940       0.26133950
H       -2.08796509      -1.33881890       0.88346828
H       -0.97435266      -1.22943559      -1.25350601
H       -0.45086032       2.28688349       0.25283458
H       -0.48777154       1.28809998      -1.21819718
14
Frame=13 idx=002051 GeodesicLength=0.9518918192076211 rxn_smarts="[C:1]1([H:7])([H:8])[C:2]([H:9])([H:10])[O:3][C:4]([H:11])([H:12])[O:5][C:6]1([H:13])[H:14]>>[C:1]1([H:7])([H:8])[C-:2]([H:10])[O+:3]=[C:4]([H:11])[O:5][C:6]1([H:13])[H:14].[H:9][H:12]"
C        1.03131413       0.67765444       0.18719670
C        0.97845962      -0.81790016      -0.03566637
O       -0.07592063      -1.30581330       0.78080100
C       -1.25549906      -0.82972031       0.40360606
O       -1.39294220       0.51311491       0.44229770
C       -0.32726024       1.27969362      -0.13388235
H        1.27153994       0.92843561       1.22974454
H        1.79629933       1.12680909      -0.44885156
H        0.11107740      -1.22457402      -1.36338042
H        1.87471173      -1.35619330       0.25734697
H       -2.08705745      -1.33700616       0.87863723
H       -0.98833593      -1.23950017      -1.24037122
H       -0.44959992       2.28874080       0.25905230
H       -0.48678672       1.29625895      -1.21653058
14
Frame=14 idx=002051 GeodesicLength=1.0251170592336531 rxn_smarts="[C:1]1([H:7])([H:8])[C:2]([H:9])([H:10])[O:3][C:4]([H:11])([H:12])[O:5][C:6]1([H:13])[H:14]>>[C:1]1([H:7])([H:8])[C-:2]([H:10])[O+:3]=[C:4]([H:11])[O:5][C:6]1([H:13])[H:14].[H:9][H:12]"
C        1.03100873       0.67806303       0.18555943
C        0.97696367      -0.81741647      -0.04523701
O       -0.07504189      -1.30021972       0.78538759
C       -1.25581891      -0.82952873       0.39418785
O       -1.39375056       0.51436028       0.43920303
C       -0.32675725       1.28300761      -0.13198839
H        1.26931227       0.92213631       1.23023145
H        1.79712899       1.13035218      -0.44685744
H        0.12643645      -1.23898652      -1.36097159
H        1.87390270      -1.35217898       0.25341998
H       -2.08606134      -1.33509281       0.87410663
H       -1.00318702      -1.24941601      -1.22734698
H       -0.44836827       2.29055554       0.26518770
H       -0.48576757       1.30436432      -1.21488225
14
Frame=15 idx=002051 GeodesicLength=1.0983425226772265 rxn_smarts="[C:1]1([H:7])([H:8])[C:2]([H:9])([H:10])[O:3][C:4]([H:11])([H:12])[O:5][C:6]1([H:13])[H:14]>>[C:1]1([H:7])([H:8])[C-:2]([H:10])[O+:3]=[C:4]([H:11])[O:5][C:6]1([H:13])[H:14].[H:9][H:12]"
C        1.03067950       0.67847952       0.18397186
C        0.97551649      -0.81688126      -0.05471089
O       -0.07420545      -1.29483374       0.78955238
C       -1.25609702      -0.82929863       0.38496949
O       -1.39454666       0.51560990       0.43607896
C       -0.32625687       1.28628167      -0.13013649
H        1.26697706       0.91585195       1.23073631
H        1.79797781       1.13389811      -0.44472762
H        0.14269156      -1.25349700      -1.35872618
H        1.87311492      -1.34810749       0.24955405
H       -2.08497435      -1.33306685       0.86989296
H       -1.01899632      -1.25916839      -1.21441934
H       -0.44716590       2.29233114       0.27122286
H       -0.48471476       1.31240109      -1.21325834
14
Frame=16 idx=002051 GeodesicLength=1.1715656225539144 rxn_smarts="[C:1]1([H:7])([H:8])[C:2]([H:9])([H:10])[O:3][C:4]([H:11])([H:12])[O:5][C:6]1([H:13])[H:14]>>[C:1]1([H:7])([H:8])[C-:2]([H:10])[O+:3]=[C:4]([H:11])[O:5][C:6]1([H:13])[H:14].[H:9][H:12]"
C        1.03032516       0.67890376       0.18244111
C        0.97412471      -0.81629065      -0.06409957
O       -0.07340705      -1.28967994       0.79328498
C       -1.25634026      -0.82903147       0.37594341
O       -1.39532128       0.51686484       0.43294286
C       -0.32575845       1.28951121      -0.12833383
H        1.26452167       0.90957378       1.23126991
H        1.79884870       1.13745525      -0.44244247
H        0.15992759      -1.26809803      -1.35666403
H        1.87235533      -1.34396926       0.24574918
H       -2.08379266      -1.33091754       0.86601680
H       -1.03586317      -1.26873976      -1.20157267
H       -0.44599185       2.29407088       0.27713090
H       -0.48362845       1.32034693      -1.21166660
