15
Frame=0 idx=005896 GeodesicLength=0.0 rxn_smarts="[C:1]([C:2]([C:3]([H:11])([H:12])[H:13])([C:4](=[O:5])[N:6]([H:14])[H:15])[H:10])([H:7])([H:8])[H:9]>>[C:1]([C@@:2]1([H:10])[C:3]([H:12])([H:13])[C@:4]1([O:5][H:11])[N:6]([H:14])[H:15])([H:7])([H:8])[H:9]"
C       -0.71519937      -1.33908790       0.77174327
C       -0.40439931      -0.29931363      -0.29680683
C       -1.19419738       0.98080879      -0.17947305
C        0.89825663       0.37056317      -0.08322420
O        1.17921590       1.00738853       1.03692356
N        1.86511723       0.35667099      -0.98024941
H       -0.71543848      -0.88229680       1.76342589
H       -0.00560625      -2.16976910       0.77328264
H       -1.71548531      -1.73347788       0.58902073
H       -0.40294108      -0.78187976      -1.28487762
H        0.26502507       1.35732583       1.24033155
H       -1.41885426       1.45889224      -1.12793831
H       -2.05873541       0.90055336       0.47692432
H        1.77558972      -0.20875615      -1.80510041
H        2.64765224       0.98237832      -0.89398209
15
Frame=1 idx=005896 GeodesicLength=0.10212823388202612 rxn_smarts="[C:1]([C:2]([C:3]([H:11])([H:12])[H:13])([C:4](=[O:5])[N:6]([H:14])[H:15])[H:10])([H:7])([H:8])[H:9]>>[C:1]([C@@:2]1([H:10])[C:3]([H:12])([H:13])[C@:4]1([O:5][H:11])[N:6]([H:14])[H:15])([H:7])([H:8])[H:9]"
C       -0.71804963      -1.34694881       0.76657832
C       -0.40513775      -0.30620313      -0.29908234
C       -1.17740340       0.98455404      -0.17487893
C        0.89453538       0.36957982      -0.08074682
O        1.17162439       1.00529809       1.04039633
N        1.85687902       0.37111477      -0.98817559
H       -0.70976657      -0.89480194       1.76025661
H       -0.01294851      -2.18137205       0.76099143
H       -1.72135681      -1.73520201       0.58660813
H       -0.40576723      -0.77991456      -1.29047811
H        0.24339173       1.39265345       1.22177137
H       -1.42828569       1.44713773      -1.12447093
H       -2.02651542       0.91746210       0.50269788
H        1.79639270      -0.23545060      -1.78582305
H        2.64240779       0.99209310      -0.89564432
15
Frame=2 idx=005896 GeodesicLength=0.2042464258014572 rxn_smarts="[C:1]([C:2]([C:3]([H:11])([H:12])[H:13])([C:4](=[O:5])[N:6]([H:14])[H:15])[H:10])([H:7])([H:8])[H:9]>>[C:1]([C@@:2]1([H:10])[C:3]([H:12])([H:13])[C@:4]1([O:5][H:11])[N:6]([H:14])[H:15])([H:7])([H:8])[H:9]"
C       -0.72084865      -1.35457708       0.76152994
C       -0.40601157      -0.31282952      -0.30129038
C       -1.16110176       0.98805007      -0.17038248
C        0.89074533       0.36880183      -0.07853861
O        1.16438829       1.00311945       1.04363040
N        1.84831873       0.38467415      -0.99648020
H       -0.70412295      -0.90699684       1.75707436
H       -0.02010255      -2.19252993       0.74888526
H       -1.72701710      -1.73699149       0.58436491
H       -0.40883974      -0.77780363      -1.29588955
H        0.22273081       1.42802591       1.20243111
H       -1.43813800       1.43583799      -1.11982619
H       -1.99485277       0.93302312       0.52700009
H        1.81728393      -0.25974355      -1.76557177
H        2.63756800       0.99993952      -0.89693689
15
Frame=3 idx=005896 GeodesicLength=0.3063741705166873 rxn_smarts="[C:1]([C:2]([C:3]([H:11])([H:12])[H:13])([C:4](=[O:5])[N:6]([H:14])[H:15])[H:10])([H:7])([H:8])[H:9]>>[C:1]([C@@:2]1([H:10])[C:3]([H:12])([H:13])[C@:4]1([O:5][H:11])[N:6]([H:14])[H:15])([H:7])([H:8])[H:9]"
C       -0.72408128      -1.36210123       0.75678925
C       -0.40673282      -0.31955449      -0.30323231
C       -1.14453214       0.99126330      -0.16618469
C        0.88734080       0.36740527      -0.07598313
O        1.15780238       1.00013133       1.04722166
N        1.84046554       0.39606296      -1.00397886
H       -0.69914145      -0.91892928       1.75403761
H       -0.02789116      -2.20366052       0.73745596
H       -1.73305141      -1.73858157       0.58218027
H       -0.41168561      -0.77599566      -1.30087047
H        0.20333957       1.46307731       1.18250962
H       -1.44713791       1.42490987      -1.11442617
H       -1.96329151       0.94766806       0.54948323
H        1.83793647      -0.28117741      -1.74500811
H        2.63066053       1.00948208      -0.89999388
15
Frame=4 idx=005896 GeodesicLength=0.4085192103667936 rxn_smarts="[C:1]([C:2]([C:3]([H:11])([H:12])[H:13])([C:4](=[O:5])[N:6]([H:14])[H:15])[H:10])([H:7])([H:8])[H:9]>>[C:1]([C@@:2]1([H:10])[C:3]([H:12])([H:13])[C@:4]1([O:5][H:11])[N:6]([H:14])[H:15])([H:7])([H:8])[H:9]"
C       -0.72773373      -1.36954003       0.75232590
C       -0.40730455      -0.32636647      -0.30491009
C       -1.12770827       0.99420190      -0.16223904
C        0.88429807       0.36543409      -0.07304336
O        1.15181248       0.99637442       1.05121906
N        1.83337791       0.40538777      -1.01057997
H       -0.69481066      -0.93065681       1.75114226
H       -0.03629108      -2.21477911       0.72663717
H       -1.73944632      -1.73998762       0.58001155
H       -0.41429884      -0.77444824      -1.30544242
H        0.18513403       1.49792956       1.16192598
H       -1.45531760       1.41434501      -1.10829908
H       -1.93186922       0.96143616       0.57033463
H        1.85832039      -0.30012358      -1.72438104
H        2.62183739       1.02079295      -0.90470156
15
Frame=5 idx=005896 GeodesicLength=0.5106772807880328 rxn_smarts="[C:1]([C:2]([C:3]([H:11])([H:12])[H:13])([C:4](=[O:5])[N:6]([H:14])[H:15])[H:10])([H:7])([H:8])[H:9]>>[C:1]([C@@:2]1([H:10])[C:3]([H:12])([H:13])[C@:4]1([O:5][H:11])[N:6]([H:14])[H:15])([H:7])([H:8])[H:9]"
C       -0.73165408      -1.37687989       0.74806046
C       -0.40779946      -0.33316627      -0.30637805
C       -1.11083836       0.99688170      -0.15845318
C        0.88147890       0.36314261      -0.06984902
O        1.14628333       0.99207576       1.05550568
N        1.82684253       0.41311729      -1.01652099
H       -0.69093749      -0.94222245       1.74833784
H       -0.04505234      -2.22579138       0.71623434
H       -1.74602709      -1.74129580       0.57785386
H       -0.41679596      -0.77300992      -1.30968539
H        0.16792154       1.53280789       1.14050889
H       -1.46303361       1.40412835      -1.10137517
H       -1.90073008       0.97427516       0.58985285
H        1.87843190      -0.31696430      -1.70374033
H        2.61191027       1.03290124      -0.91035177
15
Frame=6 idx=005896 GeodesicLength=0.6128437132610798 rxn_smarts="[C:1]([C:2]([C:3]([H:11])([H:12])[H:13])([C:4](=[O:5])[N:6]([H:14])[H:15])[H:10])([H:7])([H:8])[H:9]>>[C:1]([C@@:2]1([H:10])[C:3]([H:12])([H:13])[C@:4]1([O:5][H:11])[N:6]([H:14])[H:15])([H:7])([H:8])[H:9]"
C       -0.73574954      -1.38412834       0.74396729
C       -0.40824428      -0.33991683      -0.30766085
C       -1.09403223       0.99930737      -0.15479090
C        0.87881224       0.36066792      -0.06645131
O        1.14111073       0.98737175       1.06005153
N        1.82075075       0.41960093      -1.02192095
H       -0.68742205      -0.95365350       1.74561847
H       -0.05402231      -2.23666212       0.70617687
H       -1.75268724      -1.74257621       0.57571457
H       -0.41922056      -0.77162549      -1.31364007
H        0.15155225       1.56789306       1.11808517
H       -1.47048174       1.39421050      -1.09366148
H       -1.86993462       0.98619146       0.60824372
H        1.89811102      -0.33178941      -1.68336717
H        2.60145759       1.04510893      -0.91636489
15
Frame=7 idx=005896 GeodesicLength=0.7150136916244396 rxn_smarts="[C:1]([C:2]([C:3]([H:11])([H:12])[H:13])([C:4](=[O:5])[N:6]([H:14])[H:15])[H:10])([H:7])([H:8])[H:9]>>[C:1]([C@@:2]1([H:10])[C:3]([H:12])([H:13])[C@:4]1([O:5][H:11])[N:6]([H:14])[H:15])([H:7])([H:8])[H:9]"
C       -0.73995757      -1.39128941       0.74000402
C       -0.40866145      -0.34658329      -0.30878065
C       -1.07736228       1.00149160      -0.15120591
C        0.87624772       0.35810483      -0.06288786
O        1.13622977       0.98234359       1.06482671
N        1.81501929       0.42508819      -1.02687101
H       -0.68418246      -0.96498668       1.74295729
H       -0.06310298      -2.24736664       0.69636861
H       -1.75936121      -1.74386254       0.57358054
H       -0.42161189      -0.77022810      -1.31734176
H        0.13590187       1.60328226       1.09451161
H       -1.47779613       1.38456529      -1.08513492
H       -1.83950169       0.99721382       0.62570107
H        1.91735648      -0.34483236      -1.66326639
H        2.59078251       1.05705944      -0.92246135
15
Frame=8 idx=005896 GeodesicLength=0.8171848715836814 rxn_smarts="[C:1]([C:2]([C:3]([H:11])([H:12])[H:13])([C:4](=[O:5])[N:6]([H:14])[H:15])[H:10])([H:7])([H:8])[H:9]>>[C:1]([C@@:2]1([H:10])[C:3]([H:12])([H:13])[C@:4]1([O:5][H:11])[N:6]([H:14])[H:15])([H:7])([H:8])[H:9]"
C       -0.74424292      -1.39837387       0.73613806
C       -0.40906264      -0.35314744      -0.30975332
C       -1.06086556       1.00344886      -0.14766420
C        0.87375613       0.35550721      -0.05917482
O        1.13159799       0.97703176       1.06982554
N        1.80959777       0.42975392      -1.03142649
H       -0.68116725      -0.97625972       1.74033602
H       -0.07224229      -2.25790366       0.68673728
H       -1.76601660      -1.74517478       0.57143716
H       -0.42399112      -0.76877369      -1.32081806
H        0.12086527       1.63903759       1.06964861
H       -1.48506433       1.37516606      -1.07578136
H       -1.80940610       1.00739703       0.64239613
H        1.93618834      -0.35629770      -1.64342248
H        2.58005331       1.06858843      -0.92847805
15
Frame=9 idx=005896 GeodesicLength=0.9193552052013153 rxn_smarts="[C:1]([C:2]([C:3]([H:11])([H:12])[H:13])([C:4](=[O:5])[N:6]([H:14])[H:15])[H:10])([H:7])([H:8])[H:9]>>[C:1]([C@@:2]1([H:10])[C:3]([H:12])([H:13])[C@:4]1([O:5][H:11])[N:6]([H:14])[H:15])([H:7])([H:8])[H:9]"
C       -0.74858343      -1.40539083       0.73234193
C       -0.40945288      -0.35959807      -0.31058939
C       -1.04455959       1.00519271      -0.14413903
C        0.87132011       0.35290963      -0.05531615
O        1.12719231       0.97145250       1.07505230
N        1.80445422       0.43372585      -1.03561804
H       -0.67834035      -0.98750554       1.73773836
H       -0.08141019      -2.26827601       0.67722519
H       -1.77263615      -1.74652070       0.56926730
H       -0.42637007      -0.76722845      -1.32408833
H        0.10633689       1.67518206       1.04337077
H       -1.49234229       1.36598471      -1.06558967
H       -1.77960002       1.01680541       0.65847440
H        1.95462703      -0.36636069      -1.62379974
H        2.56936441       1.07962744      -0.93432989
15
Frame=10 idx=005896 GeodesicLength=1.0215236634298004 rxn_smarts="[C:1]([C:2]([C:3]([H:11])([H:12])[H:13])([C:4](=[O:5])[N:6]([H:14])[H:15])[H:10])([H:7])([H:8])[H:9]>>[C:1]([C@@:2]1([H:10])[C:3]([H:12])([H:13])[C@:4]1([O:5][H:11])[N:6]([H:14])[H:15])([H:7])([H:8])[H:9]"
C       -0.75296809      -1.41235162       0.72859449
C       -0.40983290      -0.36593110      -0.31129792
C       -1.02845098       1.00673675      -0.14061011
C        0.86892984       0.35033209      -0.05131147
O        1.12299783       0.96560341       1.08052097
N        1.79956877       0.43710447      -1.03946877
H       -0.67567925      -0.99875505       1.73515365
H       -0.09059454      -2.27849604       0.66778677
H       -1.77921631      -1.74790236       0.56705924
H       -0.42875141      -0.76557027      -1.32716947
H        0.09221332       1.71172796       1.01553545
H       -1.49968268       1.35699110      -1.05454385
H       -1.75001081       1.02551328       0.67407454
H        1.97270441      -0.37515892      -1.60437679
H        2.55877278       1.09015630      -0.93994674
15
Frame=11 idx=005896 GeodesicLength=1.123689499756731 rxn_smarts="[C:1]([C:2]([C:3]([H:11])([H:12])[H:13])([C:4](=[O:5])[N:6]([H:14])[H:15])[H:10])([H:7])([H:8])[H:9]>>[C:1]([C@@:2]1([H:10])[C:3]([H:12])([H:13])[C@:4]1([O:5][H:11])[N:6]([H:14])[H:15])([H:7])([H:8])[H:9]"
C       -0.75738997      -1.41926301       0.72487639
C       -0.41020081      -0.37214254      -0.31188537
C       -1.01253911       1.00809430      -0.13706060
C        0.86657948       0.34779204      -0.04715826
O        1.11901575       0.95946640       1.08624807
N        1.79492627       0.43997141      -1.04299396
H       -0.67316683      -1.01003338       1.73257068
H       -0.09978995      -2.28857168       0.65838262
H       -1.78575746      -1.74931409       0.56479926
H       -0.43113588      -0.76377862      -1.33007377
H        0.07837757       1.74865763       0.98601332
H       -1.50712716       1.34815259      -1.04262435
H       -1.72055443       1.03359758       0.68931633
H        1.99045031      -0.38281333      -1.58511408
H        2.54831222       1.10018468      -0.94529628
15
Frame=12 idx=005896 GeodesicLength=1.225852442797916 rxn_smarts="[C:1]([C:2]([C:3]([H:11])([H:12])[H:13])([C:4](=[O:5])[N:6]([H:14])[H:15])[H:10])([H:7])([H:8])[H:9]>>[C:1]([C@@:2]1([H:10])[C:3]([H:12])([H:13])[C@:4]1([O:5][H:11])[N:6]([H:14])[H:15])([H:7])([H:8])[H:9]"
C       -0.76184828      -1.42612989       0.72117332
C       -0.41055096      -0.37823194      -0.31235588
C       -0.99681563       1.00927771      -0.13347885
C        0.86426836       0.34530015      -0.04285196
O        1.11525873       0.95300330       1.09225742
N        1.79051703       0.44239759      -1.04620485
H       -0.67079716      -1.02135975       1.72998170
H       -0.10899962      -2.29851121       0.64898593
H       -1.79226615      -1.75074520       0.56247511
H       -0.43351827      -0.76184052      -1.33280941
H        0.06470272       1.78593748       0.95467041
H       -1.51471191       1.33943207      -1.02980747
H       -1.69113147       1.04114123       0.70430645
H        2.00788993      -0.38941240      -1.56598992
H        2.53800268       1.10974139      -0.95035198
15
Frame=13 idx=005896 GeodesicLength=1.3280125684891648 rxn_smarts="[C:1]([C:2]([C:3]([H:11])([H:12])[H:13])([C:4](=[O:5])[N:6]([H:14])[H:15])[H:10])([H:7])([H:8])[H:9]>>[C:1]([C@@:2]1([H:10])[C:3]([H:12])([H:13])[C@:4]1([O:5][H:11])[N:6]([H:14])[H:15])([H:7])([H:8])[H:9]"
C       -0.76634639      -1.43295417       0.71747411
C       -0.41087489      -0.38419989      -0.31271189
C       -0.98126628       1.01029929      -0.12985649
C        0.86199955       0.34286483      -0.03838814
O        1.11175323       0.94615566       1.09857831
N        1.78633442       0.44444730      -1.04911133
H       -0.66857241      -1.03274773       1.72738101
H       -0.11823234      -2.30832102       0.63957850
H       -1.79875275      -1.75218000       0.56007430
H       -0.43589010      -0.75974654      -1.33538177
H        0.05104649       1.82351741       0.92137429
H       -1.52246802       1.33078971      -1.01606345
H       -1.66163141       1.04823134       0.71913811
H        2.02504835      -0.39502485      -1.54698692
H        2.52785256       1.11886867      -0.95509863
15
Frame=14 idx=005896 GeodesicLength=1.4301700634374983 rxn_smarts="[C:1]([C:2]([C:3]([H:11])([H:12])[H:13])([C:4](=[O:5])[N:6]([H:14])[H:15])[H:10])([H:7])([H:8])[H:9]>>[C:1]([C@@:2]1([H:10])[C:3]([H:12])([H:13])[C@:4]1([O:5][H:11])[N:6]([H:14])[H:15])([H:7])([H:8])[H:9]"
C       -0.77089211      -1.43973493       0.71377168
C       -0.41116055      -0.39004920      -0.31295350
C       -0.96587069       1.01116991      -0.12618836
C        0.85978054       0.34049069      -0.03376192
O        1.10853793       0.93884145       1.10524705
N        1.78237504       0.44618281      -1.05172149
H       -0.66650601      -1.04420420       1.72476575
H       -0.12750180      -2.31800536       0.63015407
H       -1.80523132      -1.75359869       0.55758383
H       -0.43823828      -0.75749258      -1.33779240
H        0.03725070       1.86133605       0.88598555
H       -1.53042164       1.32218138      -1.00135505
H       -1.63193226       1.05495946       0.73389165
H        2.04194332      -0.39969247      -1.52810834
H        2.51786712       1.12761569      -0.95951849
15
Frame=15 idx=005896 GeodesicLength=1.5323256878384905 rxn_smarts="[C:1]([C:2]([C:3]([H:11])([H:12])[H:13])([C:4](=[O:5])[N:6]([H:14])[H:15])[H:10])([H:7])([H:8])[H:9]>>[C:1]([C@@:2]1([H:10])[C:3]([H:12])([H:13])[C@:4]1([O:5][H:11])[N:6]([H:14])[H:15])([H:7])([H:8])[H:9]"
C       -0.77549680      -1.44646841       0.71006088
C       -0.41139312      -0.39578289      -0.31307946
C       -0.95060355       1.01190039      -0.12247060
C        0.85762226       0.33818179      -0.02896961
O        1.10566498       0.93095423       1.11230591
N        1.77863785       0.44766563      -1.05404355
H       -0.66462028      -1.05573092       1.72213464
H       -0.13682558      -2.32756621       0.62071357
H       -1.81171872      -1.75497746       0.55498818
H       -0.44054709      -0.75507605      -1.34004103
H        0.02313789       1.89932410       0.84835691
H       -1.53859849       1.31355814      -0.98563357
H       -1.60190032       1.06142222       0.74863738
H        2.05859278      -0.40344214      -1.50936422
H        2.50804819       1.13603758      -0.96359542
15
Frame=16 idx=005896 GeodesicLength=1.6344811689666265 rxn_smarts="[C:1]([C:2]([C:3]([H:11])([H:12])[H:13])([C:4](=[O:5])[N:6]([H:14])[H:15])[H:10])([H:7])([H:8])[H:9]>>[C:1]([C@@:2]1([H:10])[C:3]([H:12])([H:13])[C@:4]1([O:5][H:11])[N:6]([H:14])[H:15])([H:7])([H:8])[H:9]"
C       -0.78017583      -1.45314795       0.70633870
C       -0.41155410      -0.40140497      -0.31308671
C       -0.93543406       1.01250044      -0.11870028
C        0.85553989       0.33594040      -0.02400804
O        1.10319893       0.92236043       1.11980396
N        1.77512468       0.44895961      -1.05608501
H       -0.66294909      -1.06732389       1.71948834
H       -0.14622536      -2.33700330       0.61126675
H       -1.81823489      -1.75628830       0.55226833
H       -0.44279680      -0.75249674      -1.34212494
H        0.00850866       1.93740724       0.80832418
H       -1.54702509       1.30486389      -0.96883512
H       -1.57138766       1.06772271       0.76343683
H        2.07501028      -0.40628175      -1.49078134
H        2.49840045       1.14419218      -0.96730565
