18
Frame=0 idx=006295 GeodesicLength=0.0 rxn_smarts="[C:1]([C:2]([C@@:3]([C:4]([H:13])([H:14])[H:15])([O:5][C:6]([H:16])([H:17])[H:18])[H:12])([H:10])[H:11])([H:7])([H:8])[H:9]>>[C:1]([C:2]([C:3][H:12])([H:10])[H:11])([H:7])([H:8])[H:9].[C:4]([O:5][C:6]([H:16])([H:17])[H:18])([H:13])([H:14])[H:15]"
C       -0.86342627      -2.00079421       0.47220685
C       -1.50527071      -0.66403368       0.08308461
C       -0.60455696       0.33943932      -0.57880252
C        0.13650777       2.19606405      -0.06830812
O        0.60079468       0.59504456       0.36956671
C        1.86098232       0.12737015      -0.07516571
H       -0.44481104      -2.50506063      -0.40303451
H       -0.05900090      -1.85197455       1.19651538
H       -1.59007570      -2.67533152       0.93187355
H       -1.97033158      -0.22214390       0.97178654
H       -2.32348306      -0.84133927      -0.62356116
H       -0.15034247      -0.07555319      -1.48772308
H        0.07978017       2.48692624      -1.10918743
H        1.04100591       2.61020018       0.40501736
H       -0.75404603       2.47906696       0.47305903
H        2.61876206       0.40223022       0.65937742
H        1.81012675      -0.95950291      -0.16838688
H        2.11738506       0.55939214      -1.04831798
18
Frame=1 idx=006295 GeodesicLength=0.05188316304129002 rxn_smarts="[C:1]([C:2]([C@@:3]([C:4]([H:13])([H:14])[H:15])([O:5][C:6]([H:16])([H:17])[H:18])[H:12])([H:10])[H:11])([H:7])([H:8])[H:9]>>[C:1]([C:2]([C:3][H:12])([H:10])[H:11])([H:7])([H:8])[H:9].[C:4]([O:5][C:6]([H:16])([H:17])[H:18])([H:13])([H:14])[H:15]"
C       -0.87892180      -1.99785750       0.47916750
C       -1.50275857      -0.65643914       0.07866638
C       -0.58476391       0.32747081      -0.58879978
C        0.12420300       2.17912705      -0.06302377
O        0.61323338       0.57974736       0.36970514
C        1.87865001       0.13572033      -0.08279345
H       -0.46395317      -2.51383484      -0.39095636
H       -0.07434338      -1.85410284       1.20421755
H       -1.61556788      -2.65990511       0.94103286
H       -1.96706119      -0.20221527       0.96141062
H       -2.31993966      -0.82643620      -0.63099891
H       -0.12996782      -0.10272027      -1.49008306
H        0.04886495       2.48915373      -1.09781392
H        1.02799265       2.61013418       0.39511089
H       -0.75916271       2.44726764       0.49837774
H        2.63131979       0.40798951       0.65789220
H        1.83835465      -0.95004967      -0.19371039
H        2.13382168       0.58695022      -1.04740124
18
Frame=2 idx=006295 GeodesicLength=0.1037779505242857 rxn_smarts="[C:1]([C:2]([C@@:3]([C:4]([H:13])([H:14])[H:15])([O:5][C:6]([H:16])([H:17])[H:18])[H:12])([H:10])[H:11])([H:7])([H:8])[H:9]>>[C:1]([C:2]([C:3][H:12])([H:10])[H:11])([H:7])([H:8])[H:9].[C:4]([O:5][C:6]([H:16])([H:17])[H:18])([H:13])([H:14])[H:15]"
C       -0.89465563      -1.99463977       0.48616726
C       -1.50013102      -0.64882497       0.07409508
C       -0.56492594       0.31533863      -0.59830398
C        0.11225686       2.16169031      -0.05776550
O        0.62598542       0.56418999       0.36985137
C        1.89631322       0.14444195      -0.09054522
H       -0.48303835      -2.52217818      -0.37858388
H       -0.09045870      -1.85593879       1.21251403
H       -1.64140762      -2.64409634       0.94963553
H       -1.96385286      -0.18245447       0.95067549
H       -2.31589807      -0.81149702      -0.63894399
H       -0.10977443      -0.13005645      -1.49176491
H        0.01728267       2.49021053      -1.08586626
H        1.01468003       2.60972216       0.38519900
H       -0.76321786       2.41506488       0.52353933
H        2.64412904       0.41406219       0.65595408
H        1.86719372      -0.93980298      -0.21945904
H        2.14951952       0.61476831      -1.04639839
18
Frame=3 idx=006295 GeodesicLength=0.1556772540935564 rxn_smarts="[C:1]([C:2]([C@@:3]([C:4]([H:13])([H:14])[H:15])([O:5][C:6]([H:16])([H:17])[H:18])[H:12])([H:10])[H:11])([H:7])([H:8])[H:9]>>[C:1]([C:2]([C:3][H:12])([H:10])[H:11])([H:7])([H:8])[H:9].[C:4]([O:5][C:6]([H:16])([H:17])[H:18])([H:13])([H:14])[H:15]"
C       -0.91061445      -1.99113871       0.49319318
C       -1.49738533      -0.64120448       0.06937638
C       -0.54506484       0.30304933      -0.60731906
C        0.10068458       2.14376851      -0.05253831
O        0.63904287       0.54837425       0.37000337
C        1.91393502       0.15353061      -0.09840489
H       -0.50207241      -2.53009753      -0.36593828
H       -0.10732338      -1.85745039       1.22137173
H       -1.66756481      -2.62790835       0.95767968
H       -1.96069828      -0.16288042       0.93959687
H       -2.31135989      -0.79655385      -0.64737421
H       -0.08977042      -0.15755678      -1.49276078
H       -0.01491188       2.49005160      -1.07333960
H        1.00108559       2.60895664       0.37527301
H       -0.76618643       2.38252229       0.54852604
H        2.65715321       0.42042180       0.65359869
H        1.89658325      -0.92872479      -0.24565997
H        2.16446763       0.64284027      -1.04528384
18
Frame=4 idx=006295 GeodesicLength=0.20757254005961967 rxn_smarts="[C:1]([C:2]([C@@:3]([C:4]([H:13])([H:14])[H:15])([O:5][C:6]([H:16])([H:17])[H:18])[H:12])([H:10])[H:11])([H:7])([H:8])[H:9]>>[C:1]([C:2]([C:3][H:12])([H:10])[H:11])([H:7])([H:8])[H:9].[C:4]([O:5][C:6]([H:16])([H:17])[H:18])([H:13])([H:14])[H:15]"
C       -0.92678104      -1.98735233       0.50023105
C       -1.49452078      -0.63359086       0.06451813
C       -0.52520533       0.29061126      -0.61585105
C        0.08949973       2.12538025      -0.04734884
O        0.65239619       0.53230476       0.37015921
C        1.93147820       0.16297703      -0.10635374
H       -0.52106076      -2.53759864      -0.35304570
H       -0.12490382      -1.85860723       1.23075152
H       -1.69400269      -2.61134601       0.96516664
H       -1.95759070      -0.14351269       0.92819571
H       -2.30633272      -0.78163831      -0.65626383
H       -0.06996585      -0.18521281      -1.49306652
H       -0.04765459       2.48863642      -1.06023520
H        0.98722579       2.60783286       0.36532669
H       -0.76805220       2.34970610       0.57331530
H        2.67035687       0.42703524       0.65086445
H        1.92645500      -0.91677849      -0.27233505
H        2.17865869       0.67115344      -1.04402877
18
Frame=5 idx=006295 GeodesicLength=0.25945862858543706 rxn_smarts="[C:1]([C:2]([C@@:3]([C:4]([H:13])([H:14])[H:15])([O:5][C:6]([H:16])([H:17])[H:18])[H:12])([H:10])[H:11])([H:7])([H:8])[H:9]>>[C:1]([C:2]([C:3][H:12])([H:10])[H:11])([H:7])([H:8])[H:9].[C:4]([O:5][C:6]([H:16])([H:17])[H:18])([H:13])([H:14])[H:15]"
C       -0.94313358      -1.98327359       0.50726942
C       -1.49152764      -0.62599724       0.05952184
C       -0.50536492       0.27803448      -0.62390373
C        0.07871816       2.10654496      -0.04220358
O        0.66603417       0.51598462       0.37030952
C        1.94889365       0.17276458      -0.11437647
H       -0.53999642      -2.54468406      -0.33991371
H       -0.14317524      -1.85936691       1.24061632
H       -1.72067816      -2.59441146       0.97208977
H       -1.95452001      -0.12436685       0.91647258
H       -2.30080360      -0.76679038      -0.66559328
H       -0.05036842      -0.21301144      -1.49266887
H       -0.08089722       2.48593951      -1.04654175
H        0.97311684       2.60634751       0.35534070
H       -0.76878055       2.31666866       0.59790212
H        2.68369072       0.43386164       0.64777610
H        1.95671666      -0.90393238      -0.29949620
H        2.19207556       0.69968835      -1.04260077
18
Frame=6 idx=006295 GeodesicLength=0.3112420624049513 rxn_smarts="[C:1]([C:2]([C@@:3]([C:4]([H:13])([H:14])[H:15])([O:5][C:6]([H:16])([H:17])[H:18])[H:12])([H:10])[H:11])([H:7])([H:8])[H:9]>>[C:1]([C:2]([C:3][H:12])([H:10])[H:11])([H:7])([H:8])[H:9].[C:4]([O:5][C:6]([H:16])([H:17])[H:18])([H:13])([H:14])[H:15]"
C       -0.95961548      -1.97892384       0.51424959
C       -1.48840815      -0.61843850       0.05444437
C       -0.48560959       0.26535641      -0.63146318
C        0.06836061       2.08732166      -0.03715000
O        0.67991080       0.49945913       0.37047361
C        1.96610530       0.18286019      -0.12240574
H       -0.55888333      -2.55133590      -0.32666473
H       -0.16202040      -1.85975425       1.25084207
H       -1.74747425      -2.57717342       0.97842705
H       -1.95143332      -0.10549991       0.90454812
H       -2.29482694      -0.75201883      -0.67524648
H       -0.03103332      -0.24089280      -1.49156176
H       -0.11445194       2.48192784      -1.03233962
H        0.95878049       2.60451746       0.34530685
H       -0.76840457       2.28356480       0.62214140
H        2.69707935       0.44085238       0.64441937
H        1.98723212      -0.89017631      -0.32707466
H        2.20469261       0.72835390      -1.04094625
18
Frame=7 idx=006295 GeodesicLength=0.36292679848760223 rxn_smarts="[C:1]([C:2]([C@@:3]([C:4]([H:13])([H:14])[H:15])([O:5][C:6]([H:16])([H:17])[H:18])[H:12])([H:10])[H:11])([H:7])([H:8])[H:9]>>[C:1]([C:2]([C:3][H:12])([H:10])[H:11])([H:7])([H:8])[H:9].[C:4]([O:5][C:6]([H:16])([H:17])[H:18])([H:13])([H:14])[H:15]"
C       -0.97619791      -1.97429638       0.52116296
C       -1.48516087      -0.61092491       0.04928609
C       -0.46595911       0.25259191      -0.63854415
C        0.05843261       2.06773873      -0.03219371
O        0.69401431       0.48273664       0.37064159
C        1.98307565       0.19323301      -0.13042530
H       -0.57770705      -2.55755859      -0.31331134
H       -0.18139369      -1.85973026       1.26139017
H       -1.77434187      -2.55963496       0.98418874
H       -1.94833568      -0.08692062       0.89242675
H       -2.28840487      -0.73736149      -0.68520939
H       -0.01196712      -0.26883522      -1.48975132
H       -0.14828015       2.47660184      -1.01762915
H        0.94423473       2.60234552       0.33520543
H       -0.76691417       2.25044190       0.64604103
H        2.71048864       0.44795071       0.64082339
H        2.01790223      -0.87549471      -0.35506578
H        2.21651434       0.75711691      -1.03903600
18
Frame=8 idx=006295 GeodesicLength=0.4145052765946191 rxn_smarts="[C:1]([C:2]([C@@:3]([C:4]([H:13])([H:14])[H:15])([O:5][C:6]([H:16])([H:17])[H:18])[H:12])([H:10])[H:11])([H:7])([H:8])[H:9]>>[C:1]([C:2]([C:3][H:12])([H:10])[H:11])([H:7])([H:8])[H:9].[C:4]([O:5][C:6]([H:16])([H:17])[H:18])([H:13])([H:14])[H:15]"
C       -0.99284639      -1.96939066       0.52799464
C       -1.48178096      -0.60346691       0.04405491
C       -0.44643703       0.23975540      -0.64516348
C        0.04893890       2.04783035      -0.02734117
O        0.70832443       0.46583208       0.37080651
C        1.99975847       0.20385199      -0.13841141
H       -0.59647037      -2.56335842      -0.29988227
H       -0.20122907      -1.85927382       1.27219850
H       -1.80121587      -2.54180227       0.98939850
H       -1.94521580      -0.06864186       0.88012520
H       -2.28154230      -0.72284690      -0.69545114
H        0.00681958      -0.29681569      -1.48724472
H       -0.18230491       2.46995632      -1.00242014
H        0.92949233       2.59983719       0.32502296
H       -0.76431562       2.21736329       0.66957662
H        2.72387113       0.45509713       0.63702567
H        2.04861416      -0.85987177      -0.38346143
H        2.22753932       0.78594454      -1.03682775
18
Frame=9 idx=006295 GeodesicLength=0.46598106474598316 rxn_smarts="[C:1]([C:2]([C@@:3]([C:4]([H:13])([H:14])[H:15])([O:5][C:6]([H:16])([H:17])[H:18])[H:12])([H:10])[H:11])([H:7])([H:8])[H:9]>>[C:1]([C:2]([C:3][H:12])([H:10])[H:11])([H:7])([H:8])[H:9].[C:4]([O:5][C:6]([H:16])([H:17])[H:18])([H:13])([H:14])[H:15]"
C       -1.00952702      -1.96420351       0.53473541
C       -1.47826812      -0.59607326       0.03875764
C       -0.42706519       0.22686412      -0.65133899
C        0.03988230       2.02762915      -0.02259871
O        0.72282506       0.44875941       0.37095913
C        2.01611612       0.21468318      -0.14634700
H       -0.61516118      -2.56873828      -0.28639693
H       -0.22146726      -1.85835637       1.28322079
H       -1.82803898      -2.52368418       0.99407389
H       -1.94207305      -0.05067072       0.86765775
H       -2.27424906      -0.70850847      -0.70594592
H        0.02531646      -0.32480949      -1.48405343
H       -0.21645011       2.46199946      -0.98672398
H        0.91456284       2.59699690       0.31476246
H       -0.76062698       2.18437604       0.69272463
H        2.73719430       0.46222967       0.63305296
H        2.07925630      -0.84329585      -0.41225247
H        2.23777358       0.81480221      -1.03428724
18
Frame=10 idx=006295 GeodesicLength=0.5173573976600337 rxn_smarts="[C:1]([C:2]([C@@:3]([C:4]([H:13])([H:14])[H:15])([O:5][C:6]([H:16])([H:17])[H:18])[H:12])([H:10])[H:11])([H:7])([H:8])[H:9]>>[C:1]([C:2]([C:3][H:12])([H:10])[H:11])([H:7])([H:8])[H:9].[C:4]([O:5][C:6]([H:16])([H:17])[H:18])([H:13])([H:14])[H:15]"
C       -1.02620253      -1.95873340       0.54137474
C       -1.47462016      -0.58875145       0.03340336
C       -0.40786524       0.21393543      -0.65708961
C        0.03126269       2.00717074      -0.01797392
O        0.73749653       0.43153497       0.37109068
C        2.03210965       0.22568937      -0.15421304
H       -0.63376906      -2.57370011      -0.27287811
H       -0.24204174      -1.85695652       1.29440489
H       -1.85474758      -2.50529097       0.99823605
H       -1.93890000      -0.03301319       0.85504134
H       -2.26653534      -0.69437441      -0.71666248
H        0.04351177      -0.35278996      -1.48019012
H       -0.25063202       2.45274513      -0.97055709
H        0.89945192       2.59383092       0.30442819
H       -0.75587616       2.15152922       0.71545166
H        2.75042287       0.46928062       0.62893305
H        2.10971027      -0.82576014      -0.44142498
H        2.24722413       0.84365375      -1.03137462
18
Frame=11 idx=006295 GeodesicLength=0.5686420834276232 rxn_smarts="[C:1]([C:2]([C@@:3]([C:4]([H:13])([H:14])[H:15])([O:5][C:6]([H:16])([H:17])[H:18])[H:12])([H:10])[H:11])([H:7])([H:8])[H:9]>>[C:1]([C:2]([C:3][H:12])([H:10])[H:11])([H:7])([H:8])[H:9].[C:4]([O:5][C:6]([H:16])([H:17])[H:18])([H:13])([H:14])[H:15]"
C       -1.04283586      -1.95297864       0.54790475
C       -1.47083675      -0.58150811       0.02799901
C       -0.38885709       0.20098679      -0.66243741
C        0.02307779       1.98649072      -0.01347204
O        0.75231990       0.41417549       0.37119180
C        2.04770499       0.23683194      -0.16199290
H       -0.65228035      -2.57824579      -0.25934490
H       -0.26288596      -1.85505331       1.30570389
H       -1.88128062      -2.48663237       1.00190996
H       -1.93569311      -0.01567180       0.84228871
H       -2.25841326      -0.68047300      -0.72757404
H        0.06139504      -0.38072922      -1.47567277
H       -0.28477082       2.44221405      -0.95393526
H        0.88416465       2.59034635       0.29402804
H       -0.75009734       2.11886456       0.73772710
H        2.76352782       0.47618191       0.62468927
H        2.13985912      -0.80726198      -0.47096159
H        2.25590183       0.87246239      -1.02805160
18
Frame=12 idx=006295 GeodesicLength=0.6198465507855883 rxn_smarts="[C:1]([C:2]([C@@:3]([C:4]([H:13])([H:14])[H:15])([O:5][C:6]([H:16])([H:17])[H:18])[H:12])([H:10])[H:11])([H:7])([H:8])[H:9]>>[C:1]([C:2]([C:3][H:12])([H:10])[H:11])([H:7])([H:8])[H:9].[C:4]([O:5][C:6]([H:16])([H:17])[H:18])([H:13])([H:14])[H:15]"
C       -1.05938858      -1.94693742       0.55431859
C       -1.46691749      -0.57434827       0.02255202
C       -0.37005958       0.18803688      -0.66740511
C        0.01532272       1.96562518      -0.00909933
O        0.76727526       0.39669856       0.37125218
C        2.06287066       0.24806976      -0.16967137
H       -0.67067554      -2.58237538      -0.24581423
H       -0.28393347      -1.85262690       1.31707372
H       -1.90757649      -2.46772033       1.00511930
H       -1.93244733       0.00135405       0.82941249
H       -2.24989619      -0.66683057      -0.73865228
H        0.07895448      -0.40859705      -1.47052215
H       -0.31878622       2.43043637      -0.93687687
H        0.86870342       2.58655062       0.28357486
H       -0.74333430       2.08641765       0.75951621
H        2.77648362       0.48286271       0.62034103
H        2.16958392      -0.78780516      -0.50083910
H        2.26382111       0.90118929      -1.02427997
18
Frame=13 idx=006295 GeodesicLength=0.670984922211527 rxn_smarts="[C:1]([C:2]([C@@:3]([C:4]([H:13])([H:14])[H:15])([O:5][C:6]([H:16])([H:17])[H:18])[H:12])([H:10])[H:11])([H:7])([H:8])[H:9]>>[C:1]([C:2]([C:3][H:12])([H:10])[H:11])([H:7])([H:8])[H:9].[C:4]([O:5][C:6]([H:16])([H:17])[H:18])([H:13])([H:14])[H:15]"
C       -1.07582264      -1.94060956       0.56061061
C       -1.46286282      -0.56727599       0.01706975
C       -0.35148994       0.17510463      -0.67201679
C        0.00799080       1.94461113      -0.00486193
O        0.78234237       0.37912252       0.37126184
C        2.07757901       0.25936111      -0.17723457
H       -0.68893313      -2.58608967      -0.23230195
H       -0.30511798      -1.84966131       1.32847319
H       -1.93357562      -2.44856923       1.00788920
H       -1.92915733       0.01806744       0.81642508
H       -2.24099969      -0.65347089      -0.74986934
H        0.09617882      -0.43636207      -1.46476269
H       -0.35259958       2.41744956      -0.91940297
H        0.85306947       2.58245328       0.27308498
H       -0.73563849       2.05422002       0.78078289
H        2.78926910       0.48925324       0.61590428
H        2.19876807      -0.76739903      -0.53102863
H        2.27099957       0.92979481      -1.02002295
18
Frame=14 idx=006295 GeodesicLength=0.7220750968563209 rxn_smarts="[C:1]([C:2]([C@@:3]([C:4]([H:13])([H:14])[H:15])([O:5][C:6]([H:16])([H:17])[H:18])[H:12])([H:10])[H:11])([H:7])([H:8])[H:9]>>[C:1]([C:2]([C:3][H:12])([H:10])[H:11])([H:7])([H:8])[H:9].[C:4]([O:5][C:6]([H:16])([H:17])[H:18])([H:13])([H:14])[H:15]"
C       -1.09210037      -1.93399688       0.56677638
C       -1.45867580      -0.56029359       0.01156027
C       -0.33316448       0.16220942      -0.67629743
C        0.00107133       1.92348636      -0.00076589
O        0.79750124       0.36146575       0.37121298
C        2.09180919       0.27066318      -0.18466958
H       -0.70703069      -2.58938945      -0.21882514
H       -0.32637076      -1.84614782       1.33986367
H       -1.95922097      -2.42919475       1.01024864
H       -1.92581964       0.03447292       0.80334140
H       -2.23174457      -0.64041135      -0.76119773
H        0.11305828      -0.46398998      -1.45842329
H       -0.38613375       2.40329715      -0.90154230
H        0.83726159       2.57806439       0.26257889
H       -0.72707454       2.02230161       0.80148904
H        2.80187066       0.49528302       0.61139273
H        2.22730398      -0.74605831      -0.56149672
H        2.27745929       0.95823832      -1.01524593
18
Frame=15 idx=006295 GeodesicLength=0.7731415472836866 rxn_smarts="[C:1]([C:2]([C@@:3]([C:4]([H:13])([H:14])[H:15])([O:5][C:6]([H:16])([H:17])[H:18])[H:12])([H:10])[H:11])([H:7])([H:8])[H:9]>>[C:1]([C:2]([C:3][H:12])([H:10])[H:11])([H:7])([H:8])[H:9].[C:4]([O:5][C:6]([H:16])([H:17])[H:18])([H:13])([H:14])[H:15]"
C       -1.10818585      -1.92711276       0.57281892
C       -1.45436337      -0.55339755       0.00603223
C       -0.31509551       0.14937410      -0.68028009
C       -0.00545872       1.90230159       0.00318258
O        0.81273487       0.34374204       0.37110315
C        2.10555660       0.28192534      -0.19196768
H       -0.72493745      -2.59229348      -0.20540220
H       -0.34762509      -1.84209967       1.35122505
H       -1.98446481      -2.40962283       1.01223522
H       -1.92244022       0.05058758       0.79018763
H       -2.22215756      -0.62765193      -0.77261844
H        0.12959429      -0.49145088      -1.45155154
H       -0.41932254       2.38805600      -0.88333585
H        0.82126447       2.57340867       0.25208856
H       -0.71773622       1.99070180       0.82160361
H        2.81429201       0.50087700       0.60682174
H        2.25510931      -0.72382084      -0.59221118
H        2.28323580       0.98647582      -1.00993170
18
Frame=16 idx=006295 GeodesicLength=0.8242025337731426 rxn_smarts="[C:1]([C:2]([C@@:3]([C:4]([H:13])([H:14])[H:15])([O:5][C:6]([H:16])([H:17])[H:18])[H:12])([H:10])[H:11])([H:7])([H:8])[H:9]>>[C:1]([C:2]([C:3][H:12])([H:10])[H:11])([H:7])([H:8])[H:9].[C:4]([O:5][C:6]([H:16])([H:17])[H:18])([H:13])([H:14])[H:15]"
C       -1.12405395      -1.91991900       0.57869983
C       -1.44989971      -0.54661309       0.00049446
C       -0.29729639       0.13658740      -0.68394702
C       -0.01156053       1.88102931       0.00696884
O        0.82801377       0.32599312       0.37090007
C        2.11874710       0.29315823      -0.19910763
H       -0.74268697      -2.59474071      -0.19203886
H       -0.36882960      -1.83744029       1.36244292
H       -2.00924526      -2.38983025       1.01381464
H       -1.91893135       0.06637420       0.77693852
H       -2.21222877      -0.61526010      -0.78405694
H        0.14573063      -0.51871902      -1.44408988
H       -0.45206144       2.37165984      -0.86476258
H        0.80513396       2.56843832       0.24159997
H       -0.70758663       1.95937331       0.84105223
H        2.82646643       0.50605596       0.60215636
H        2.28198454      -0.70062686      -0.62307659
H        2.28830417       1.01447962      -1.00398832
