10
Frame=0 idx=001692 GeodesicLength=0.0 rxn_smarts="[N:1]([C:2](=[O:3])[O:4]/[C:5](=[N:6]/[H:10])[H:9])([H:7])[H:8]>>[C-:2]#[O+:3].[N:1]([N:6]([C:5](=[O:4])[H:9])[H:10])([H:7])[H:8]"
N       -1.39660181      -0.01827336      -0.47047865
C       -0.69213655      -0.97036739       1.16868574
O       -1.12052602      -1.97533929       1.47485949
O        1.28767725      -0.68402353       1.03410847
C        1.34033405       0.27686023       0.24498573
N        0.70677360       0.20194901      -0.91539593
H       -1.18096545      -0.13852947      -1.45206824
H       -1.46596934       0.97822633      -0.27961938
H        1.81788887       1.21604993       0.56720977
H        0.70352539       1.11344754      -1.37228701
10
Frame=1 idx=001692 GeodesicLength=0.05726644929025239 rxn_smarts="[N:1]([C:2](=[O:3])[O:4]/[C:5](=[N:6]/[H:10])[H:9])([H:7])[H:8]>>[C-:2]#[O+:3].[N:1]([N:6]([C:5](=[O:4])[H:9])[H:10])([H:7])[H:8]"
N       -1.37302755      -0.03786265      -0.47873039
C       -0.70455815      -0.96787882       1.17472850
O       -1.13509215      -1.96336637       1.51186205
O        1.27008904      -0.69500626       1.01361253
C        1.33970981       0.27834324       0.23861166
N        0.70067032       0.23946594      -0.91915249
H       -1.16611091      -0.15304720      -1.46235168
H       -1.50368701       0.95005627      -0.28019895
H        1.86059282       1.19256460       0.56410001
H        0.71141377       1.15673125      -1.36248122
10
Frame=2 idx=001692 GeodesicLength=0.11387959813441131 rxn_smarts="[N:1]([C:2](=[O:3])[O:4]/[C:5](=[N:6]/[H:10])[H:9])([H:7])[H:8]>>[C-:2]#[O+:3].[N:1]([N:6]([C:5](=[O:4])[H:9])[H:10])([H:7])[H:8]"
N       -1.34927355      -0.05582869      -0.48613571
C       -0.71727228      -0.96443482       1.18100021
O       -1.14893512      -1.95063848       1.54689872
O        1.25201906      -0.70512336       0.99328430
C        1.33961222       0.27953468       0.23181559
N        0.69390427       0.27771690      -0.92156534
H       -1.15026061      -0.16860747      -1.47125448
H       -1.54162584       0.91997529      -0.28228106
H        1.90305497       1.16696337       0.55925294
H        0.71877690       1.20044258      -1.35101519
10
Frame=3 idx=001692 GeodesicLength=0.16987142141832992 rxn_smarts="[N:1]([C:2](=[O:3])[O:4]/[C:5](=[N:6]/[H:10])[H:9])([H:7])[H:8]>>[C-:2]#[O+:3].[N:1]([N:6]([C:5](=[O:4])[H:9])[H:10])([H:7])[H:8]"
N       -1.32548279      -0.07188822      -0.49251049
C       -0.73027416      -0.96020503       1.18736957
O       -1.16198148      -1.93763136       1.57965596
O        1.23345209      -0.71399677       0.97362182
C        1.34007826       0.28037895       0.22452305
N        0.68643721       0.31637436      -0.92253565
H       -1.13344947      -0.18486406      -1.47862016
H       -1.57944730       0.88821862      -0.28567647
H        1.94481031       1.13957425       0.55238353
H        0.72585734       1.24403926      -1.33821118
10
Frame=4 idx=001692 GeodesicLength=0.22531238092372868 rxn_smarts="[N:1]([C:2](=[O:3])[O:4]/[C:5](=[N:6]/[H:10])[H:9])([H:7])[H:8]>>[C-:2]#[O+:3].[N:1]([N:6]([C:5](=[O:4])[H:9])[H:10])([H:7])[H:8]"
N       -1.30181479      -0.08582197      -0.49775458
C       -0.74358127      -0.95544018       1.19365678
O       -1.17422960      -1.92482961       1.60991269
O        1.21438519      -0.72121571       0.95519143
C        1.34109423       0.28086934       0.21669785
N        0.67826234       0.35512547      -0.92198936
H       -1.11574534      -0.20139340      -1.48437526
H       -1.61686275       0.85496696      -0.29006480
H        1.98554888       1.11076242       0.54320878
H        0.73294312       1.28697667      -1.32448354
10
Frame=5 idx=001692 GeodesicLength=0.28022732520446797 rxn_smarts="[N:1]([C:2](=[O:3])[O:4]/[C:5](=[N:6]/[H:10])[H:9])([H:7])[H:8]>>[C-:2]#[O+:3].[N:1]([N:6]([C:5](=[O:4])[H:9])[H:10])([H:7])[H:8]"
N       -1.27842353      -0.09733662      -0.50165631
C       -0.75712702      -0.95034433       1.19977786
O       -1.18562925      -1.91269469       1.63743989
O        1.19494251      -0.72660037       0.93834531
C        1.34271340       0.28086625       0.20818437
N        0.66942861       0.39360070      -0.91998889
H       -1.09732726      -0.21785816      -1.48832287
H       -1.65348482       0.82061748      -0.29522389
H        2.02445505       1.08111237       0.53187703
H        0.74045232       1.32863736      -1.31043251
10
Frame=6 idx=001692 GeodesicLength=0.3347087187372265 rxn_smarts="[N:1]([C:2](=[O:3])[O:4]/[C:5](=[N:6]/[H:10])[H:9])([H:7])[H:8]>>[C-:2]#[O+:3].[N:1]([N:6]([C:5](=[O:4])[H:9])[H:10])([H:7])[H:8]"
N       -1.25538105      -0.10622206      -0.50418092
C       -0.77073581      -0.94518439       1.20550506
O       -1.19625107      -1.90137217       1.66240757
O        1.17535549      -0.73021001       0.92315612
C        1.34514738       0.27999801       0.19858735
N        0.66009648       0.43138513      -0.91676189
H       -1.07844202      -0.23367447      -1.49047457
H       -1.68889514       0.78540116      -0.30049035
H        2.06016465       1.05154254       0.51908062
H        0.74894110       1.36833625      -1.29682900
10
Frame=7 idx=001692 GeodesicLength=0.38875538939750326 rxn_smarts="[N:1]([C:2](=[O:3])[O:4]/[C:5](=[N:6]/[H:10])[H:9])([H:7])[H:8]>>[C-:2]#[O+:3].[N:1]([N:6]([C:5](=[O:4])[H:9])[H:10])([H:7])[H:8]"
N       -1.23294654      -0.11217018      -0.50501600
C       -0.78446306      -0.94030889       1.21081325
O       -1.20596821      -1.89170668       1.68425739
O        1.15564808      -0.73165306       0.91020604
C        1.34818155       0.27837375       0.18801411
N        0.65035055       0.46810125      -0.91236059
H       -1.05946999      -0.24859004      -1.49050916
H       -1.72282544       0.74995029      -0.30570480
H        2.09256016       1.02272447       0.50492937
H        0.75893291       1.40527910      -1.28462962
10
Frame=8 idx=001692 GeodesicLength=0.44250585253418845 rxn_smarts="[N:1]([C:2](=[O:3])[O:4]/[C:5](=[N:6]/[H:10])[H:9])([H:7])[H:8]>>[C-:2]#[O+:3].[N:1]([N:6]([C:5](=[O:4])[H:9])[H:10])([H:7])[H:8]"
N       -1.21111890      -0.11522778      -0.50433684
C       -0.79801518      -0.93577785       1.21556832
O       -1.21492127      -1.88323818       1.70377098
O        1.13615115      -0.73159955       0.89881157
C        1.35215920       0.27531940       0.17580091
N        0.64035839       0.50375622      -0.90709148
H       -1.04058188      -0.26226088      -1.48864174
H       -1.75517316       0.71420459      -0.31040639
H        2.12032815       0.99549618       0.49079628
H        0.77081351       1.43932785      -1.27427160
10
Frame=9 idx=001692 GeodesicLength=0.4960726931901942 rxn_smarts="[N:1]([C:2](=[O:3])[O:4]/[C:5](=[N:6]/[H:10])[H:9])([H:7])[H:8]>>[C-:2]#[O+:3].[N:1]([N:6]([C:5](=[O:4])[H:9])[H:10])([H:7])[H:8]"
N       -1.19021807      -0.11566906      -0.50224919
C       -0.81202896      -0.93201250       1.21966701
O       -1.22332165      -1.87688204       1.72042151
O        1.11633831      -0.72860464       0.89041460
C        1.35614378       0.27207806       0.16311178
N        0.62988976       0.53900232      -0.90021876
H       -1.02151246      -0.27488240      -1.48483741
H       -1.78659506       0.67775365      -0.31510504
H        2.14707487       0.96840680       0.47441470
H        0.78422948       1.47080982      -1.26561921
10
Frame=10 idx=001692 GeodesicLength=0.5494382826916983 rxn_smarts="[N:1]([C:2](=[O:3])[O:4]/[C:5](=[N:6]/[H:10])[H:9])([H:7])[H:8]>>[C-:2]#[O+:3].[N:1]([N:6]([C:5](=[O:4])[H:9])[H:10])([H:7])[H:8]"
N       -1.17031111      -0.11334937      -0.49868443
C       -0.82634441      -0.92919214       1.22307259
O       -1.23112021      -1.87279005       1.73430700
O        1.09639243      -0.72283525       0.88484293
C        1.36026281       0.26829936       0.14962651
N        0.61908473       0.57376049      -0.89191803
H       -1.00254074      -0.28610976      -1.47905807
H       -1.81675390       0.64089901      -0.31936284
H        2.17167467       0.94217379       0.45675153
H        0.79965574       1.49914392      -1.25957718
10
Frame=11 idx=001692 GeodesicLength=0.6026403735804475 rxn_smarts="[N:1]([C:2](=[O:3])[O:4]/[C:5](=[N:6]/[H:10])[H:9])([H:7])[H:8]>>[C-:2]#[O+:3].[N:1]([N:6]([C:5](=[O:4])[H:9])[H:10])([H:7])[H:8]"
N       -1.15140160      -0.10824819      -0.49362715
C       -0.84065715      -0.92728460       1.22576395
O       -1.23818486      -1.87061934       1.74589866
O        1.07656802      -0.71496865       0.88119102
C        1.36471699       0.26332909       0.13471021
N        0.60809047       0.60811253      -0.88236033
H       -0.98384537      -0.29564111      -1.47130331
H       -1.84533871       0.60381281      -0.32289248
H        2.19260280       0.91763446       0.43937445
H        0.81744939       1.52387300      -1.25675502
10
Frame=12 idx=001692 GeodesicLength=0.6557007005369279 rxn_smarts="[N:1]([C:2](=[O:3])[O:4]/[C:5](=[N:6]/[H:10])[H:9])([H:7])[H:8]>>[C-:2]#[O+:3].[N:1]([N:6]([C:5](=[O:4])[H:9])[H:10])([H:7])[H:8]"
N       -1.13375922      -0.10053951      -0.48711221
C       -0.85578231      -0.92685342       1.22761628
O       -1.24467952      -1.87170591       1.75425284
O        1.05613426      -0.70275566       0.88170914
C        1.36848163       0.25872271       0.11993387
N        0.59659222       0.64298406      -0.87050628
H       -0.96500693      -0.30355483      -1.46146982
H       -1.87293297       0.56605081      -0.32620272
H        2.21378845       0.89264400       0.41914951
H        0.83716439       1.54500776      -1.25737061
10
Frame=13 idx=001692 GeodesicLength=0.7086572678048547 rxn_smarts="[N:1]([C:2](=[O:3])[O:4]/[C:5](=[N:6]/[H:10])[H:9])([H:7])[H:8]>>[C-:2]#[O+:3].[N:1]([N:6]([C:5](=[O:4])[H:9])[H:10])([H:7])[H:8]"
N       -1.11741971      -0.09017297      -0.47910241
C       -0.87189224      -0.92816269       1.22850596
O       -1.25053443      -1.87656920       1.75896403
O        1.03482333      -0.68509604       0.88732445
C        1.37131577       0.25468426       0.10562796
N        0.58454082       0.67899047      -0.85582344
H       -0.94582489      -0.30947047      -1.44949917
H       -1.89956166       0.52740256      -0.32926197
H        2.23586839       0.86642086       0.39530045
H        0.85868461       1.56197323      -1.26203585
10
Frame=14 idx=001692 GeodesicLength=0.7613273470529837 rxn_smarts="[N:1]([C:2](=[O:3])[O:4]/[C:5](=[N:6]/[H:10])[H:9])([H:7])[H:8]>>[C-:2]#[O+:3].[N:1]([N:6]([C:5](=[O:4])[H:9])[H:10])([H:7])[H:8]"
N       -1.10233472      -0.07695535      -0.46943469
C       -0.88849482      -0.93121657       1.22832605
O       -1.25510385      -1.88506174       1.76018804
O        1.01284879      -0.66255611       0.89708791
C        1.37330681       0.25040319       0.09120073
N        0.57230947       0.71597237      -0.83862178
H       -0.92659505      -0.31290780      -1.43530343
H       -1.92430096       0.48883268      -0.33177501
H        2.25643545       0.84006703       0.36991321
H        0.88192888       1.57342231      -1.27158104
10
Frame=15 idx=001692 GeodesicLength=0.8135431857148778 rxn_smarts="[N:1]([C:2](=[O:3])[O:4]/[C:5](=[N:6]/[H:10])[H:9])([H:7])[H:8]>>[C-:2]#[O+:3].[N:1]([N:6]([C:5](=[O:4])[H:9])[H:10])([H:7])[H:8]"
N       -1.08855432      -0.06105691      -0.45832089
C       -0.90605347      -0.93619469       1.22693203
O       -1.25809245      -1.89783778       1.75739602
O        0.98952408      -0.63263715       0.91317492
C        1.37400048       0.24620396       0.07733294
N        0.55990090       0.75490529      -0.81806302
H       -0.90668755      -0.31370661      -1.41905624
H       -1.94740881       0.44987791      -0.33454710
H        2.27781688       0.81107310       0.34045157
H        0.90555426       1.57937288      -1.28530024
10
Frame=16 idx=001692 GeodesicLength=0.8657653829101499 rxn_smarts="[N:1]([C:2](=[O:3])[O:4]/[C:5](=[N:6]/[H:10])[H:9])([H:7])[H:8]>>[C-:2]#[O+:3].[N:1]([N:6]([C:5](=[O:4])[H:9])[H:10])([H:7])[H:8]"
N       -1.07592154      -0.04158829      -0.44528762
C       -0.92433040      -0.94392849       1.22337499
O       -1.25802894      -1.91677312       1.74783258
O        0.96382920      -0.59191436       0.93800656
C        1.37253474       0.24252665       0.06532154
N        0.54787798       0.79550318      -0.79385784
H       -0.88650317      -0.31062263      -1.40032488
H       -1.96788848       0.41200908      -0.33597680
H        2.29924984       0.77895088       0.30687398
H        0.92918078       1.57583710      -1.30596253
