14
Frame=0 idx=006027 GeodesicLength=0.0 rxn_smarts="[C:1]1([H:7])([H:8])[C:2]([H:9])([H:10])[C:3]([H:11])=[C:4]([H:12])[C:5]([H:13])([H:14])[O:6]1>>[C:1]1([H:7])([H:8])[C:2]([H:9])([H:10])[C:3]([H:11])([H:12])[C:4][C:5]([H:13])([H:14])[O:6]1"
C       -0.86139836      -0.89745874      -0.36381399
C       -1.17718738       0.48327190       0.19240668
C        0.09869501       1.28828016       0.28288817
C        1.38428615       0.73642615       0.35674032
C        1.41749993      -0.74461580       0.19233376
O        0.20544469      -1.47745157       0.34145284
H       -1.71327494      -1.57073819      -0.26602175
H       -0.61742552      -0.82175072      -1.43606117
H       -1.92013737       0.99705646      -0.42298804
H       -1.59795450       0.39129236       1.19765678
H       -0.00628880       2.35684250       0.47414921
H        0.80658863       1.36499078      -0.72636572
H        2.09352660      -1.13543559       0.95532182
H        1.88762590      -0.97070973      -0.77769896
14
Frame=1 idx=006027 GeodesicLength=0.03983612245966321 rxn_smarts="[C:1]1([H:7])([H:8])[C:2]([H:9])([H:10])[C:3]([H:11])=[C:4]([H:12])[C:5]([H:13])([H:14])[O:6]1>>[C:1]1([H:7])([H:8])[C:2]([H:9])([H:10])[C:3]([H:11])([H:12])[C:4][C:5]([H:13])([H:14])[O:6]1"
C       -0.86241569      -0.89880647      -0.36222727
C       -1.17799650       0.48303198       0.19095092
C        0.09680705       1.29010557       0.27786927
C        1.37971178       0.73424898       0.35475775
C        1.41649199      -0.74593461       0.19309830
O        0.20521987      -1.47830330       0.34311799
H       -1.71381529      -1.57235403      -0.26200475
H       -0.61921061      -0.82550125      -1.43473971
H       -1.92196221       0.99412152      -0.42551497
H       -1.59915413       0.39227081       1.19619856
H       -0.00789126       2.35562147       0.48448531
H        0.82348021       1.37800515      -0.73158986
H        2.09497968      -1.13674200       0.95394774
H        1.88575512      -0.96976382      -0.77834929
14
Frame=2 idx=006027 GeodesicLength=0.07967115784786846 rxn_smarts="[C:1]1([H:7])([H:8])[C:2]([H:9])([H:10])[C:3]([H:11])=[C:4]([H:12])[C:5]([H:13])([H:14])[O:6]1>>[C:1]1([H:7])([H:8])[C:2]([H:9])([H:10])[C:3]([H:11])([H:12])[C:4][C:5]([H:13])([H:14])[O:6]1"
C       -0.86347161      -0.90017713      -0.36062385
C       -1.17884304       0.48277226       0.18948844
C        0.09486846       1.29195631       0.27271584
C        1.37507703       0.73209854       0.35262924
C        1.41545637      -0.74722815       0.19382543
O        0.20498013      -1.47914368       0.34479303
H       -1.71438287      -1.57399182      -0.25793725
H       -0.62104825      -0.82928249      -1.43339967
H       -1.92385595       0.99113103      -0.42802554
H       -1.60033453       0.39325495       1.19475742
H       -0.00955021       2.35419590       0.49474154
H        0.84085583       1.39121609      -0.73648248
H        2.09641312      -1.13795999       0.95254721
H        1.88383553      -0.96884183      -0.77902936
14
Frame=3 idx=006027 GeodesicLength=0.11950499765262011 rxn_smarts="[C:1]1([H:7])([H:8])[C:2]([H:9])([H:10])[C:3]([H:11])=[C:4]([H:12])[C:5]([H:13])([H:14])[O:6]1>>[C:1]1([H:7])([H:8])[C:2]([H:9])([H:10])[C:3]([H:11])([H:12])[C:4][C:5]([H:13])([H:14])[O:6]1"
C       -0.86456670      -0.90156935      -0.35900576
C       -1.17972782       0.48249098       0.18802480
C        0.09287706       1.29383182       0.26742763
C        1.37038120       0.72997581       0.35034661
C        1.41439254      -0.74849569       0.19451462
O        0.20472560      -1.47997326       0.34647306
H       -1.71497785      -1.57565050      -0.25382587
H       -0.62293887      -0.83308778      -1.43204241
H       -1.92582437       0.98808460      -0.43050643
H       -1.60148953       0.39423892       1.19334116
H       -0.01126776       2.35256825       0.50488676
H        0.85872359       1.40461854      -0.74102096
H        2.09782293      -1.13908585       0.95112438
H        1.88187000      -0.96794651      -0.77973759
14
Frame=4 idx=006027 GeodesicLength=0.15933880973192255 rxn_smarts="[C:1]1([H:7])([H:8])[C:2]([H:9])([H:10])[C:3]([H:11])=[C:4]([H:12])[C:5]([H:13])([H:14])[O:6]1>>[C:1]1([H:7])([H:8])[C:2]([H:9])([H:10])[C:3]([H:11])([H:12])[C:4][C:5]([H:13])([H:14])[O:6]1"
C       -0.86570165      -0.90298177      -0.35737547
C       -1.18065183       0.48218617       0.18656616
C        0.09083053       1.29573153       0.26200744
C        1.36562487       0.72788268       0.34789695
C        1.41330017      -0.74973634       0.19516530
O        0.20445615      -1.48079273       0.34815313
H       -1.71560061      -1.57732961      -0.24967857
H       -0.62488247      -0.83690947      -1.43066992
H       -1.92787291       0.98498221      -0.43294388
H       -1.60261366       0.39521567       1.19195818
H       -0.01304458       2.35074278       0.51488965
H        0.87708940       1.41820562      -0.74518208
H        2.09920458      -1.14011394       0.94968511
H        1.87986201      -0.96708280      -0.78047198
14
Frame=5 idx=006027 GeodesicLength=0.1991543004473067 rxn_smarts="[C:1]1([H:7])([H:8])[C:2]([H:9])([H:10])[C:3]([H:11])=[C:4]([H:12])[C:5]([H:13])([H:14])[O:6]1>>[C:1]1([H:7])([H:8])[C:2]([H:9])([H:10])[C:3]([H:11])([H:12])[C:4][C:5]([H:13])([H:14])[O:6]1"
C       -0.86688059      -0.90441420      -0.35573735
C       -1.18161830       0.48185524       0.18511885
C        0.08872846       1.29765643       0.25646188
C        1.36081583       0.72582636       0.34526292
C        1.41218232      -0.75094819       0.19577766
O        0.20417103      -1.48160512       0.34982930
H       -1.71625766      -1.57903285      -0.24550585
H       -0.62688287      -0.84073753      -1.42928846
H       -1.93001078       0.98182499      -0.43532620
H       -1.60370412       0.39617382       1.19061935
H       -0.01487546       2.34873220       0.52471622
H        0.89595524       1.43196113      -0.74893673
H        2.10055886      -1.14103719       0.94824065
H        1.87781805      -0.96625510      -0.78123223
14
Frame=6 idx=006027 GeodesicLength=0.23898776759160975 rxn_smarts="[C:1]1([H:7])([H:8])[C:2]([H:9])([H:10])[C:3]([H:11])=[C:4]([H:12])[C:5]([H:13])([H:14])[O:6]1>>[C:1]1([H:7])([H:8])[C:2]([H:9])([H:10])[C:3]([H:11])([H:12])[C:4][C:5]([H:13])([H:14])[O:6]1"
C       -0.86809454      -0.90586346      -0.35408720
C       -1.18262004       0.48149807       0.18368731
C        0.08656853       1.29960027       0.25076236
C        1.35592626       0.72378508       0.34247747
C        1.41102802      -0.75213398       0.19634976
O        0.20387298      -1.48240622       0.35149114
H       -1.71693247      -1.58074794      -0.24130302
H       -0.62893256      -0.84457729      -1.42788792
H       -1.93223532       0.97860721      -0.43763262
H       -1.60473916       0.39712401       1.18932862
H       -0.01678220       2.34652021       0.53433130
H        0.91533996       1.44591576      -0.75227679
H        2.10186762      -1.14186688       0.94677279
H        1.87573293      -0.96545485      -0.78201319
14
Frame=7 idx=006027 GeodesicLength=0.2788195292217667 rxn_smarts="[C:1]1([H:7])([H:8])[C:2]([H:9])([H:10])[C:3]([H:11])=[C:4]([H:12])[C:5]([H:13])([H:14])[O:6]1>>[C:1]1([H:7])([H:8])[C:2]([H:9])([H:10])[C:3]([H:11])([H:12])[C:4][C:5]([H:13])([H:14])[O:6]1"
C       -0.86935618      -0.90733677      -0.35242981
C       -1.18366515       0.48111172       0.18227189
C        0.08435272       1.30156983       0.24492437
C        1.35098109       0.72177733       0.33950707
C        1.40984707      -0.75329115       0.19688165
O        0.20355918      -1.48320500       0.35314444
H       -1.71764533      -1.58249327      -0.23707560
H       -0.63104669      -0.84842549      -1.42648227
H       -1.93455928       0.97533117      -0.43987019
H       -1.60572854       0.39805146       1.18809373
H       -0.01874472       2.34413203       0.54372032
H        0.93524662       1.46006031      -0.75516340
H        2.10314673      -1.14259231       0.94529990
H        1.87361248      -0.96468987      -0.78282209
14
Frame=8 idx=006027 GeodesicLength=0.3183961850903323 rxn_smarts="[C:1]1([H:7])([H:8])[C:2]([H:9])([H:10])[C:3]([H:11])=[C:4]([H:12])[C:5]([H:13])([H:14])[O:6]1>>[C:1]1([H:7])([H:8])[C:2]([H:9])([H:10])[C:3]([H:11])([H:12])[C:4][C:5]([H:13])([H:14])[O:6]1"
C       -0.87065715      -0.90882432      -0.35076291
C       -1.18474777       0.48070132       0.18086617
C        0.08207883       1.30355784       0.23891622
C        1.34597464       0.71980218       0.33638667
C        1.40863879      -0.75441213       0.19736456
O        0.20323715      -1.48398863       0.35477826
H       -1.71838259      -1.58424914      -0.23281364
H       -0.63322038      -0.85228472      -1.42506105
H       -1.93698005       0.97199417      -0.44203300
H       -1.60666020       0.39897356       1.18690350
H       -0.02076952       2.34157456       0.55284323
H        0.95563774       1.47431081      -0.75751162
H        2.10439768      -1.14322183       0.94379404
H        1.87145283      -0.96393367      -0.78367044
14
Frame=9 idx=006027 GeodesicLength=0.3580823357990307 rxn_smarts="[C:1]1([H:7])([H:8])[C:2]([H:9])([H:10])[C:3]([H:11])=[C:4]([H:12])[C:5]([H:13])([H:14])[O:6]1>>[C:1]1([H:7])([H:8])[C:2]([H:9])([H:10])[C:3]([H:11])([H:12])[C:4][C:5]([H:13])([H:14])[O:6]1"
C       -0.87200520      -0.91034006      -0.34908049
C       -1.18587604       0.48026102       0.17947214
C        0.07974111       1.30556476       0.23277731
C        1.34090232       0.71785826       0.33304436
C        1.40739927      -0.75550404       0.19779582
O        0.20290084      -1.48476453       0.35641028
H       -1.71915289      -1.58603647      -0.22850854
H       -0.63546081      -0.85616699      -1.42362519
H       -1.93949629       0.96859448      -0.44413588
H       -1.60755652       0.39987944       1.18575959
H       -0.02286226       2.33884004       0.56173411
H        0.97659866       1.48877691      -0.75935265
H        2.10562116      -1.14373459       0.94226637
H        1.86924664      -0.96322822      -0.78455722
14
Frame=10 idx=006027 GeodesicLength=0.3977696994384233 rxn_smarts="[C:1]1([H:7])([H:8])[C:2]([H:9])([H:10])[C:3]([H:11])=[C:4]([H:12])[C:5]([H:13])([H:14])[O:6]1>>[C:1]1([H:7])([H:8])[C:2]([H:9])([H:10])[C:3]([H:11])([H:12])[C:4][C:5]([H:13])([H:14])[O:6]1"
C       -0.87340055      -0.91188558      -0.34737579
C       -1.18704939       0.47979356       0.17807842
C        0.07733631       1.30759118       0.22649289
C        1.33576643       0.71594393       0.32948673
C        1.40613005      -0.75656230       0.19816534
O        0.20255383      -1.48552635       0.35804495
H       -1.71995487      -1.58785326      -0.22413861
H       -0.63777503      -0.86008715      -1.42216787
H       -1.94210548       0.96512723      -0.44619442
H       -1.60842308       0.40078414       1.18464684
H       -0.02502010       2.33592254       0.57037691
H        0.99812986       1.50344347      -0.76060985
H        2.10682802      -1.14413036       0.94069232
H        1.86698401      -0.96256104      -0.78549786
14
Frame=11 idx=006027 GeodesicLength=0.4374566812712212 rxn_smarts="[C:1]1([H:7])([H:8])[C:2]([H:9])([H:10])[C:3]([H:11])=[C:4]([H:12])[C:5]([H:13])([H:14])[O:6]1>>[C:1]1([H:7])([H:8])[C:2]([H:9])([H:10])[C:3]([H:11])([H:12])[C:4][C:5]([H:13])([H:14])[O:6]1"
C       -0.87484504      -0.91346482      -0.34564317
C       -1.18826910       0.47929953       0.17667699
C        0.07486387       1.30963436       0.22004674
C        1.33056218       0.71406292       0.32571570
C        1.40483050      -0.75758468       0.19846643
O        0.20219752      -1.48627163       0.35968771
H       -1.72078806      -1.58970374      -0.21968783
H       -0.64017139      -0.86405988      -1.42068465
H       -1.94481059       0.96158625      -0.44821947
H       -1.60926054       0.40169833       1.18355810
H       -0.02725303       2.33283329       0.57876861
H        1.02026103       1.51831076      -0.76123279
H        2.10802871      -1.14441309       0.93905434
H        1.86465393      -0.96192759      -0.78650672
14
Frame=12 idx=006027 GeodesicLength=0.4771422423719576 rxn_smarts="[C:1]1([H:7])([H:8])[C:2]([H:9])([H:10])[C:3]([H:11])=[C:4]([H:12])[C:5]([H:13])([H:14])[O:6]1>>[C:1]1([H:7])([H:8])[C:2]([H:9])([H:10])[C:3]([H:11])([H:12])[C:4][C:5]([H:13])([H:14])[O:6]1"
C       -0.87634105      -0.91508229      -0.34387595
C       -1.18953647       0.47877957       0.17526085
C        0.07232044       1.31169683       0.21343013
C        1.32528956       0.71221234       0.32171899
C        1.40350067      -0.75857037       0.19869012
O        0.20183349      -1.48699866       0.36134366
H       -1.72165280      -1.59159216      -0.21513597
H       -0.64265829      -0.86809897      -1.41917073
H       -1.94761001       0.95796688      -0.45022457
H       -1.61007313       0.40262908       1.18248541
H       -0.02955977       2.32956580       0.58689546
H        1.04301144       1.53340002      -0.76116033
H        2.10922735      -1.14457927       0.93733789
H        1.86224857      -0.96132882      -0.78759495
14
Frame=13 idx=006027 GeodesicLength=0.5168123313879642 rxn_smarts="[C:1]1([H:7])([H:8])[C:2]([H:9])([H:10])[C:3]([H:11])=[C:4]([H:12])[C:5]([H:13])([H:14])[O:6]1>>[C:1]1([H:7])([H:8])[C:2]([H:9])([H:10])[C:3]([H:11])([H:12])[C:4][C:5]([H:13])([H:14])[O:6]1"
C       -0.87788902      -0.91673810      -0.34207383
C       -1.19085238       0.47823341       0.17383119
C        0.06970420       1.31377481       0.20664180
C        1.31994901       0.71039498       0.31748122
C        1.40214151      -0.75951725       0.19883144
O        0.20146377      -1.48770501       0.36301118
H       -1.72254892      -1.59351779      -0.21048351
H       -0.64523647      -0.87220752      -1.41762599
H       -1.95050580       0.95427047      -0.45220456
H       -1.61085991       0.40357787       1.18143095
H       -0.03193793       2.32613225       0.59473782
H        1.06637625       1.54869064      -0.76035205
H        2.11042449      -1.14462319       0.93554148
H        1.85977121      -0.96076555      -0.78876713
14
Frame=14 idx=006027 GeodesicLength=0.5564916227866328 rxn_smarts="[C:1]1([H:7])([H:8])[C:2]([H:9])([H:10])[C:3]([H:11])=[C:4]([H:12])[C:5]([H:13])([H:14])[O:6]1>>[C:1]1([H:7])([H:8])[C:2]([H:9])([H:10])[C:3]([H:11])([H:12])[C:4][C:5]([H:13])([H:14])[O:6]1"
C       -0.87949713      -0.91844290      -0.34022966
C       -1.19221910       0.47765997       0.17237719
C        0.06701631       1.31587107       0.19967156
C        1.31454370       0.70861554       0.31299319
C        1.40075464      -0.76042345       0.19888140
O        0.20108829      -1.48839273       0.36469899
H       -1.72348435      -1.59549564      -0.20570636
H       -0.64792513      -0.87640812      -1.41604917
H       -1.95349985       0.95048978      -0.45418053
H       -1.61162695       0.40455233       1.18038576
H       -0.03438394       2.32253990       0.60228794
H        1.09039235       1.56421099      -0.75873899
H        2.11163299      -1.14454180       0.93365071
H        1.85720816      -0.96023494      -0.79004204
14
Frame=15 idx=006027 GeodesicLength=0.5961520100437063 rxn_smarts="[C:1]1([H:7])([H:8])[C:2]([H:9])([H:10])[C:3]([H:11])=[C:4]([H:12])[C:5]([H:13])([H:14])[O:6]1>>[C:1]1([H:7])([H:8])[C:2]([H:9])([H:10])[C:3]([H:11])([H:12])[C:4][C:5]([H:13])([H:14])[O:6]1"
C       -0.88115563      -0.92018899      -0.33833161
C       -1.19363501       0.47706360       0.17088859
C        0.06424525       1.31797572       0.19250335
C        1.30905796       0.70686018       0.30823282
C        1.39933606      -0.76128655       0.19882188
O        0.20071508      -1.48904229       0.36640753
H       -1.72443920      -1.59750368      -0.20077340
H       -0.65071738      -0.88071356      -1.41441777
H       -1.95658469       0.94661833      -0.45615972
H       -1.61237907       0.40557398       1.17932783
H       -0.03691812       2.31876407       0.60953195
H        1.11507561       1.57994877      -0.75623075
H        2.11285119      -1.14432547       0.93163043
H        1.85454795      -0.95974412      -0.79143113
14
Frame=16 idx=006027 GeodesicLength=0.6358227468428249 rxn_smarts="[C:1]1([H:7])([H:8])[C:2]([H:9])([H:10])[C:3]([H:11])=[C:4]([H:12])[C:5]([H:13])([H:14])[O:6]1>>[C:1]1([H:7])([H:8])[C:2]([H:9])([H:10])[C:3]([H:11])([H:12])[C:4][C:5]([H:13])([H:14])[O:6]1"
C       -0.88287778      -0.92199077      -0.33638192
C       -1.19510394       0.47644029       0.16936395
C        0.06139616       1.32009740       0.18513172
C        1.30350549       0.70514433       0.30318524
C        1.39789042      -0.76210460       0.19865117
O        0.20034084      -1.48966661       0.36814239
H       -1.72543261      -1.59956752      -0.19568124
H       -0.65363534      -0.88513551      -1.41274664
H       -1.95977187       0.94265271      -0.45814892
H       -1.61311279       0.40663450       1.17826792
H       -0.03952221       2.31483799       0.61644603
H        1.14044509       1.59592232      -0.75277248
H        2.11409083      -1.14396975       0.92948980
H        1.85178773      -0.95929477      -0.79294701
