6
Frame=0 idx=004936 GeodesicLength=0.0 rxn_smarts="[C:1](#[C:2][C:3]#[N:4])[C:5]#[N:6]>>[C:1](#[C-:2])[C:5]#[N+:6][C:3]#[N:4]"
C       -0.96741768      -0.35397855      -1.46548428
C        0.25689555      -0.25408142      -1.03286180
C        0.79407329       0.13106046       0.55110228
N        1.80478448       0.26492124       1.11955100
C       -1.14888466      -0.02936193      -0.14300594
N       -0.73945097       0.24144018       0.97069873
6
Frame=1 idx=004936 GeodesicLength=0.156190163266571 rxn_smarts="[C:1](#[C:2][C:3]#[N:4])[C:5]#[N:6]>>[C:1](#[C-:2])[C:5]#[N+:6][C:3]#[N:4]"
C       -0.96608258      -0.32106547      -1.46549963
C        0.26296661      -0.28189761      -1.05034842
C        0.81197281       0.12948410       0.55952029
N        1.82364323       0.27555922       1.12280019
C       -1.16744690      -0.05442095      -0.13518164
N       -0.76505317       0.25234070       0.96870920
6
Frame=2 idx=004936 GeodesicLength=0.3124005069766014 rxn_smarts="[C:1](#[C:2][C:3]#[N:4])[C:5]#[N:6]>>[C:1](#[C-:2])[C:5]#[N+:6][C:3]#[N:4]"
C       -0.96250211      -0.28952643      -1.46333907
C        0.26843991      -0.31752627      -1.06671798
C        0.83036070       0.13902251       0.56483472
N        1.84306749       0.28424437       1.12597301
C       -1.18724897      -0.06617818      -0.13078269
N       -0.79211702       0.24996399       0.97003200
6
Frame=3 idx=004936 GeodesicLength=0.46851091912791176 rxn_smarts="[C:1](#[C:2][C:3]#[N:4])[C:5]#[N:6]>>[C:1](#[C-:2])[C:5]#[N+:6][C:3]#[N:4]"
C       -0.95842298      -0.26695244      -1.45821098
C        0.27406442      -0.34093935      -1.08715063
C        0.84932189       0.13433665       0.57434367
N        1.86333709       0.29651583       1.12796819
C       -1.20775725      -0.07535139      -0.12706219
N       -0.82054316       0.25239070       0.97011193
6
Frame=4 idx=004936 GeodesicLength=0.6247508462120136 rxn_smarts="[C:1](#[C:2][C:3]#[N:4])[C:5]#[N:6]>>[C:1](#[C-:2])[C:5]#[N+:6][C:3]#[N:4]"
C       -0.95350054      -0.24796442      -1.45154029
C        0.27969422      -0.36254835      -1.10903601
C        0.86900713       0.13174226       0.58369722
N        1.88448404       0.30696823       1.13019530
C       -1.22925731      -0.08131614      -0.12417139
N       -0.85042754       0.25311843       0.97085517
6
Frame=5 idx=004936 GeodesicLength=0.780803191090435 rxn_smarts="[C:1](#[C:2][C:3]#[N:4])[C:5]#[N:6]>>[C:1](#[C-:2])[C:5]#[N+:6][C:3]#[N:4]"
C       -0.94747204      -0.23119467      -1.44356127
C        0.28520488      -0.38518967      -1.13156078
C        0.88947741       0.13833729       0.59058192
N        1.90655929       0.31229037       1.13370933
C       -1.25190223      -0.08470690      -0.12193778
N       -0.88186731       0.25046359       0.97276857
6
Frame=6 idx=004936 GeodesicLength=0.93695999600213 rxn_smarts="[C:1](#[C:2][C:3]#[N:4])[C:5]#[N:6]>>[C:1](#[C-:2])[C:5]#[N+:6][C:3]#[N:4]"
C       -0.94133488      -0.21900833      -1.43397042
C        0.29109458      -0.40347895      -1.15638837
C        0.91087735       0.14622041       0.59758644
N        1.92980932       0.31488996       1.13806853
C       -1.27548763      -0.08788277      -0.11977856
N       -0.91495873       0.24925968       0.97448239
6
Frame=7 idx=004936 GeodesicLength=1.0931189623392792 rxn_smarts="[C:1](#[C:2][C:3]#[N:4])[C:5]#[N:6]>>[C:1](#[C-:2])[C:5]#[N+:6][C:3]#[N:4]"
C       -0.93459393      -0.20878763      -1.42312104
C        0.29721241      -0.41972763      -1.18305202
C        0.93324138       0.15035159       0.60611407
N        1.95424968       0.31916078       1.14186781
C       -1.30016578      -0.08966847      -0.11802487
N       -0.94994376       0.24867136       0.97621604
6
Frame=8 idx=004936 GeodesicLength=1.2493458046718167 rxn_smarts="[C:1](#[C:2][C:3]#[N:4])[C:5]#[N:6]>>[C:1](#[C-:2])[C:5]#[N+:6][C:3]#[N:4]"
C       -0.92713950      -0.20073087      -1.41091392
C        0.30352436      -0.43444784      -1.21150203
C        0.95667570       0.15264926       0.61567622
N        1.98004305       0.32418616       1.14536288
C       -1.32608832      -0.08957954      -0.11684517
N       -0.98701529       0.24792283       0.97822202
6
Frame=9 idx=004936 GeodesicLength=1.4055169036064523 rxn_smarts="[C:1](#[C:2][C:3]#[N:4])[C:5]#[N:6]>>[C:1](#[C-:2])[C:5]#[N+:6][C:3]#[N:4]"
C       -0.91892374      -0.19524218      -1.39713911
C        0.31003940      -0.44813798      -1.24163970
C        0.98129911       0.15807254       0.62474263
N        2.00725982       0.32692717       1.14948781
C       -1.35331222      -0.08796105      -0.11609927
N       -1.02636237       0.24634150       0.98064763
6
Frame=10 idx=004936 GeodesicLength=1.5616895262546655 rxn_smarts="[C:1](#[C:2][C:3]#[N:4])[C:5]#[N:6]>>[C:1](#[C-:2])[C:5]#[N+:6][C:3]#[N:4]"
C       -0.91030005      -0.19382949      -1.38137707
C        0.31698913      -0.45923998      -1.27405594
C        1.00727679       0.16824828       0.63296691
N        2.03605867       0.32557142       1.15483314
C       -1.38180850      -0.08578326      -0.11555130
N       -1.06821603       0.24503303       0.98318426
6
Frame=11 idx=004936 GeodesicLength=1.7180709236027842 rxn_smarts="[C:1](#[C:2][C:3]#[N:4])[C:5]#[N:6]>>[C:1](#[C-:2])[C:5]#[N+:6][C:3]#[N:4]"
C       -0.90092211      -0.19648517      -1.36340489
C        0.32424344      -0.46887001      -1.30855373
C        1.03481072       0.18694488       0.63930678
N        2.06648676       0.31817900       1.16185187
C       -1.41176785      -0.08235594      -0.11539200
N       -1.11285095       0.24258724       0.98619197
6
Frame=12 idx=004936 GeodesicLength=1.8743097822701216 rxn_smarts="[C:1](#[C:2][C:3]#[N:4])[C:5]#[N:6]>>[C:1](#[C-:2])[C:5]#[N+:6][C:3]#[N:4]"
C       -0.89146145      -0.20380856      -1.34268837
C        0.33279422      -0.47096093      -1.34753325
C        1.06387656       0.19030134       0.65087900
N        2.09909131       0.31784645       1.16675231
C       -1.44346349      -0.08006374      -0.11506771
N       -1.16083715       0.24668543       0.98765802
6
Frame=13 idx=004936 GeodesicLength=2.0300618062626956 rxn_smarts="[C:1](#[C:2][C:3]#[N:4])[C:5]#[N:6]>>[C:1](#[C-:2])[C:5]#[N+:6][C:3]#[N:4]"
C       -0.87855048      -0.21230091      -1.31965860
C        0.33973359      -0.47957782      -1.38590679
C        1.09496459       0.20643454       0.65923292
N        2.13339176       0.31296511       1.17227509
C       -1.47711952      -0.06615110      -0.11866993
N       -1.21241994       0.23863019       0.99272730
6
Frame=14 idx=004936 GeodesicLength=2.186092564918241 rxn_smarts="[C:1](#[C:2][C:3]#[N:4])[C:5]#[N:6]>>[C:1](#[C-:2])[C:5]#[N+:6][C:3]#[N:4]"
C       -0.86745533      -0.23689498      -1.29049542
C        0.34931589      -0.46826401      -1.43289745
C        1.12836275       0.21445970       0.67117926
N        2.17058424       0.30518081       1.17886502
C       -1.51276038      -0.06178745      -0.11975953
N       -1.26804717       0.24730593       0.99310813
6
Frame=15 idx=004936 GeodesicLength=2.3419255416135467 rxn_smarts="[C:1](#[C:2][C:3]#[N:4])[C:5]#[N:6]>>[C:1](#[C-:2])[C:5]#[N+:6][C:3]#[N:4]"
C       -0.85005805      -0.26504684      -1.25536342
C        0.35478763      -0.46152141      -1.48078663
C        1.16358022       0.21595986       0.68568874
N        2.21078110       0.30605592       1.18180696
C       -1.54881151      -0.03621305      -0.12687060
N       -1.33027940       0.24076552       0.99552495
6
Frame=16 idx=004936 GeodesicLength=2.496987053711501 rxn_smarts="[C:1](#[C:2][C:3]#[N:4])[C:5]#[N:6]>>[C:1](#[C-:2])[C:5]#[N+:6][C:3]#[N:4]"
C       -0.82855102      -0.31317322      -1.20780251
C        0.35814555      -0.42483796      -1.54038776
C        1.20149111       0.17597845       0.71266382
N        2.25505835       0.32379972       1.17910490
C       -1.58598699      -0.02332682      -0.13323361
N       -1.40015700       0.26155983       0.98965515
