19
Frame=0 idx=011132 GeodesicLength=0.0 rxn_smarts="[C:1]([C:2]([O:3][C:4]([C:5]1([H:15])[C:6]([H:16])([H:17])[C:7]1([H:18])[H:19])([H:13])[H:14])([H:11])[H:12])([H:8])([H:9])[H:10]>>[C:1]([C:2](=[O:3])[H:12])([H:8])([H:9])[H:10].[C:4](=[C:5]1[C:6]([H:16])([H:17])[C:7]1([H:18])[H:19])([H:13])[H:14].[H:11][H:15]"
C        2.58972623       0.48787189       0.66473714
C        1.87728565      -0.63088450      -0.07101129
O        1.51762246      -0.46929301      -1.25917348
C       -0.56042645       0.14682478      -1.55386954
C       -1.20040537       0.00816550      -0.36226884
C       -2.40484016      -0.66011740       0.16907216
C       -2.08971898       0.79046271       0.52033333
H        2.68765624       0.27750812       1.73086512
H        3.58864378       0.60322925       0.23756704
H        2.05349491       1.42755298       0.52612847
H        0.67251605      -0.68273977       0.79107138
H        2.12560756      -1.65513713       0.25958489
H       -0.16675959       1.10129788      -1.87266373
H       -0.56784273      -0.64669205      -2.28672896
H       -0.11522881      -0.41420986       0.45048841
H       -3.22219581      -0.85103792      -0.51572050
H       -2.30143392      -1.39270290       0.96053120
H       -2.69840916       1.56586285       0.07113348
H       -1.78529193       0.99403866       1.53992377
19
Frame=1 idx=011132 GeodesicLength=0.11284572658103077 rxn_smarts="[C:1]([C:2]([O:3][C:4]([C:5]1([H:15])[C:6]([H:16])([H:17])[C:7]1([H:18])[H:19])([H:13])[H:14])([H:11])[H:12])([H:8])([H:9])[H:10]>>[C:1]([C:2](=[O:3])[H:12])([H:8])([H:9])[H:10].[C:4](=[C:5]1[C:6]([H:16])([H:17])[C:7]1([H:18])[H:19])([H:13])[H:14].[H:11][H:15]"
C        2.62488806       0.48448077       0.69560750
C        1.89234557      -0.58743795      -0.08639894
O        1.52880228      -0.35829527      -1.26513799
C       -0.57524326       0.10118471      -1.55665812
C       -1.21232413      -0.01328058      -0.35816395
C       -2.43271901      -0.65045148       0.17516621
C       -2.09538544       0.79980843       0.50318661
H        2.73139415       0.21903473       1.74871446
H        3.62191790       0.61369088       0.26790105
H        2.09690293       1.43548920       0.61422808
H        0.68800323      -0.70429838       0.79276240
H        2.15363448      -1.62986959       0.16892770
H       -0.24176517       1.05904816      -1.93048333
H       -0.57710438      -0.71763925      -2.26235476
H       -0.12632972      -0.43634328       0.46778274
H       -3.24915374      -0.83892448      -0.51146869
H       -2.34697710      -1.37149286       0.97919297
H       -2.68848943       1.57727800       0.03704725
H       -1.79239722       1.01801827       1.52014882
19
Frame=2 idx=011132 GeodesicLength=0.22207884325599175 rxn_smarts="[C:1]([C:2]([O:3][C:4]([C:5]1([H:15])[C:6]([H:16])([H:17])[C:7]1([H:18])[H:19])([H:13])[H:14])([H:11])[H:12])([H:8])([H:9])[H:10]>>[C:1]([C:2](=[O:3])[H:12])([H:8])([H:9])[H:10].[C:4](=[C:5]1[C:6]([H:16])([H:17])[C:7]1([H:18])[H:19])([H:13])[H:14].[H:11][H:15]"
C        2.66113198       0.48050164       0.72200843
C        1.90445587      -0.54265317      -0.09929873
O        1.53197628      -0.24656143      -1.26330444
C       -0.58700338       0.05758445      -1.55569478
C       -1.22421658      -0.03443481      -0.35245105
C       -2.46119772      -0.64097903       0.17846119
C       -2.10246181       0.80788329       0.48594933
H        2.77949781       0.16158079       1.75906454
H        3.65474982       0.62222319       0.29025674
H        2.14278212       1.44001632       0.69949314
H        0.70335174      -0.72442700       0.79667324
H        2.17785415      -1.59790740       0.07944195
H       -0.31116893       1.01252917      -1.98147825
H       -0.57908634      -0.78573716      -2.23314359
H       -0.13908627      -0.45930466       0.48885618
H       -3.27490041      -0.82635436      -0.51229956
H       -2.39491390      -1.35087662       0.99410937
H       -2.67868848       1.58739107       0.00238734
H       -1.80307594       1.03952571       1.50096896
19
Frame=3 idx=011132 GeodesicLength=0.32846608812883415 rxn_smarts="[C:1]([C:2]([O:3][C:4]([C:5]1([H:15])[C:6]([H:16])([H:17])[C:7]1([H:18])[H:19])([H:13])[H:14])([H:11])[H:12])([H:8])([H:9])[H:10]>>[C:1]([C:2](=[O:3])[H:12])([H:8])([H:9])[H:10].[C:4](=[C:5]1[C:6]([H:16])([H:17])[C:7]1([H:18])[H:19])([H:13])[H:14].[H:11][H:15]"
C        2.69816810       0.47641121       0.74344555
C        1.91362388      -0.49740366      -0.10921892
O        1.52749030      -0.13644838      -1.25354499
C       -0.59549768       0.01637973      -1.55096688
C       -1.23600687      -0.05543418      -0.34510124
C       -2.49029507      -0.63183507       0.17871281
C       -2.11071011       0.81452369       0.46892247
H        2.83146153       0.10655528       1.76178074
H        3.68677660       0.62945947       0.30405011
H        2.19101267       1.44146806       0.78033673
H        0.71832503      -0.74323913       0.80323811
H        2.19779729      -1.56006685      -0.00712917
H       -0.37314480       0.96299939      -2.02480282
H       -0.57492090      -0.84971067      -2.20009824
H       -0.15358361      -0.48362142       0.51363990
H       -3.29937599      -0.81320936      -0.51854802
H       -2.44548122      -1.33123315       1.00477455
H       -2.66851541       1.59627592      -0.03228066
H       -1.81712375       1.05812913       1.48278996
19
Frame=4 idx=011132 GeodesicLength=0.43276766999453276 rxn_smarts="[C:1]([C:2]([O:3][C:4]([C:5]1([H:15])[C:6]([H:16])([H:17])[C:7]1([H:18])[H:19])([H:13])[H:14])([H:11])[H:12])([H:8])([H:9])[H:10]>>[C:1]([C:2](=[O:3])[H:12])([H:8])([H:9])[H:10].[C:4](=[C:5]1[C:6]([H:16])([H:17])[C:7]1([H:18])[H:19])([H:13])[H:14].[H:11][H:15]"
C        2.73568231       0.47271312       0.75966592
C        1.92000998      -0.45261794      -0.11578489
O        1.51612867      -0.03024260      -1.23615019
C       -0.60071220      -0.02214954      -1.54264043
C       -1.24765844      -0.07640125      -0.33616606
C       -2.51995846      -0.62314140       0.17579309
C       -2.11983505       0.81960469       0.45242071
H        2.88654375       0.05534022       1.75714397
H        3.71769328       0.63596234       0.30916299
H        2.24146370       1.44046965       0.85524630
H        0.73270083      -0.76089679       0.81281490
H        2.21317998      -1.51751486      -0.08915384
H       -0.42630352       0.91204242      -2.05995940
H       -0.56615086      -0.90862262      -2.16443728
H       -0.16988091      -0.50975025       0.54187690
H       -3.32250614      -0.79940452      -0.53031996
H       -2.49873372      -1.31289146       1.01082473
H       -2.65749013       1.60401728      -0.06633052
H       -1.83417309       1.07348353       1.46599306
19
Frame=5 idx=011132 GeodesicLength=0.5350936841635043 rxn_smarts="[C:1]([C:2]([O:3][C:4]([C:5]1([H:15])[C:6]([H:16])([H:17])[C:7]1([H:18])[H:19])([H:13])[H:14])([H:11])[H:12])([H:8])([H:9])[H:10]>>[C:1]([C:2](=[O:3])[H:12])([H:8])([H:9])[H:10].[C:4](=[C:5]1[C:6]([H:16])([H:17])[C:7]1([H:18])[H:19])([H:13])[H:14].[H:11][H:15]"
C        2.77279844       0.46991649       0.77079782
C        1.92387507      -0.40910615      -0.11891703
O        1.49882128       0.07028701      -1.21179750
C       -0.60277510      -0.05812324      -1.53111761
C       -1.25898819      -0.09750258      -0.32584526
C       -2.54991267      -0.61468228       0.16977419
C       -2.12900408       0.82320725       0.43682177
H        2.94349106       0.00893195       1.74581021
H        3.74652543       0.64279656       0.30616657
H        2.29283957       1.43751316       0.92336363
H        0.74641139      -0.77813212       0.82529954
H        2.22436744      -1.47135087      -0.16545792
H       -0.47018834       0.86086420      -2.08732901
H       -0.55428935      -0.96239522      -2.12720497
H       -0.18775312      -0.53848147       0.57281852
H       -3.34421221      -0.78432339      -0.54724657
H       -2.55438296      -1.29582336       1.01204214
H       -2.64461531       1.61100108      -0.09889598
H       -1.85300836       1.08540295       1.45091745
19
Frame=6 idx=011132 GeodesicLength=0.6362750875958789 rxn_smarts="[C:1]([C:2]([O:3][C:4]([C:5]1([H:15])[C:6]([H:16])([H:17])[C:7]1([H:18])[H:19])([H:13])[H:14])([H:11])[H:12])([H:8])([H:9])[H:10]>>[C:1]([C:2](=[O:3])[H:12])([H:8])([H:9])[H:10].[C:4](=[C:5]1[C:6]([H:16])([H:17])[C:7]1([H:18])[H:19])([H:13])[H:14].[H:11][H:15]"
C        2.80972631       0.46820511       0.77698449
C        1.92555811      -0.36755007      -0.11848453
O        1.47684569       0.16389257      -1.18126482
C       -0.60200576      -0.09125359      -1.51664039
C       -1.27014205      -0.11864727      -0.31424736
C       -2.57993608      -0.60674087       0.16071446
C       -2.13844619       0.82525370       0.42217737
H        3.00184056      -0.03202658       1.72858015
H        3.77366923       0.64958554       0.29546883
H        2.34596714       1.43361833       0.98378321
H        0.75923550      -0.79454622       0.84106947
H        2.23095067      -1.42311724      -0.23510331
H       -0.50462836       0.81121328      -2.10683641
H       -0.54098272      -1.01060397      -2.08955334
H       -0.20734677      -0.56939383       0.60626929
H       -3.36415088      -0.76855085      -0.56913995
H       -2.61194523      -1.28028792       1.00843272
H       -2.63032203       1.61699386      -0.12978732
H       -1.87388715       1.09395600       1.43757745
19
Frame=7 idx=011132 GeodesicLength=0.736548166841736 rxn_smarts="[C:1]([C:2]([O:3][C:4]([C:5]1([H:15])[C:6]([H:16])([H:17])[C:7]1([H:18])[H:19])([H:13])[H:14])([H:11])[H:12])([H:8])([H:9])[H:10]>>[C:1]([C:2](=[O:3])[H:12])([H:8])([H:9])[H:10].[C:4](=[C:5]1[C:6]([H:16])([H:17])[C:7]1([H:18])[H:19])([H:13])[H:14].[H:11][H:15]"
C        2.84613297       0.46768969       0.77869652
C        1.92541635      -0.32824119      -0.11466118
O        1.45121152       0.25033734      -1.14533219
C       -0.59875599      -0.12177369      -1.49961897
C       -1.28110915      -0.13984138      -0.30159005
C       -2.60972403      -0.59920613       0.14886174
C       -2.14783699       0.82591214       0.40855806
H        3.06087120      -0.06759956       1.70628858
H        3.79877436       0.65662536       0.27794777
H        2.40042848       1.42929158       1.03660545
H        0.77116110      -0.81040529       0.85996434
H        2.23321848      -1.37374059      -0.29794297
H       -0.53033195       0.76383110      -2.11936703
H       -0.52725580      -1.05377848      -2.05209375
H       -0.22855487      -0.60251379       0.64167335
H       -3.38213566      -0.75204219      -0.59540382
H       -2.67085787      -1.26610308       1.00019019
H       -2.61442631       1.62213381      -0.15869795
H       -1.89622583       1.09942433       1.42592193
19
Frame=8 idx=011132 GeodesicLength=0.8361423231394047 rxn_smarts="[C:1]([C:2]([O:3][C:4]([C:5]1([H:15])[C:6]([H:16])([H:17])[C:7]1([H:18])[H:19])([H:13])[H:14])([H:11])[H:12])([H:8])([H:9])[H:10]>>[C:1]([C:2](=[O:3])[H:12])([H:8])([H:9])[H:10].[C:4](=[C:5]1[C:6]([H:16])([H:17])[C:7]1([H:18])[H:19])([H:13])[H:14].[H:11][H:15]"
C        2.88169522       0.46847137       0.77642670
C        1.92380541      -0.29135610      -0.10770362
O        1.42280872       0.32964602      -1.10475103
C       -0.59337150      -0.14998346      -1.48042271
C       -1.29189531      -0.16110046      -0.28807820
C       -2.63901660      -0.59192243       0.13448253
C       -2.15685834       0.82536519       0.39601707
H        3.11989366      -0.09792065       1.67972934
H        3.82154892       0.66417894       0.25453451
H        2.45576482       1.42502402       1.08207499
H        0.78222047      -0.82607190       0.88172309
H        2.23158671      -1.32397848      -0.35414065
H       -0.54814274       0.71913598      -2.12576674
H       -0.51386037      -1.09255538      -2.01527796
H       -0.25133614      -0.63792101       0.67852132
H       -3.39802961      -0.73467817      -0.62543375
H       -2.73064043      -1.25301821       0.98756066
H       -2.59672094       1.62658522      -0.18537514
H       -1.91945193       1.10209949       1.41587958
19
Frame=9 idx=011132 GeodesicLength=0.9351015532199742 rxn_smarts="[C:1]([C:2]([O:3][C:4]([C:5]1([H:15])[C:6]([H:16])([H:17])[C:7]1([H:18])[H:19])([H:13])[H:14])([H:11])[H:12])([H:8])([H:9])[H:10]>>[C:1]([C:2](=[O:3])[H:12])([H:8])([H:9])[H:10].[C:4](=[C:5]1[C:6]([H:16])([H:17])[C:7]1([H:18])[H:19])([H:13])[H:14].[H:11][H:15]"
C        2.91596112       0.47066896       0.77066541
C        1.92105603      -0.25704657      -0.09794331
O        1.39238257       0.40189789      -1.06026186
C       -0.58616173      -0.17626621      -1.45939008
C       -1.30246863      -0.18246177      -0.27390246
C       -2.66756062      -0.58463698       0.11786614
C       -2.16509751       0.82383938       0.38462416
H        3.17823780      -0.12312747       1.64960409
H        3.84156029       0.67271208       0.22616861
H        2.51112670       1.42116651       1.12060978
H        0.79246585      -0.84213199       0.90591544
H        2.22668596      -1.27442135      -0.40406514
H       -0.55896536       0.67723545      -2.12684506
H       -0.50130099      -1.12765428      -1.97940384
H       -0.27561002      -0.67581866       0.71630672
H       -3.41172879      -0.71617419      -0.65860820
H       -2.79086739      -1.24066882       0.97082772
H       -2.57685019       1.63059344      -0.20956757
H       -1.94286510       1.10229459       1.40739946
19
Frame=10 idx=011132 GeodesicLength=1.0337026585251687 rxn_smarts="[C:1]([C:2]([O:3][C:4]([C:5]1([H:15])[C:6]([H:16])([H:17])[C:7]1([H:18])[H:19])([H:13])[H:14])([H:11])[H:12])([H:8])([H:9])[H:10]>>[C:1]([C:2](=[O:3])[H:12])([H:8])([H:9])[H:10].[C:4](=[C:5]1[C:6]([H:16])([H:17])[C:7]1([H:18])[H:19])([H:13])[H:14].[H:11][H:15]"
C        2.94878637       0.47426635       0.76183387
C        1.91743154      -0.22527404      -0.08565966
O        1.36046297       0.46751814      -1.01236499
C       -0.57741475      -0.20092622      -1.43675894
C       -1.31287805      -0.20391126      -0.25922210
C       -2.69516037      -0.57720287       0.09925175
C       -2.17242488       0.82148691       0.37433814
H        3.23560116      -0.14360757       1.61642680
H        3.85866290       0.68230090       0.19358482
H        2.56627168       1.41802544       1.15268474
H        0.80201477      -0.85880105       0.93230299
H        2.21883210      -1.22547660      -0.44812809
H       -0.56364834       0.63811412      -2.12330277
H       -0.48983852      -1.15966091      -1.94459477
H       -0.30144834      -0.71613995       0.75466748
H       -3.42310683      -0.69647973      -0.69441393
H       -2.85113636      -1.22876021       0.95025964
H       -2.55481432       1.63421826      -0.23122668
H       -1.96619273       1.10031028       1.40032170
19
Frame=11 idx=011132 GeodesicLength=1.1320535229556201 rxn_smarts="[C:1]([C:2]([O:3][C:4]([C:5]1([H:15])[C:6]([H:16])([H:17])[C:7]1([H:18])[H:19])([H:13])[H:14])([H:11])[H:12])([H:8])([H:9])[H:10]>>[C:1]([C:2](=[O:3])[H:12])([H:8])([H:9])[H:10].[C:4](=[C:5]1[C:6]([H:16])([H:17])[C:7]1([H:18])[H:19])([H:13])[H:14].[H:11][H:15]"
C        2.97993819       0.47927487       0.75029006
C        1.91317018      -0.19603448      -0.07114151
O        1.32749561       0.52680630      -0.96153642
C       -0.56736383      -0.22427061      -1.41272187
C       -1.32313864      -0.22544681      -0.24416797
C       -2.72163610      -0.56943238       0.07886277
C       -2.17866297       0.81847082       0.36515518
H        3.29166559      -0.15962651       1.58062073
H        3.87262313       0.69312930       0.15744593
H        2.62071294       1.41581545       1.17873513
H        0.81097722      -0.87641183       0.96057027
H        2.20845891      -1.17746539      -0.48675490
H       -0.56293553       0.60163460      -2.11571887
H       -0.47960207      -1.18909948      -1.91090437
H       -0.32889916      -0.75891661       0.79327911
H       -3.43205700      -0.67545363      -0.73238928
H       -2.91111452      -1.21696301       0.92610455
H       -2.53051994       1.63756396      -0.25027455
H       -1.98911201       1.09642545       1.39454600
19
Frame=12 idx=011132 GeodesicLength=1.2302616312240438 rxn_smarts="[C:1]([C:2]([O:3][C:4]([C:5]1([H:15])[C:6]([H:16])([H:17])[C:7]1([H:18])[H:19])([H:13])[H:14])([H:11])[H:12])([H:8])([H:9])[H:10]>>[C:1]([C:2](=[O:3])[H:12])([H:8])([H:9])[H:10].[C:4](=[C:5]1[C:6]([H:16])([H:17])[C:7]1([H:18])[H:19])([H:13])[H:14].[H:11][H:15]"
C        3.00915411       0.48575121       0.73636831
C        1.90848140      -0.16931842      -0.05468922
O        1.29382358       0.58000834      -0.90823242
C       -0.55622253      -0.24664122      -1.38745733
C       -1.33326469      -0.24710059      -0.22886270
C       -2.74684393      -0.56109633       0.05690999
C       -2.18358521       0.81494014       0.35710240
H        3.34612732      -0.17134272       1.54257268
H        3.88320058       0.70543344       0.11839868
H        2.67386333       1.41475495       1.19917518
H        0.81950184      -0.89537119       0.99034507
H        2.19603497      -1.13063067      -0.52039552
H       -0.55749839       0.56752227      -2.10461732
H       -0.47064424      -1.21648573      -1.87834063
H       -0.35804333      -0.80428262       0.83181425
H       -3.43851574      -0.65284128      -0.77210745
H       -2.97055475      -1.20491057       0.89859051
H       -2.50376806       1.64075330      -0.26659601
H       -2.01124624       1.09085769       1.39002154
19
Frame=13 idx=011132 GeodesicLength=1.3283866119001966 rxn_smarts="[C:1]([C:2]([O:3][C:4]([C:5]1([H:15])[C:6]([H:16])([H:17])[C:7]1([H:18])[H:19])([H:13])[H:14])([H:11])[H:12])([H:8])([H:9])[H:10]>>[C:1]([C:2](=[O:3])[H:12])([H:8])([H:9])[H:10].[C:4](=[C:5]1[C:6]([H:16])([H:17])[C:7]1([H:18])[H:19])([H:13])[H:14].[H:11][H:15]"
C        3.03614087       0.49378755       0.72038354
C        1.90354244      -0.14513898      -0.03663143
O        1.25972666       0.62726933      -0.85295311
C       -0.54419274      -0.26840287      -1.36112860
C       -1.34326204      -0.26891030      -0.21342395
C       -2.77064170      -0.55191910       0.03360069
C       -2.18692987       0.81103511       0.35022516
H        3.39869348      -0.17882386       1.50263970
H        3.89013946       0.71954975       0.07706914
H        2.72499833       1.41503827       1.21444774
H        0.82775290      -0.91615468       1.02121483
H        2.18204941      -1.08520062      -0.54949063
H       -0.54796314       0.53539725      -2.09044562
H       -0.46297976      -1.24231558      -1.84687438
H       -0.38897428      -0.85240979       0.86991941
H       -3.44243220      -0.62830115      -0.81314814
H       -3.02921920      -1.19219744       0.86792714
H       -2.47428200       1.64390912      -0.28005219
H       -2.03216664       1.08378799       1.38672071
19
Frame=14 idx=011132 GeodesicLength=1.426589144217723 rxn_smarts="[C:1]([C:2]([O:3][C:4]([C:5]1([H:15])[C:6]([H:16])([H:17])[C:7]1([H:18])[H:19])([H:13])[H:14])([H:11])[H:12])([H:8])([H:9])[H:10]>>[C:1]([C:2](=[O:3])[H:12])([H:8])([H:9])[H:10].[C:4](=[C:5]1[C:6]([H:16])([H:17])[C:7]1([H:18])[H:19])([H:13])[H:14].[H:11][H:15]"
C        3.06076246       0.50342661       0.70257460
C        1.89849299      -0.12341972      -0.01720599
O        1.22540168       0.66884291      -0.79603364
C       -0.53143437      -0.28984214      -1.33385450
C       -1.35317638      -0.29092205      -0.19794600
C       -2.79294012      -0.54171816       0.00908340
C       -2.18856871       0.80682897       0.34455875
H        3.44918863      -0.18213346       1.46113127
H        3.89336160       0.73546561       0.03391774
H        2.77380276       1.41692358       1.22481633
H        0.83590950      -0.93895943       1.05290819
H        2.16677988      -1.04131527      -0.57439949
H       -0.53481630       0.50494044      -2.07358089
H       -0.45654863      -1.26696098      -1.81646329
H       -0.42189523      -0.90342627       0.90733908
H       -3.44373705      -0.60162600      -0.85522044
H       -3.08696922      -1.17849110       0.83428051
H       -2.44193385       1.64705464      -0.29054295
H       -2.05167966       1.07533183       1.38463733
19
Frame=15 idx=011132 GeodesicLength=1.5249681006319586 rxn_smarts="[C:1]([C:2]([O:3][C:4]([C:5]1([H:15])[C:6]([H:16])([H:17])[C:7]1([H:18])[H:19])([H:13])[H:14])([H:11])[H:12])([H:8])([H:9])[H:10]>>[C:1]([C:2](=[O:3])[H:12])([H:8])([H:9])[H:10].[C:4](=[C:5]1[C:6]([H:16])([H:17])[C:7]1([H:18])[H:19])([H:13])[H:14].[H:11][H:15]"
C        3.08281708       0.51476270       0.68317311
C        1.89344040      -0.10410395       0.00332334
O        1.19098351       0.70488148      -0.73784910
C       -0.51810310      -0.31130188      -1.30574085
C       -1.36303964      -0.31320824      -0.18252723
C       -2.81364035      -0.53023582      -0.01649564
C       -2.18828830       0.80237960       0.34016170
H        3.49741335      -0.18122610       1.41835112
H        3.89273094       0.75329860      -0.01059932
H        2.81977266       1.42065684       1.23057222
H        0.84416567      -0.96407331       1.08509753
H        2.15054225      -0.99909510      -0.59547853
H       -0.51852759       0.47570741      -2.05433394
H       -0.45128864      -1.29082241      -1.78702503
H       -0.45701617      -0.95753778       0.94374286
H       -3.44236470      -0.57246975      -0.89802059
H       -3.14367788      -1.16337023       0.79778615
H       -2.40644733       1.65020659      -0.29791699
H       -2.06947218       1.06555136       1.38377916
19
Frame=16 idx=011132 GeodesicLength=1.623680105496415 rxn_smarts="[C:1]([C:2]([O:3][C:4]([C:5]1([H:15])[C:6]([H:16])([H:17])[C:7]1([H:18])[H:19])([H:13])[H:14])([H:11])[H:12])([H:8])([H:9])[H:10]>>[C:1]([C:2](=[O:3])[H:12])([H:8])([H:9])[H:10].[C:4](=[C:5]1[C:6]([H:16])([H:17])[C:7]1([H:18])[H:19])([H:13])[H:14].[H:11][H:15]"
C        3.10209450       0.52792237       0.66239712
C        1.88845915      -0.08711897       0.02469291
O        1.15654240       0.73552610      -0.67876398
C       -0.50433589      -0.33316919      -1.27689196
C       -1.37289156      -0.33587341      -0.16726073
C       -2.83265188      -0.51718659      -0.04299687
C       -2.18583854       0.79773169       0.33711169
H        3.54319392      -0.17601207       1.37456949
H        3.88810729       0.77322133      -0.05607483
H        2.86237372       1.42649519       1.23204380
H        0.85273246      -0.99179365       1.11746027
H        2.13361857      -0.95863018      -0.61309916
H       -0.49949556       0.44716766      -2.03301604
H       -0.44713414      -1.31434642      -1.75845834
H       -0.49460823      -1.01499455       0.97879705
H       -3.43823744      -0.54043093      -0.94127361
H       -3.19926984      -1.14635982       0.75857733
H       -2.36745277       1.65336560      -0.30200572
H       -2.08520615       1.05448584       1.38419158
