14
Frame=0 idx=004956 GeodesicLength=0.0 rxn_smarts="[O:1]=[C:2]1[C:3]([H:7])([H:8])[C:4]([H:9])([H:10])[C:5]([H:11])([H:12])[C:6]1([H:13])[H:14]>>[C:3](=[C:4]([H:9])[H:10])([H:7])[H:8].[C:5](=[C:6]([H:13])[H:14])([H:11])[H:12].[O+:1]#[C-:2]"
O       -0.61917278       2.70376554       0.21514939
C       -0.37004364       1.60262362       0.05035109
C       -1.66018099      -0.07083523       0.04234247
C       -0.91996928      -1.21799715       0.01463338
C        1.36286024      -0.67236487      -0.07296252
C        1.51086030       0.68562159      -0.06761572
H       -2.09835817       0.27501243       0.97188229
H       -2.14764704       0.28773214      -0.85706081
H       -0.74409720      -1.77345938       0.92524947
H       -0.80540683      -1.76873037      -0.90834337
H        1.43629078      -1.22461153      -0.99907084
H        1.51453192      -1.24028204       0.83409758
H        1.81237001       1.19781521       0.83937515
H        1.72796273       1.21571002      -0.98802757
14
Frame=1 idx=004956 GeodesicLength=0.0484420519929367 rxn_smarts="[O:1]=[C:2]1[C:3]([H:7])([H:8])[C:4]([H:9])([H:10])[C:5]([H:11])([H:12])[C:6]1([H:13])[H:14]>>[C:3](=[C:4]([H:9])[H:10])([H:7])[H:8].[C:5](=[C:6]([H:13])[H:14])([H:11])[H:12].[O+:1]#[C-:2]"
O       -0.62258127       2.70983979       0.17134995
C       -0.37356748       1.61048221      -0.01191297
C       -1.66142458      -0.06931596       0.06811534
C       -0.91339731      -1.21347635       0.00218373
C        1.35934967      -0.67312988      -0.06529380
C        1.50934407       0.68787208      -0.06191019
H       -2.06840040       0.26181276       1.01736516
H       -2.19872717       0.28921259      -0.80250547
H       -0.76412139      -1.81346251       0.88952853
H       -0.80811863      -1.73264263      -0.94061460
H        1.47507163      -1.22890614      -0.98545961
H        1.50425299      -1.23597110       0.84655753
H        1.79412975       1.20029169       0.85057674
H        1.76819012       1.20739345      -0.97798035
14
Frame=2 idx=004956 GeodesicLength=0.09523139025941119 rxn_smarts="[O:1]=[C:2]1[C:3]([H:7])([H:8])[C:4]([H:9])([H:10])[C:5]([H:11])([H:12])[C:6]1([H:13])[H:14]>>[C:3](=[C:4]([H:9])[H:10])([H:7])[H:8].[C:5](=[C:6]([H:13])[H:14])([H:11])[H:12].[O+:1]#[C-:2]"
O       -0.62612684       2.71442052       0.12829525
C       -0.37731637       1.61654776      -0.07041065
C       -1.66078708      -0.06751810       0.09296827
C       -0.90731254      -1.20919205      -0.00905044
C        1.35567031      -0.67411452      -0.05881858
C        1.50630615       0.69009450      -0.05699437
H       -2.03908270       0.24852822       1.05944404
H       -2.24227765       0.29148844      -0.74863405
H       -0.78421996      -1.85036460       0.85372201
H       -0.81137626      -1.69732501      -0.96988312
H        1.51250784      -1.23283422      -0.97160979
H        1.49396578      -1.23179295       0.85776998
H        1.77576458       1.20244274       0.86042435
H        1.80428474       1.19961924      -0.96722290
14
Frame=3 idx=004956 GeodesicLength=0.14091705154242942 rxn_smarts="[O:1]=[C:2]1[C:3]([H:7])([H:8])[C:4]([H:9])([H:10])[C:5]([H:11])([H:12])[C:6]1([H:13])[H:14]>>[C:3](=[C:4]([H:9])[H:10])([H:7])[H:8].[C:5](=[C:6]([H:13])[H:14])([H:11])[H:12].[O+:1]#[C-:2]"
O       -0.62977388       2.71769306       0.08832696
C       -0.38122911       1.62111527      -0.12385402
C       -1.65867946      -0.06554029       0.11679477
C       -0.90168914      -1.20507224      -0.01992756
C        1.35185750      -0.67531401      -0.05243230
C        1.50211560       0.69223094      -0.05386854
H       -2.01138204       0.23408121       1.09842927
H       -2.27910424       0.29510161      -0.69585739
H       -0.80490975      -1.88494727       0.81673502
H       -0.81451048      -1.66185907      -0.99747683
H        1.55010512      -1.23777299      -0.95533905
H        1.48262914      -1.22624830       0.86986365
H        1.75951093       1.20530782       0.86684411
H        1.83505981       1.19122426      -0.95823810
14
Frame=4 idx=004956 GeodesicLength=0.18591081851390154 rxn_smarts="[O:1]=[C:2]1[C:3]([H:7])([H:8])[C:4]([H:9])([H:10])[C:5]([H:11])([H:12])[C:6]1([H:13])[H:14]>>[C:3](=[C:4]([H:9])[H:10])([H:7])[H:8].[C:5](=[C:6]([H:13])[H:14])([H:11])[H:12].[O+:1]#[C-:2]"
O       -0.63358791       2.71993005       0.04935287
C       -0.38532387       1.62441929      -0.17450769
C       -1.65527350      -0.06338731       0.13989394
C       -0.89639180      -1.20113153      -0.02982581
C        1.34797637      -0.67670443      -0.04706371
C        1.49703348       0.69431259      -0.05145958
H       -1.98494374       0.21909280       1.13490257
H       -2.31037872       0.29935555      -0.64415815
H       -0.82573876      -1.91664132       0.77989512
H       -0.81810925      -1.62723936      -1.02248302
H        1.58676570      -1.24225248      -0.93870640
H        1.47141828      -1.22083860       0.88082525
H        1.74349059       1.20778491       0.87228567
H        1.86306313       1.18329986      -0.94895107
14
Frame=5 idx=004956 GeodesicLength=0.23055748659457362 rxn_smarts="[O:1]=[C:2]1[C:3]([H:7])([H:8])[C:4]([H:9])([H:10])[C:5]([H:11])([H:12])[C:6]1([H:13])[H:14]>>[C:3](=[C:4]([H:9])[H:10])([H:7])[H:8].[C:5](=[C:6]([H:13])[H:14])([H:11])[H:12].[O+:1]#[C-:2]"
O       -0.63758519       2.72126079       0.01048823
C       -0.38960463       1.62656362      -0.22335898
C       -1.65061970      -0.06104081       0.16258312
C       -0.89139847      -1.19735929      -0.03895651
C        1.34405662      -0.67829577      -0.04268203
C        1.49116601       0.69631024      -0.04951165
H       -1.95919440       0.20354945       1.16958869
H       -2.33711750       0.30418971      -0.59299958
H       -0.84672055      -1.94573764       0.74304831
H       -0.82224632      -1.59326496      -1.04531606
H        1.62269965      -1.24610638      -0.92179772
H        1.46037338      -1.21573448       0.89058727
H        1.72715090       1.20972430       0.87727092
H        1.88904022       1.17594122      -0.93894401
14
Frame=6 idx=004956 GeodesicLength=0.27528128142610886 rxn_smarts="[O:1]=[C:2]1[C:3]([H:7])([H:8])[C:4]([H:9])([H:10])[C:5]([H:11])([H:12])[C:6]1([H:13])[H:14]>>[C:3](=[C:4]([H:9])[H:10])([H:7])[H:8].[C:5](=[C:6]([H:13])[H:14])([H:11])[H:12].[O+:1]#[C-:2]"
O       -0.64183416       2.72177541      -0.02852429
C       -0.39412398       1.62762629      -0.27078461
C       -1.64469639      -0.05854456       0.18520538
C       -0.88674250      -1.19374330      -0.04792596
C        1.34008375      -0.68011645      -0.03876451
C        1.48454961       0.69819087      -0.04818617
H       -1.93335116       0.18705217       1.20326509
H       -2.36013491       0.30977951      -0.54154503
H       -0.86813845      -1.97295487       0.70513115
H       -0.82671325      -1.55909940      -1.06695709
H        1.65860038      -1.24977396      -0.90361135
H        1.44886443      -1.21044704       0.90005121
H        1.71068171       1.21151591       0.88138707
H        1.91295492       1.16873943      -0.92874088
14
Frame=7 idx=004956 GeodesicLength=0.3202762036923033 rxn_smarts="[O:1]=[C:2]1[C:3]([H:7])([H:8])[C:4]([H:9])([H:10])[C:5]([H:11])([H:12])[C:6]1([H:13])[H:14]>>[C:3](=[C:4]([H:9])[H:10])([H:7])[H:8].[C:5](=[C:6]([H:13])[H:14])([H:11])[H:12].[O+:1]#[C-:2]"
O       -0.64638603       2.72145851      -0.06947444
C       -0.39884884       1.62750046      -0.31824210
C       -1.63729185      -0.05579848       0.20798500
C       -0.88234025      -1.19031071      -0.05639232
C        1.33614614      -0.68217090      -0.03591357
C        1.47711726       0.69996701      -0.04672499
H       -1.90661054       0.17015984       1.23624793
H       -2.37971474       0.31593996      -0.48944588
H       -0.88993332      -1.99800595       0.66693377
H       -0.83198039      -1.52535401      -1.08690708
H        1.69370208      -1.25231493      -0.88564743
H        1.43767856      -1.20598999       0.90795339
H        1.69237135       1.21242852       0.88619964
H        1.93609057       1.16249066      -0.91657191
14
Frame=8 idx=004956 GeodesicLength=0.3655277373376107 rxn_smarts="[O:1]=[C:2]1[C:3]([H:7])([H:8])[C:4]([H:9])([H:10])[C:5]([H:11])([H:12])[C:6]1([H:13])[H:14]>>[C:3](=[C:4]([H:9])[H:10])([H:7])[H:8].[C:5](=[C:6]([H:13])[H:14])([H:11])[H:12].[O+:1]#[C-:2]"
O       -0.65119226       2.72036759      -0.10923165
C       -0.40381730       1.62648470      -0.36384322
C       -1.62876669      -0.05296467       0.23053263
C       -0.87822071      -1.18697794      -0.06489669
C        1.33219506      -0.68443587      -0.03325813
C        1.46913474       0.70161442      -0.04628324
H       -1.88051557       0.15179708       1.26806581
H       -2.39572541       0.32296725      -0.43757170
H       -0.91234592      -2.02110276       0.62772249
H       -0.83739356      -1.49144260      -1.10587215
H        1.72916097      -1.25498327      -0.86566799
H        1.42581510      -1.20086235       0.91609482
H        1.67481074       1.21350732       0.88941891
H        1.95686080       1.15603110      -0.90520989
14
Frame=9 idx=004956 GeodesicLength=0.41125995722384917 rxn_smarts="[O:1]=[C:2]1[C:3]([H:7])([H:8])[C:4]([H:9])([H:10])[C:5]([H:11])([H:12])[C:6]1([H:13])[H:14]>>[C:3](=[C:4]([H:9])[H:10])([H:7])[H:8].[C:5](=[C:6]([H:13])[H:14])([H:11])[H:12].[O+:1]#[C-:2]"
O       -0.65628454       2.71852541      -0.14932488
C       -0.40901111       1.62450256      -0.40872213
C       -1.61894136      -0.04996318       0.25307919
C       -0.87435022      -1.18376724      -0.07323257
C        1.32828902      -0.68694107      -0.03123598
C        1.46054789       0.70312915      -0.04627692
H       -1.85436816       0.13235751       1.29903788
H       -2.40844488       0.33074093      -0.38551410
H       -0.93533921      -2.04210040       0.58799937
H       -0.84330025      -1.45772924      -1.12358261
H        1.76448906      -1.25708067      -0.84472933
H        1.41379836      -1.19584420       0.92355868
H        1.65666645       1.21420394       0.89224582
H        1.97624896       1.14996651      -0.89330241
14
Frame=10 idx=004956 GeodesicLength=0.45764667146959725 rxn_smarts="[O:1]=[C:2]1[C:3]([H:7])([H:8])[C:4]([H:9])([H:10])[C:5]([H:11])([H:12])[C:6]1([H:13])[H:14]>>[C:3](=[C:4]([H:9])[H:10])([H:7])[H:8].[C:5](=[C:6]([H:13])[H:14])([H:11])[H:12].[O+:1]#[C-:2]"
O       -0.66169381       2.71588252      -0.19055981
C       -0.41440498       1.62146786      -0.45351593
C       -1.60763269      -0.04673089       0.27573425
C       -0.87068294      -1.18069150      -0.08129600
C        1.32449162      -0.68968872      -0.03009162
C        1.45129404       0.70451355      -0.04638182
H       -1.82772873       0.11206684       1.32930079
H       -2.41791837       0.33926837      -0.33307488
H       -0.95901129      -2.06089436       0.54811796
H       -0.84989061      -1.42446505      -1.13991008
H        1.79938288      -1.25822846      -0.82346827
H        1.40196106      -1.19135527       0.92984824
H        1.63710236       1.21420069       0.89532425
H        1.99473146       1.14465441      -0.88002708
14
Frame=11 idx=004956 GeodesicLength=0.5046331298644922 rxn_smarts="[O:1]=[C:2]1[C:3]([H:7])([H:8])[C:4]([H:9])([H:10])[C:5]([H:11])([H:12])[C:6]1([H:13])[H:14]>>[C:3](=[C:4]([H:9])[H:10])([H:7])[H:8].[C:5](=[C:6]([H:13])[H:14])([H:11])[H:12].[O+:1]#[C-:2]"
O       -0.66735763       2.71253961      -0.23118566
C       -0.42005305       1.61761646      -0.49716675
C       -1.59512079      -0.04338378       0.29829644
C       -0.86726500      -1.17767269      -0.08935364
C        1.32074639      -0.69269490      -0.02939447
C        1.44157690       0.70571495      -0.04724615
H       -1.80167871       0.09024919       1.35856100
H       -2.42419470       0.34861074      -0.28080551
H       -0.98329690      -2.07751689       0.50778844
H       -0.85683190      -1.39132646      -1.15520634
H        1.83455162      -1.25898697      -0.80053546
H        1.38974668      -1.18659883       0.93586497
H        1.61768339       1.21401099       0.89741972
H        2.01149370       1.13943858      -0.86703660
14
Frame=12 idx=004956 GeodesicLength=0.5520449303987205 rxn_smarts="[O:1]=[C:2]1[C:3]([H:7])([H:8])[C:4]([H:9])([H:10])[C:5]([H:11])([H:12])[C:6]1([H:13])[H:14]>>[C:3](=[C:4]([H:9])[H:10])([H:7])[H:8].[C:5](=[C:6]([H:13])[H:14])([H:11])[H:12].[O+:1]#[C-:2]"
O       -0.67320193       2.70848108      -0.27138838
C       -0.42583465       1.61296025      -0.53995644
C       -1.58141864      -0.03984425       0.32063313
C       -0.86393920      -1.17473543      -0.09690993
C        1.31721828      -0.69589979      -0.02960568
C        1.43149757       0.70679694      -0.04852976
H       -1.77684633       0.06730154       1.38651126
H       -2.42716096       0.35863903      -0.22938568
H       -1.00820669      -2.09161625       0.46818129
H       -0.86430491      -1.35913708      -1.16886391
H        1.86923802      -1.25883256      -0.77719024
H        1.37797807      -1.18215401       0.94075611
H        1.59786982       1.21322137       0.89925797
H        2.02711154       1.13481917      -0.85350973
14
Frame=13 idx=004956 GeodesicLength=0.5999698411763906 rxn_smarts="[O:1]=[C:2]1[C:3]([H:7])([H:8])[C:4]([H:9])([H:10])[C:5]([H:11])([H:12])[C:6]1([H:13])[H:14]>>[C:3](=[C:4]([H:9])[H:10])([H:7])[H:8].[C:5](=[C:6]([H:13])[H:14])([H:11])[H:12].[O+:1]#[C-:2]"
O       -0.67922860       2.70380847      -0.31067959
C       -0.43179857       1.60763094      -0.58159997
C       -1.56661648      -0.03619098       0.34279373
C       -0.86072441      -1.17185540      -0.10416526
C        1.31389782      -0.69932453      -0.03047926
C        1.42116026       0.70773445      -0.05048851
H       -1.75349647       0.04288238       1.41319556
H       -2.42703198       0.36935681      -0.17879321
H       -1.03375857      -2.10337340       0.42896160
H       -0.87214497      -1.32758403      -1.18120976
H        1.90378460      -1.25800991      -0.75271704
H        1.36632656      -1.17765597       0.94499894
H        1.57826989       1.21209524       0.90035064
H        2.04136091       1.13048592      -0.84016788
14
Frame=14 idx=004956 GeodesicLength=0.6484262229816987 rxn_smarts="[O:1]=[C:2]1[C:3]([H:7])([H:8])[C:4]([H:9])([H:10])[C:5]([H:11])([H:12])[C:6]1([H:13])[H:14]>>[C:3](=[C:4]([H:9])[H:10])([H:7])[H:8].[C:5](=[C:6]([H:13])[H:14])([H:11])[H:12].[O+:1]#[C-:2]"
O       -0.68543324       2.69857469      -0.34880286
C       -0.43799232       1.60170997      -0.62195511
C       -1.55076234      -0.03248518       0.36483354
C       -0.85763725      -1.16898823      -0.11124429
C        1.31077170      -0.70299000      -0.03187658
C        1.41063946       0.70847799      -0.05326456
H       -1.73181142       0.01675185       1.43860217
H       -2.42398277       0.38072628      -0.12899484
H       -1.05988806      -2.11285046       0.38994844
H       -0.88028653      -1.29643938      -1.19243733
H        1.93837557      -1.25656077      -0.72661163
H        1.35459375      -1.17288194       0.94884022
H        1.55927451       1.21074169       0.90042532
H        2.05413893       1.12621347      -0.82746250
14
Frame=15 idx=004956 GeodesicLength=0.6972916748662884 rxn_smarts="[O:1]=[C:2]1[C:3]([H:7])([H:8])[C:4]([H:9])([H:10])[C:5]([H:11])([H:12])[C:6]1([H:13])[H:14]>>[C:3](=[C:4]([H:9])[H:10])([H:7])[H:8].[C:5](=[C:6]([H:13])[H:14])([H:11])[H:12].[O+:1]#[C-:2]"
O       -0.69177326       2.69279995      -0.38578326
C       -0.44434298       1.59523728      -0.66113497
C       -1.53388650      -0.02871727       0.38670557
C       -0.85455217      -1.16618085      -0.11785766
C        1.30796810      -0.70684524      -0.03401523
C        1.40003865       0.70908655      -0.05666888
H       -1.71225482      -0.01078275       1.46252546
H       -2.41804232       0.39261621      -0.08042510
H       -1.08663785      -2.11993350       0.35180477
H       -0.88873666      -1.26614444      -1.20226133
H        1.97249218      -1.25426195      -0.69963272
H        1.34326634      -1.16812175       0.95187299
H        1.54066755       1.20898205       0.89987140
H        2.06579374       1.12226571      -0.81500103
14
Frame=16 idx=004956 GeodesicLength=0.7464644430392532 rxn_smarts="[O:1]=[C:2]1[C:3]([H:7])([H:8])[C:4]([H:9])([H:10])[C:5]([H:11])([H:12])[C:6]1([H:13])[H:14]>>[C:3](=[C:4]([H:9])[H:10])([H:7])[H:8].[C:5](=[C:6]([H:13])[H:14])([H:11])[H:12].[O+:1]#[C-:2]"
O       -0.69816853       2.68656866      -0.42133920
C       -0.45085198       1.58831078      -0.69898472
C       -1.51613005      -0.02491577       0.40840664
C       -0.85146495      -1.16341506      -0.12395981
C        1.30550586      -0.71091584      -0.03689563
C        1.38945923       0.70952733      -0.06073990
H       -1.69531679      -0.03969464       1.48481279
H       -2.40941752       0.40493142      -0.03333672
H       -1.11376433      -2.12463828       0.31477653
H       -0.89746308      -1.23671442      -1.21069314
H        2.00615306      -1.25105369      -0.67175040
H        1.33239973      -1.16336342       0.95411434
H        1.52274716       1.20680609       0.89861958
H        2.07631221       1.11856684      -0.80303036
