12
Frame=0 idx=001419 GeodesicLength=0.0 rxn_smarts="[C:1]([C:2](=[O:3])[C:4]([C:5](=[O:6])[H:12])([H:10])[H:11])([H:7])([H:8])[H:9]>>[C:1]([C:2](=[O:3])[O:6][C:5](=[C:4]([H:10])[H:11])[H:12])([H:7])([H:8])[H:9]"
C        1.43418742       0.05843855      -0.73967300
C        0.29331178       0.82767298      -0.15738011
O        0.20993860       1.96749660       0.10273859
C       -0.69150174      -0.51907788       1.10123504
C       -1.61708853      -0.23876706       0.10081076
O       -1.16708200       0.20489950      -1.00102287
H        1.16229186      -0.96663699      -0.96825958
H        2.26316749       0.08616841      -0.03236704
H        1.72921555       0.57236428      -1.65572721
H        0.10534584      -1.21548329       0.88112270
H       -1.01697484      -0.52404115       2.13561249
H       -2.70481139      -0.25303391       0.23291022
12
Frame=1 idx=001419 GeodesicLength=0.06589521924758696 rxn_smarts="[C:1]([C:2](=[O:3])[C:4]([C:5](=[O:6])[H:12])([H:10])[H:11])([H:7])([H:8])[H:9]>>[C:1]([C:2](=[O:3])[O:6][C:5](=[C:4]([H:10])[H:11])[H:12])([H:7])([H:8])[H:9]"
C        1.44452001       0.06543927      -0.75281332
C        0.28944100       0.81238015      -0.16865445
O        0.20290951       1.94884137       0.11183653
C       -0.69646565      -0.51302013       1.10897881
C       -1.62507115      -0.26058734       0.10222749
O       -1.17872130       0.16898076      -1.00777588
H        1.17726240      -0.95114985      -1.02286580
H        2.26015934       0.05687008      -0.02968507
H        1.76284492       0.61113645      -1.64200976
H        0.10318553      -1.21222661       0.90956057
H       -1.02985696      -0.49824290       2.14088750
H       -2.71020763      -0.22842125       0.25031339
12
Frame=2 idx=001419 GeodesicLength=0.1318494019480529 rxn_smarts="[C:1]([C:2](=[O:3])[C:4]([C:5](=[O:6])[H:12])([H:10])[H:11])([H:7])([H:8])[H:9]>>[C:1]([C:2](=[O:3])[O:6][C:5](=[C:4]([H:10])[H:11])[H:12])([H:7])([H:8])[H:9]"
C        1.45464216       0.07252050      -0.76621060
C        0.28586953       0.79673570      -0.17964827
O        0.19670400       1.92984748       0.12031314
C       -0.70175288      -0.50598851       1.11758201
C       -1.63325592      -0.28182863       0.10498036
O       -1.19009516       0.13169432      -1.01355531
H        1.19203496      -0.93279043      -1.08101482
H        2.25631589       0.02438093      -0.02911249
H        1.79675748       0.65078530      -1.62521404
H        0.10035666      -1.20801623       0.93985746
H       -1.04319393      -0.47097417       2.14655612
H       -2.71438278      -0.20636628       0.26546644
12
Frame=3 idx=001419 GeodesicLength=0.19769483307364422 rxn_smarts="[C:1]([C:2](=[O:3])[C:4]([C:5](=[O:6])[H:12])([H:10])[H:11])([H:7])([H:8])[H:9]>>[C:1]([C:2](=[O:3])[O:6][C:5](=[C:4]([H:10])[H:11])[H:12])([H:7])([H:8])[H:9]"
C        1.46459430       0.07968943      -0.77986665
C        0.28260102       0.78061103      -0.19030958
O        0.19118076       1.91040456       0.12810550
C       -0.70737884      -0.49801135       1.12700375
C       -1.64152364      -0.30269125       0.10900806
O       -1.20101356       0.09275278      -1.01829469
H        1.20675268      -0.91099492      -1.14269866
H        2.25158968      -0.01140019      -0.03108285
H        1.83096741       0.69105252      -1.60501051
H        0.09693273      -1.20268984       0.97209302
H       -1.05712699      -0.44225546       2.15247224
H       -2.71757556      -0.18646730       0.27858039
12
Frame=4 idx=001419 GeodesicLength=0.26337563207399534 rxn_smarts="[C:1]([C:2](=[O:3])[C:4]([C:5](=[O:6])[H:12])([H:10])[H:11])([H:7])([H:8])[H:9]>>[C:1]([C:2](=[O:3])[O:6][C:5](=[C:4]([H:10])[H:11])[H:12])([H:7])([H:8])[H:9]"
C        1.47439225       0.08692848      -0.79378650
C        0.27966231       0.76393339      -0.20057963
O        0.18626636       1.89051486       0.13516456
C       -0.71333199      -0.48908359       1.13723910
C       -1.64978634      -0.32332842       0.11425205
O       -1.21134574       0.05192803      -1.02193540
H        1.22142880      -0.88515487      -1.20789895
H        2.24592963      -0.05067267      -0.03606659
H        1.86550182       0.73163722      -1.58103480
H        0.09300374      -1.19608997       1.00639842
H       -1.07173138      -0.41204769       2.15853835
H       -2.71998945      -0.16856476       0.28970939
12
Frame=5 idx=001419 GeodesicLength=0.3288324805949703 rxn_smarts="[C:1]([C:2](=[O:3])[C:4]([C:5](=[O:6])[H:12])([H:10])[H:11])([H:7])([H:8])[H:9]>>[C:1]([C:2](=[O:3])[O:6][C:5](=[C:4]([H:10])[H:11])[H:12])([H:7])([H:8])[H:9]"
C        1.48404104       0.09422634      -0.80799028
C        0.27708078       0.74662033      -0.21040738
O        0.18186591       1.87016434       0.14141620
C       -0.71961854      -0.47920101       1.14829027
C       -1.65794740      -0.34391988       0.12068010
O       -1.22090895       0.00891896      -1.02439514
H        1.23604895      -0.85454682      -1.27656576
H        2.23921136      -0.09366266      -0.04461627
H        1.90042601       0.77218969      -1.55288505
H        0.08863416      -1.18801924       1.04290566
H       -1.08711049      -0.38030565       2.16466276
H       -2.72172283      -0.15246441       0.29890488
12
Frame=6 idx=001419 GeodesicLength=0.39404688846621927 rxn_smarts="[C:1]([C:2](=[O:3])[C:4]([C:5](=[O:6])[H:12])([H:10])[H:11])([H:7])([H:8])[H:9]>>[C:1]([C:2](=[O:3])[O:6][C:5](=[C:4]([H:10])[H:11])[H:12])([H:7])([H:8])[H:9]"
C        1.49353229       0.10156441      -0.82250487
C        0.27490213       0.72861594      -0.21974006
O        0.17792058       1.84938834       0.14677736
C       -0.72624119      -0.46834000       1.16017575
C       -1.66591220      -0.36463570       0.12827206
O       -1.22951087      -0.03658338      -1.02557693
H        1.25052521      -0.81834443      -1.34857974
H        2.23125653      -0.14063172      -0.05739111
H        1.93583293       0.81226587      -1.52011479
H        0.08388223      -1.17824918       1.08176946
H       -1.10335830      -0.34696126       2.17076734
H       -2.72282934      -0.13808890       0.30614552
12
Frame=7 idx=001419 GeodesicLength=0.45901053808127773 rxn_smarts="[C:1]([C:2](=[O:3])[C:4]([C:5](=[O:6])[H:12])([H:10])[H:11])([H:7])([H:8])[H:9]>>[C:1]([C:2](=[O:3])[O:6][C:5](=[C:4]([H:10])[H:11])[H:12])([H:7])([H:8])[H:9]"
C        1.50283536       0.10890126      -0.83735466
C        0.27316728       0.70989372      -0.22850759
O        0.17435326       1.82828224       0.15118443
C       -0.73317687      -0.45645513       1.17291502
C       -1.67356891      -0.38563569       0.13699664
O       -1.23694728      -0.08488522      -1.02537575
H        1.26470050      -0.77562761      -1.42370073
H        2.22182241      -0.19185905      -0.07518414
H        1.97182550       0.85126738      -1.48221825
H        0.07885262      -1.16651994       1.12315140
H       -1.12054003      -0.31191117       2.17676714
H       -2.72332385      -0.12545079       0.31132650
12
Frame=8 idx=001419 GeodesicLength=0.5236704781084178 rxn_smarts="[C:1]([C:2](=[O:3])[C:4]([C:5](=[O:6])[H:12])([H:10])[H:11])([H:7])([H:8])[H:9]>>[C:1]([C:2](=[O:3])[O:6][C:5](=[C:4]([H:10])[H:11])[H:12])([H:7])([H:8])[H:9]"
C        1.51191184       0.11618928      -0.85255689
C        0.27192777       0.69042971      -0.23662686
O        0.17110033       1.80691812       0.15457147
C       -0.74040236      -0.44347996       1.18649419
C       -1.68079134      -0.40707542       0.14684193
O       -1.24297470      -0.13630763      -1.02361462
H        1.27837812      -0.72536472      -1.50147393
H        2.21059381      -0.24754155      -0.09896119
H        2.00851645       0.88839359      -1.43865935
H        0.07365378      -1.15248931       1.16715997
H       -1.13872943      -0.27504907       2.18250492
H       -2.72318427      -0.11462303       0.31432037
12
Frame=9 idx=001419 GeodesicLength=0.5878564566099084 rxn_smarts="[C:1]([C:2](=[O:3])[C:4]([C:5](=[O:6])[H:12])([H:10])[H:11])([H:7])([H:8])[H:9]>>[C:1]([C:2](=[O:3])[O:6][C:5](=[C:4]([H:10])[H:11])[H:12])([H:7])([H:8])[H:9]"
C        1.52072739       0.12340049      -0.86813819
C        0.27128487       0.67019345      -0.24399253
O        0.16818252       1.78529130       0.15688861
C       -0.74796500      -0.42935924       1.20087228
C       -1.68740865      -0.42908238       0.15783800
O       -1.24720170      -0.19114411      -1.02001912
H        1.29137996      -0.66650162      -1.58106235
H        2.19721370      -0.30760764      -0.12990093
H        2.04592481       0.92261270      -1.38908575
H        0.06826500      -1.13573719       1.21381475
H       -1.15812423      -0.23635860       2.18776982
H       -2.72227866      -0.10570716       0.31501540
12
Frame=10 idx=001419 GeodesicLength=0.651516749889247 rxn_smarts="[C:1]([C:2](=[O:3])[C:4]([C:5](=[O:6])[H:12])([H:10])[H:11])([H:7])([H:8])[H:9]>>[C:1]([C:2](=[O:3])[O:6][C:5](=[C:4]([H:10])[H:11])[H:12])([H:7])([H:8])[H:9]"
C        1.52922358       0.13043813      -0.88407897
C        0.27130092       0.64922974      -0.25043743
O        0.16557837       1.76354238       0.15823468
C       -0.75581439      -0.41405584       1.21594562
C       -1.69327394      -0.45173856       0.16990466
O       -1.24936099      -0.24953222      -1.01436645
H        1.30344120      -0.59822753      -1.66120003
H        2.18140406      -0.37164925      -0.16920097
H        2.08397287       0.95258825      -1.33329240
H        0.06284611      -1.11592594       1.26303133
H       -1.17876074      -0.19581488       2.19229109
H       -2.72055705      -0.09885427       0.31316886
12
Frame=11 idx=001419 GeodesicLength=0.7144239433685121 rxn_smarts="[C:1]([C:2](=[O:3])[C:4]([C:5](=[O:6])[H:12])([H:10])[H:11])([H:7])([H:8])[H:9]>>[C:1]([C:2](=[O:3])[O:6][C:5](=[C:4]([H:10])[H:11])[H:12])([H:7])([H:8])[H:9]"
C        1.53737536       0.13727976      -0.90037366
C        0.27216451       0.62755696      -0.25576096
O        0.16355364       1.74160541       0.15882166
C       -0.76408349      -0.39764741       1.23157281
C       -1.69820134      -0.47499558       0.18300674
O       -1.24896240      -0.31136461      -1.00634665
H        1.31443747      -0.52024098      -1.73988937
H        2.16304999      -0.43840285      -0.21802006
H        2.12221251       0.97683643      -1.27194782
H        0.05714244      -1.09278903       1.31450534
H       -1.20091586      -0.15371667       2.19578203
H       -2.71777285      -0.09412141       0.30864994
12
Frame=12 idx=001419 GeodesicLength=0.776513020053555 rxn_smarts="[C:1]([C:2](=[O:3])[C:4]([C:5](=[O:6])[H:12])([H:10])[H:11])([H:7])([H:8])[H:9]>>[C:1]([C:2](=[O:3])[O:6][C:5](=[C:4]([H:10])[H:11])[H:12])([H:7])([H:8])[H:9]"
C        1.54516389       0.14384846      -0.91698772
C        0.27398718       0.60517909      -0.25968483
O        0.16221588       1.71938211       0.15912478
C       -0.77287004      -0.38024401       1.24753058
C       -1.70202244      -0.49872588       0.19703380
O       -1.24559081      -0.37636392      -0.99567285
H        1.32425374      -0.43290785      -1.81494103
H        2.14230895      -0.50620166      -0.27724297
H        2.16004928       0.99394437      -1.20610846
H        0.05098880      -1.06616340       1.36771918
H       -1.22479608      -0.11031255       2.19789221
H       -2.71368836      -0.09143477       0.30133731
12
Frame=13 idx=001419 GeodesicLength=0.8391263847017579 rxn_smarts="[C:1]([C:2](=[O:3])[C:4]([C:5](=[O:6])[H:12])([H:10])[H:11])([H:7])([H:8])[H:9]>>[C:1]([C:2](=[O:3])[O:6][C:5](=[C:4]([H:10])[H:11])[H:12])([H:7])([H:8])[H:9]"
C        1.55250601       0.14989691      -0.93392356
C        0.27679387       0.58242100      -0.26199193
O        0.16175531       1.69780410       0.15970233
C       -0.78180145      -0.36208254       1.26376417
C       -1.70499258      -0.52307430       0.21138652
O       -1.23993544      -0.44410180      -0.98287551
H        1.33229886      -0.33715448      -1.88450037
H        2.11958850      -0.57306593      -0.34687904
H        2.19739000       1.00244143      -1.13663103
H        0.04505319      -1.03666102       1.42273279
H       -1.24976076      -0.06552846       2.19862308
H       -2.70889550      -0.09089490       0.29059255
12
Frame=14 idx=001419 GeodesicLength=0.9004849969036445 rxn_smarts="[C:1]([C:2](=[O:3])[C:4]([C:5](=[O:6])[H:12])([H:10])[H:11])([H:7])([H:8])[H:9]>>[C:1]([C:2](=[O:3])[O:6][C:5](=[C:4]([H:10])[H:11])[H:12])([H:7])([H:8])[H:9]"
C        1.55945873       0.15582113      -0.95096455
C        0.28121988       0.55904156      -0.26242763
O        0.16379930       1.67549254       0.16122393
C       -0.79166963      -0.34372112       1.27966261
C       -1.70694607      -0.54697485       0.22632047
O       -1.23117345      -0.51286900      -0.96698007
H        1.33912447      -0.23665470      -1.94474946
H        2.09606107      -0.63467792      -0.42556067
H        2.23198698       1.00258418      -1.06875387
H        0.03698254      -1.00488891       1.47782122
H       -1.27656285      -0.02127922       2.19717800
H       -2.70228097      -0.09187369       0.27723003
12
Frame=15 idx=001419 GeodesicLength=0.9622172822802081 rxn_smarts="[C:1]([C:2](=[O:3])[C:4]([C:5](=[O:6])[H:12])([H:10])[H:11])([H:7])([H:8])[H:9]>>[C:1]([C:2](=[O:3])[O:6][C:5](=[C:4]([H:10])[H:11])[H:12])([H:7])([H:8])[H:9]"
C        1.56611960       0.16142455      -0.96829471
C        0.28717024       0.53511017      -0.26071522
O        0.16802273       1.65308351       0.16465383
C       -0.80216772      -0.32535423       1.29529204
C       -1.70839068      -0.57053181       0.24123446
O       -1.22027013      -0.58240310      -0.94872982
H        1.34434363      -0.13340724      -1.99557023
H        2.07285443      -0.68955501      -0.51200702
H        2.26420568       0.99450974      -1.00371493
H        0.02751668      -0.97170125       1.53309394
H       -1.30468855       0.02279447       2.19388667
H       -2.69471591      -0.09396981       0.26087099
12
Frame=16 idx=001419 GeodesicLength=1.0240758250704687 rxn_smarts="[C:1]([C:2](=[O:3])[C:4]([C:5](=[O:6])[H:12])([H:10])[H:11])([H:7])([H:8])[H:9]>>[C:1]([C:2](=[O:3])[O:6][C:5](=[C:4]([H:10])[H:11])[H:12])([H:7])([H:8])[H:9]"
C        1.57241227       0.16684500      -0.98597109
C        0.29488321       0.51038386      -0.25668235
O        0.17479570       1.63010484       0.17028989
C       -0.81347301      -0.30713648       1.31055272
C       -1.70932115      -0.59354928       0.25612145
O       -1.20713858      -0.65230939      -0.92785392
H        1.34774245      -0.02894813      -2.03661091
H        2.05019377      -0.73652014      -0.60501417
H        2.29398054       0.97899718      -0.94335506
H        0.01596320      -0.93743061       1.58840892
H       -1.33424708       0.06649109       2.18847748
H       -2.68579132      -0.09692794       0.24163703
