17
Frame=0 idx=009574 GeodesicLength=0.0 rxn_smarts="[C:1]1([H:8])([H:9])[C:2]([H:10])([H:11])[C:3]12[C:4]([H:12])([H:13])[C@@:5]1([H:14])[C:6]([H:15])([H:16])[C@@:7]21[H:17]>>[C:1]1([H:8])([H:9])[C:2]([H:11])=[C:3]1[C:7]([C:6]([C:5](=[C:4]([H:12])[H:13])[H:14])([H:15])[H:16])([H:10])[H:17]"
C       -1.99861102      -0.37719063      -0.03203855
C       -1.48289121       0.93632011      -0.53034103
C       -0.52707408      -0.12526363      -0.18866659
C        0.56907986      -0.91081805      -0.96071645
C        1.62033652      -0.64257912       0.05793376
C        1.63024094       0.73719578       0.49121536
C        0.18455446       0.46181198       0.99309127
H       -2.44306179      -1.06135161      -0.75183123
H       -2.43824825      -0.45209761       0.95948714
H       -0.56500774       1.45422309       0.86413866
H       -1.77833862       1.39697310      -1.46581304
H        0.35596549      -1.96980459      -1.09879021
H        0.78695490      -0.45599019      -1.93086849
H        2.06491754      -1.42564492       0.65933538
H        1.60020299       1.49140066      -0.30011613
H        2.32957301       0.99461216       1.28053475
H        0.09140700      -0.05179647       1.95344545
17
Frame=1 idx=009574 GeodesicLength=0.12286192319592408 rxn_smarts="[C:1]1([H:8])([H:9])[C:2]([H:10])([H:11])[C:3]12[C:4]([H:12])([H:13])[C@@:5]1([H:14])[C:6]([H:15])([H:16])[C@@:7]21[H:17]>>[C:1]1([H:8])([H:9])[C:2]([H:11])=[C:3]1[C:7]([C:6]([C:5](=[C:4]([H:12])[H:13])[H:14])([H:15])[H:16])([H:10])[H:17]"
C       -2.00281292      -0.38745022      -0.03860744
C       -1.49761440       0.93650686      -0.52069610
C       -0.53550784      -0.11353812      -0.18446073
C        0.58346905      -0.91945368      -0.96477828
C        1.61572152      -0.65264407       0.06774984
C        1.63794154       0.73346935       0.48909234
C        0.19275418       0.47009943       0.98881665
H       -2.43505997      -1.07036590      -0.76679782
H       -2.44625252      -0.47456687       0.95019678
H       -0.56370634       1.48578304       0.84060351
H       -1.83447805       1.43247472      -1.42229792
H        0.37197587      -1.97811643      -1.10788240
H        0.81047991      -0.46430956      -1.93256531
H        2.05124988      -1.43469128       0.67707584
H        1.62024957       1.47940937      -0.30987506
H        2.33797511       0.98748693       1.27899262
H        0.09361539      -0.03009358       1.95543347
17
Frame=2 idx=009574 GeodesicLength=0.24564933891055935 rxn_smarts="[C:1]1([H:8])([H:9])[C:2]([H:10])([H:11])[C:3]12[C:4]([H:12])([H:13])[C@@:5]1([H:14])[C:6]([H:15])([H:16])[C@@:7]21[H:17]>>[C:1]1([H:8])([H:9])[C:2]([H:11])=[C:3]1[C:7]([C:6]([C:5](=[C:4]([H:12])[H:13])[H:14])([H:15])[H:16])([H:10])[H:17]"
C       -2.00683038      -0.39755524      -0.04609762
C       -1.51234493       0.93686986      -0.51122142
C       -0.54409648      -0.10157818      -0.18022973
C        0.59847084      -0.92887899      -0.96871564
C        1.61088537      -0.66274288       0.07778946
C        1.64563379       0.72962040       0.48673105
C        0.20097894       0.47844037       0.98419485
H       -2.42652836      -1.07855717      -0.78320435
H       -2.45426346      -0.49754809       0.93965890
H       -0.56207501       1.51817561       0.81492379
H       -1.89281507       1.46855318      -1.37306001
H        0.38867024      -1.98726890      -1.11634798
H        0.83474607      -0.47365255      -1.93411443
H        2.03726250      -1.44345266       0.69527948
H        1.64034753       1.46683942      -0.31994661
H        2.34625388       0.98042031       1.27724398
H        0.09570453      -0.00768449       1.95711629
17
Frame=3 idx=009574 GeodesicLength=0.3683287632232404 rxn_smarts="[C:1]1([H:8])([H:9])[C:2]([H:10])([H:11])[C:3]12[C:4]([H:12])([H:13])[C@@:5]1([H:14])[C:6]([H:15])([H:16])[C@@:7]21[H:17]>>[C:1]1([H:8])([H:9])[C:2]([H:11])=[C:3]1[C:7]([C:6]([C:5](=[C:4]([H:12])[H:13])[H:14])([H:15])[H:16])([H:10])[H:17]"
C       -2.01067368      -0.40743930      -0.05462152
C       -1.52709236       0.93746067      -0.50200966
C       -0.55286691      -0.08935491      -0.17599970
C        0.61411091      -0.93914293      -0.97250327
C        1.60579962      -0.67285314       0.08806049
C        1.65328666       0.72566364       0.48410745
C        0.20919709       0.48685477       0.97918853
H       -2.41745632      -1.08580789      -0.80117993
H       -2.46230213      -0.52100602       0.92772062
H       -0.56010940       1.55139974       0.78683589
H       -1.95317465       1.50490500      -1.31729873
H        0.40607005      -1.99732098      -1.12412140
H        0.85978775      -0.48409597      -1.93549710
H        2.02294017      -1.45187783       0.71396543
H        1.66046828       1.45368037      -0.33035667
H        2.35437067       0.97344754       1.27526759
H        0.09764424       0.01548725       1.95844199
17
Frame=4 idx=009574 GeodesicLength=0.49095060568982385 rxn_smarts="[C:1]1([H:8])([H:9])[C:2]([H:10])([H:11])[C:3]12[C:4]([H:12])([H:13])[C@@:5]1([H:14])[C:6]([H:15])([H:16])[C@@:7]21[H:17]>>[C:1]1([H:8])([H:9])[C:2]([H:11])=[C:3]1[C:7]([C:6]([C:5](=[C:4]([H:12])[H:13])[H:14])([H:15])[H:16])([H:10])[H:17]"
C       -2.01439823      -0.41703689      -0.06429948
C       -1.54190412       0.93835571      -0.49319666
C       -0.56186427      -0.07681343      -0.17182595
C        0.63043243      -0.95027304      -0.97611592
C        1.60046479      -0.68296017       0.09860253
C        1.66093032       0.72161163       0.48120037
C        0.21737704       0.49537078       0.97374638
H       -2.40789387      -1.09200336      -0.82086001
H       -2.47043037      -0.54494125       0.91423538
H       -0.55780474       1.58546431       0.75599062
H       -2.01548505       1.54115717      -1.25414120
H        0.42419049      -2.00831263      -1.13113377
H        0.88569477      -0.49566830      -1.93670606
H        2.00826077      -1.45994641       0.73322903
H        1.68068393       1.43993460      -0.34115583
H        2.36236518       0.96658116       1.27306272
H        0.09938094       0.03948011       1.95936783
17
Frame=5 idx=009574 GeodesicLength=0.6131707174969063 rxn_smarts="[C:1]1([H:8])([H:9])[C:2]([H:10])([H:11])[C:3]12[C:4]([H:12])([H:13])[C@@:5]1([H:14])[C:6]([H:15])([H:16])[C@@:7]21[H:17]>>[C:1]1([H:8])([H:9])[C:2]([H:11])=[C:3]1[C:7]([C:6]([C:5](=[C:4]([H:12])[H:13])[H:14])([H:15])[H:16])([H:10])[H:17]"
C       -2.01793040      -0.42624507      -0.07525340
C       -1.55677756       0.93959735      -0.48474001
C       -0.57113064      -0.06394763      -0.16765065
C        0.64734639      -0.96234757      -0.97950327
C        1.59468782      -0.69295681       0.10930803
C        1.66828104       0.71753478       0.47793284
C        0.22543194       0.50400293       0.96785716
H       -2.39766622      -1.09695450      -0.84238886
H       -2.47858130      -0.56926208       0.89897511
H       -0.55520603       1.62026510       0.72227627
H       -2.07826704       1.57666555      -1.18264036
H        0.44299577      -2.02031992      -1.13727965
H        0.91226706      -0.50855798      -1.93765977
H        1.99314347      -1.46743105       0.75284903
H        1.70059325       1.42558639      -0.35233590
H        2.36990788       0.95999423       1.27047181
H        0.10090457       0.06437630       1.95978162
17
Frame=6 idx=009574 GeodesicLength=0.7353217216372746 rxn_smarts="[C:1]1([H:8])([H:9])[C:2]([H:10])([H:11])[C:3]12[C:4]([H:12])([H:13])[C@@:5]1([H:14])[C:6]([H:15])([H:16])[C@@:7]21[H:17]>>[C:1]1([H:8])([H:9])[C:2]([H:11])=[C:3]1[C:7]([C:6]([C:5](=[C:4]([H:12])[H:13])[H:14])([H:15])[H:16])([H:10])[H:17]"
C       -2.02142415      -0.43494462      -0.08757398
C       -1.57186128       0.94139304      -0.47679965
C       -0.58076313      -0.05062491      -0.16355774
C        0.66491556      -0.97535177      -0.98266834
C        1.58854436      -0.70284890       0.12024914
C        1.67547362       0.71344917       0.47431291
C        0.23332643       0.51278122       0.96150928
H       -2.38695508      -1.10050033      -0.86588856
H       -2.48690118      -0.59397268       0.88187646
H       -0.55234612       1.65584400       0.68529068
H       -2.14151283       1.61070316      -1.10214706
H        0.46248180      -2.03336018      -1.14251364
H        0.93964857      -0.52268356      -1.93843310
H        1.97764378      -1.47440501       0.77301005
H        1.72039703       1.41071475      -0.36397059
H        2.37718838       0.95364490       1.26757282
H        0.10214422       0.09016172       1.95973132
17
Frame=7 idx=009574 GeodesicLength=0.8573471320335707 rxn_smarts="[C:1]1([H:8])([H:9])[C:2]([H:10])([H:11])[C:3]12[C:4]([H:12])([H:13])[C@@:5]1([H:14])[C:6]([H:15])([H:16])[C@@:7]21[H:17]>>[C:1]1([H:8])([H:9])[C:2]([H:11])=[C:3]1[C:7]([C:6]([C:5](=[C:4]([H:12])[H:13])[H:14])([H:15])[H:16])([H:10])[H:17]"
C       -2.02493409      -0.44304146      -0.10131700
C       -1.58734898       0.94387572      -0.46922552
C       -0.59087598      -0.03673419      -0.15949690
C        0.68305582      -0.98926107      -0.98557816
C        1.58190821      -0.71255240       0.13136742
C        1.68237266       0.70941460       0.47030596
C        0.24098278       0.52174614       0.95472367
H       -2.37576328      -1.10242167      -0.89144682
H       -2.49540384      -0.61912772       0.86280348
H       -0.54924847       1.69215823       0.64480996
H       -2.20377440       1.64226284      -1.01221511
H        0.48256641      -2.04741161      -1.14678776
H        0.96769234      -0.53802667      -1.93898096
H        1.96169232      -1.48075586       0.79360267
H        1.73990818       1.39536664      -0.37605102
H        2.38408807       0.94760766       1.26429382
H        0.10308226       0.11690083       1.95919227
17
Frame=8 idx=009574 GeodesicLength=0.9793696387587908 rxn_smarts="[C:1]1([H:8])([H:9])[C:2]([H:10])([H:11])[C:3]12[C:4]([H:12])([H:13])[C@@:5]1([H:14])[C:6]([H:15])([H:16])[C@@:7]21[H:17]>>[C:1]1([H:8])([H:9])[C:2]([H:11])=[C:3]1[C:7]([C:6]([C:5](=[C:4]([H:12])[H:13])[H:14])([H:15])[H:16])([H:10])[H:17]"
C       -2.02871584      -0.45048173      -0.11642583
C       -1.60360993       0.94723380      -0.46166376
C       -0.60166508      -0.02213277      -0.15534334
C        0.70168052      -1.00392461      -0.98815870
C        1.57474768      -0.72197297       0.14262761
C        1.68901522       0.70550043       0.46588956
C        0.24835771       0.53088698       0.94755657
H       -2.36433899      -1.10246655      -0.91903392
H       -2.50431580      -0.64498216       0.84172231
H       -0.54592029       1.72914890       0.60059107
H       -2.26354523       1.67018670      -0.91324054
H        0.50310715      -2.06233367      -1.15002521
H        0.99627386      -0.55430544      -1.93921035
H        1.94530870      -1.48644959       0.81453864
H        1.75914233       1.37970536      -0.38855507
H        2.39074829       0.94188675       1.26055402
H        0.10372969       0.14450058       1.95817692
17
Frame=9 idx=009574 GeodesicLength=1.1003694822059147 rxn_smarts="[C:1]1([H:8])([H:9])[C:2]([H:10])([H:11])[C:3]12[C:4]([H:12])([H:13])[C@@:5]1([H:14])[C:6]([H:15])([H:16])[C@@:7]21[H:17]>>[C:1]1([H:8])([H:9])[C:2]([H:11])=[C:3]1[C:7]([C:6]([C:5](=[C:4]([H:12])[H:13])[H:14])([H:15])[H:16])([H:10])[H:17]"
C       -2.03214519      -0.45704756      -0.13280832
C       -1.62036372       0.95149105      -0.45329894
C       -0.61310428      -0.00664741      -0.15091539
C        0.72031463      -1.01924379      -0.99048040
C        1.56646018      -0.73092481       0.15387302
C        1.69485557       0.70170585       0.46118695
C        0.25541034       0.54031550       0.94018782
H       -2.35206227      -1.10025039      -0.94872024
H       -2.51259228      -0.67140579       0.81856566
H       -0.54215390       1.76662090       0.55276269
H       -2.31904349       1.69269103      -0.80621514
H        0.52362088      -2.07787699      -1.15250335
H        1.02466836      -0.57155928      -1.93907139
H        1.92787403      -1.49114321       0.83545572
H        1.77741285       1.36355326      -0.40117677
H        2.39655681       0.93648965       1.25643709
H        0.10429149       0.17323198       1.95672101
17
Frame=10 idx=009574 GeodesicLength=1.2214176141480158 rxn_smarts="[C:1]1([H:8])([H:9])[C:2]([H:10])([H:11])[C:3]12[C:4]([H:12])([H:13])[C@@:5]1([H:14])[C:6]([H:15])([H:16])[C@@:7]21[H:17]>>[C:1]1([H:8])([H:9])[C:2]([H:11])=[C:3]1[C:7]([C:6]([C:5](=[C:4]([H:12])[H:13])[H:14])([H:15])[H:16])([H:10])[H:17]"
C       -2.03596774      -0.46277340      -0.15025026
C       -1.63841145       0.95695005      -0.44337972
C       -0.62552764       0.00974994      -0.14584082
C        0.73904563      -1.03508752      -0.99244052
C        1.55742432      -0.73942341       0.16510336
C        1.70025454       0.69815036       0.45617165
C        0.26218045       0.54989679       0.93286917
H       -2.33967481      -1.09543445      -0.98041585
H       -2.52108474      -0.69898969       0.79347478
H       -0.53818744       1.80452133       0.50117476
H       -2.36916498       1.70944402      -0.69316155
H        0.54416500      -2.09405662      -1.15405851
H        1.05286438      -0.58930556      -1.93857477
H        1.91003476      -1.49508841       0.85634662
H        1.79493005       1.34734879      -0.41400917
H        2.40216893       0.93143661       1.25183768
H        0.10495075       0.20266115       1.95515315
17
Frame=11 idx=009574 GeodesicLength=1.3423168891353143 rxn_smarts="[C:1]1([H:8])([H:9])[C:2]([H:10])([H:11])[C:3]12[C:4]([H:12])([H:13])[C@@:5]1([H:14])[C:6]([H:15])([H:16])[C@@:7]21[H:17]>>[C:1]1([H:8])([H:9])[C:2]([H:11])=[C:3]1[C:7]([C:6]([C:5](=[C:4]([H:12])[H:13])[H:14])([H:15])[H:16])([H:10])[H:17]"
C       -2.04017549      -0.46752256      -0.16858964
C       -1.65778744       0.96354128      -0.43105139
C       -0.63900981       0.02695979      -0.13969855
C        0.75785617      -1.05139838      -0.99392607
C        1.54756559      -0.74735611       0.17621265
C        1.70498730       0.69482555       0.45074788
C        0.26858150       0.55948660       0.92579104
H       -2.32698864      -1.08747305      -1.01404991
H       -2.52983456      -0.72783318       0.76638344
H       -0.53423892       1.84236254       0.44576167
H       -2.41276278       1.72027252      -0.57540544
H        0.56477042      -2.11073882      -1.15453007
H        1.08070920      -0.60747953      -1.93763365
H        1.89188790      -1.49808113       0.87698457
H        1.81129518       1.33107249      -0.42711232
H        2.40737042       0.92674987       1.24649254
H        0.10577397       0.23261210       1.95362324
17
Frame=12 idx=009574 GeodesicLength=1.463328003477237 rxn_smarts="[C:1]1([H:8])([H:9])[C:2]([H:10])([H:11])[C:3]12[C:4]([H:12])([H:13])[C@@:5]1([H:14])[C:6]([H:15])([H:16])[C@@:7]21[H:17]>>[C:1]1([H:8])([H:9])[C:2]([H:11])=[C:3]1[C:7]([C:6]([C:5](=[C:4]([H:12])[H:13])[H:14])([H:15])[H:16])([H:10])[H:17]"
C       -2.04486121      -0.47119936      -0.18803127
C       -1.67855938       0.97127684      -0.41585370
C       -0.65363304       0.04485633      -0.13223341
C        0.77674840      -1.06838170      -0.99480649
C        1.53697958      -0.75473447       0.18726135
C        1.70905494       0.69184925       0.44489765
C        0.27466110       0.56908005       0.91909924
H       -2.31402037      -1.07592896      -1.04998167
H       -2.53895051      -0.75807835       0.73680451
H       -0.53061297       1.87986462       0.38622109
H       -2.44963585       1.72542224      -0.45301367
H        0.58541152      -2.12821844      -1.15368579
H        1.10806295      -0.62630288      -1.93620099
H        1.87374689      -1.50010277       0.89746530
H        1.82629598       1.31486331      -0.44056505
H        2.41229823       0.92267275       1.24032152
H        0.10701373       0.26306154       1.95230138
17
Frame=13 idx=009574 GeodesicLength=1.5842108192039512 rxn_smarts="[C:1]1([H:8])([H:9])[C:2]([H:10])([H:11])[C:3]12[C:4]([H:12])([H:13])[C@@:5]1([H:14])[C:6]([H:15])([H:16])[C@@:7]21[H:17]>>[C:1]1([H:8])([H:9])[C:2]([H:11])=[C:3]1[C:7]([C:6]([C:5](=[C:4]([H:12])[H:13])[H:14])([H:15])[H:16])([H:10])[H:17]"
C       -2.04978829      -0.47342356      -0.20878021
C       -1.70040055       0.98013359      -0.39746770
C       -0.66936435       0.06334113      -0.12317140
C        0.79563321      -1.08624748      -0.99496862
C        1.52564207      -0.76149969       0.19824732
C        1.71224167       0.68927820       0.43856445
C        0.28045256       0.57862028       0.91299626
H       -2.30043029      -1.06019809      -1.08848554
H       -2.54815913      -0.78925728       0.70421623
H       -0.52803342       1.91645312       0.32286692
H       -2.47945765       1.72457216      -0.32631295
H        0.60594078      -2.14666348      -1.15129091
H        1.13466107      -0.64617789      -1.93426941
H        1.85585708      -1.50094199       0.91778298
H        1.83939200       1.29868175      -0.45448381
H        2.41683595       0.91940212       1.23316752
H        0.10897729       0.29392712       1.95138887
17
Frame=14 idx=009574 GeodesicLength=1.704813175722425 rxn_smarts="[C:1]1([H:8])([H:9])[C:2]([H:10])([H:11])[C:3]12[C:4]([H:12])([H:13])[C@@:5]1([H:14])[C:6]([H:15])([H:16])[C@@:7]21[H:17]>>[C:1]1([H:8])([H:9])[C:2]([H:11])=[C:3]1[C:7]([C:6]([C:5](=[C:4]([H:12])[H:13])[H:14])([H:15])[H:16])([H:10])[H:17]"
C       -2.05523750      -0.47399673      -0.23068316
C       -1.72311768       0.98973714      -0.37569454
C       -0.68629647       0.08188821      -0.11184257
C        0.81467551      -1.10497606      -0.99422638
C        1.51377613      -0.76749724       0.20902755
C        1.71429519       0.68720179       0.43155564
C        0.28584352       0.58759876       0.90779428
H       -2.28608845      -1.03989467      -1.12911365
H       -2.55839011      -0.82083708       0.66836300
H       -0.52740440       1.95109814       0.25607172
H       -2.50053615       1.71857328      -0.19681177
H        0.62658806      -2.16601451      -1.14697645
H        1.16045081      -0.66699250      -1.93175282
H        1.83899106      -1.50032691       0.93761259
H        1.84986351       1.28279366      -0.46904971
H        2.42080920       0.91719596       1.22455754
H        0.11177779       0.32444876       1.95116872
17
Frame=15 idx=009574 GeodesicLength=1.8257039317765755 rxn_smarts="[C:1]1([H:8])([H:9])[C:2]([H:10])([H:11])[C:3]12[C:4]([H:12])([H:13])[C@@:5]1([H:14])[C:6]([H:15])([H:16])[C@@:7]21[H:17]>>[C:1]1([H:8])([H:9])[C:2]([H:11])=[C:3]1[C:7]([C:6]([C:5](=[C:4]([H:12])[H:13])[H:14])([H:15])[H:16])([H:10])[H:17]"
C       -2.06135972      -0.47251771      -0.25379635
C       -1.74653704       1.00022060      -0.35075973
C       -0.70446540       0.10039256      -0.09788390
C        0.83395601      -1.12488477      -0.99252849
C        1.50182035      -0.77288849       0.21954090
C        1.71541102       0.68576236       0.42386340
C        0.29103755       0.59581745       0.90385161
H       -2.27101198      -1.01488053      -1.17165123
H       -2.57010011      -0.85184212       0.62887317
H       -0.53012758       1.98358116       0.18740415
H       -2.51347620       1.70755983      -0.06641178
H        0.64726538      -2.18673067      -1.14064526
H        1.18538119      -0.68907480      -1.92867881
H        1.82407821      -1.49850756       0.95679733
H        1.85742177       1.26754700      -0.48429004
H        2.42477167       0.91630639       1.21433592
H        0.11593487       0.35413931       1.95197911
17
Frame=16 idx=009574 GeodesicLength=1.9461934562447136 rxn_smarts="[C:1]1([H:8])([H:9])[C:2]([H:10])([H:11])[C:3]12[C:4]([H:12])([H:13])[C@@:5]1([H:14])[C:6]([H:15])([H:16])[C@@:7]21[H:17]>>[C:1]1([H:8])([H:9])[C:2]([H:11])=[C:3]1[C:7]([C:6]([C:5](=[C:4]([H:12])[H:13])[H:14])([H:15])[H:16])([H:10])[H:17]"
C       -2.06777350      -0.46871191      -0.27774582
C       -1.77013176       1.01105709      -0.32274464
C       -0.72375421       0.11846891      -0.08072748
C        0.85350953      -1.14578204      -0.98987927
C        1.48968185      -0.77756281       0.22964098
C        1.71510552       0.68481417       0.41538815
C        0.29594025       0.60276728       0.90147555
H       -2.25440650      -0.98498818      -1.21526549
H       -2.58340783      -0.88124834       0.58583763
H       -0.53697433       2.01293636       0.11755641
H       -2.51744696       1.69212468       0.06277890
H        0.66805415      -2.20838546      -1.13229881
H        1.20929154      -0.71222412      -1.92510125
H        1.81135244      -1.49518360       0.97503909
H        1.86121123       1.25285470      -0.50029187
H        2.42818852       0.91664106       1.20219280
H        0.12156006       0.38242218       1.95414512
