15
Frame=0 idx=009280 GeodesicLength=0.0 rxn_smarts="[C:1]([C:2]([C:3]([H:12])([H:13])[H:14])([C:4](=[O:5])[C:6]#[C:7][H:15])[H:11])([H:8])([H:9])[H:10]>>[C:1]([C:2]1([C:3]([H:12])([H:13])[H:14])[C@@:4]([C:6]#[C:7][H:15])([H:11])[O:5]1)([H:8])([H:9])[H:10]"
C       -1.42786380       0.29098179      -1.35488732
C       -0.44521594      -0.06176218      -0.32994360
C       -0.82751452      -0.88966140       0.81568305
C        0.88200234       0.57548438      -0.44914899
O        0.74125454       1.83970225      -0.78527794
C        1.79588615       0.28753628       0.68427717
C        2.54901323       0.08776357       1.59432797
H       -2.07631501       1.06233874      -0.91828606
H       -2.06745254      -0.55817882      -1.60530290
H       -0.94624876       0.75733037      -2.21280349
H        1.26961004      -0.12991662      -1.27814336
H       -0.86090332      -0.21145799       1.68025156
H       -1.78875596      -1.38749910       0.70609945
H       -0.02714338      -1.59390395       1.05556138
H        3.22964700      -0.06875737       2.39759307
15
Frame=1 idx=009280 GeodesicLength=0.09162296363810891 rxn_smarts="[C:1]([C:2]([C:3]([H:12])([H:13])[H:14])([C:4](=[O:5])[C:6]#[C:7][H:15])[H:11])([H:8])([H:9])[H:10]>>[C:1]([C:2]1([C:3]([H:12])([H:13])[H:14])[C@@:4]([C:6]#[C:7][H:15])([H:11])[O:5]1)([H:8])([H:9])[H:10]"
C       -1.42183580       0.28832509      -1.36438693
C       -0.43749402      -0.05685437      -0.33450475
C       -0.83224583      -0.87379246       0.81850911
C        0.88910951       0.58199321      -0.43381333
O        0.70206470       1.84725481      -0.73235237
C        1.81140433       0.28225873       0.68563758
C        2.57173142       0.06691320       1.58600102
H       -2.08557410       1.04790836      -0.93131671
H       -2.04445957      -0.57017384      -1.62518294
H       -0.94212764       0.76089541      -2.22002733
H        1.23489459      -0.14680439      -1.27880540
H       -0.91243224      -0.18299760       1.66929494
H       -1.77487576      -1.40198850       0.68922930
H       -0.02868459      -1.55949122       1.09690661
H        3.27052500      -0.08344643       2.37481119
15
Frame=2 idx=009280 GeodesicLength=0.18305497394202305 rxn_smarts="[C:1]([C:2]([C:3]([H:12])([H:13])[H:14])([C:4](=[O:5])[C:6]#[C:7][H:15])[H:11])([H:8])([H:9])[H:10]>>[C:1]([C:2]1([C:3]([H:12])([H:13])[H:14])[C@@:4]([C:6]#[C:7][H:15])([H:11])[O:5]1)([H:8])([H:9])[H:10]"
C       -1.41620950       0.28677509      -1.37293723
C       -0.42978479      -0.05183496      -0.33884329
C       -0.83648947      -0.85861558       0.82091760
C        0.89668657       0.58732334      -0.42029189
O        0.66449711       1.85155918      -0.68020741
C        1.82693624       0.27703217       0.68590062
C        2.59425470       0.04689712       1.57654954
H       -2.09401537       1.03482555      -0.94277586
H       -2.02261596      -0.58013971      -1.64361847
H       -0.93870043       0.76548684      -2.22646133
H        1.20101803      -0.16529068      -1.27871392
H       -0.96396400      -0.15711135       1.65640215
H       -1.75869741      -1.41744380       0.67281600
H       -0.03042389      -1.52407832       1.13735388
H        3.30750818      -0.09538489       2.35390960
15
Frame=3 idx=009280 GeodesicLength=0.27435234054709046 rxn_smarts="[C:1]([C:2]([C:3]([H:12])([H:13])[H:14])([C:4](=[O:5])[C:6]#[C:7][H:15])[H:11])([H:8])([H:9])[H:10]>>[C:1]([C:2]1([C:3]([H:12])([H:13])[H:14])[C@@:4]([C:6]#[C:7][H:15])([H:11])[O:5]1)([H:8])([H:9])[H:10]"
C       -1.41068910       0.28560189      -1.38111749
C       -0.42228727      -0.04649175      -0.34274696
C       -0.84073119      -0.84364398       0.82324926
C        0.90419789       0.59253968      -0.40763731
O        0.62779791       1.85345902      -0.62886086
C        1.84158589       0.27350985       0.68652662
C        2.61536130       0.02997587       1.56792055
H       -2.10201364       1.02225931      -0.95400195
H       -2.00107460      -0.58925552      -1.66121543
H       -0.93533054       0.77018269      -2.23260346
H        1.16837690      -0.18442784      -1.27671545
H       -1.01678026      -0.13320699       1.64155437
H       -1.74028015      -1.43379552       0.65689808
H       -0.03275233      -1.48661747       1.17792806
H        3.34461918      -0.11008924       2.33082196
15
Frame=4 idx=009280 GeodesicLength=0.3655095134325805 rxn_smarts="[C:1]([C:2]([C:3]([H:12])([H:13])[H:14])([C:4](=[O:5])[C:6]#[C:7][H:15])[H:11])([H:8])([H:9])[H:10]>>[C:1]([C:2]1([C:3]([H:12])([H:13])[H:14])[C@@:4]([C:6]#[C:7][H:15])([H:11])[O:5]1)([H:8])([H:9])[H:10]"
C       -1.40551149       0.28523680      -1.38858757
C       -0.41492530      -0.04101739      -0.34637465
C       -0.84467013      -0.82919874       0.82536914
C        0.91184961       0.59717509      -0.39624523
O        0.59272367       1.85269272      -0.57857587
C        1.85609031       0.27029883       0.68644007
C        2.63619623       0.01406636       1.55856841
H       -2.10935311       1.01083983      -0.96418284
H       -1.98056334      -0.59682844      -1.67758369
H       -0.93241201       0.77538712      -2.23822283
H        1.13653251      -0.20446938      -1.27384728
H       -1.06984535      -0.11195447       1.62484271
H       -1.71953920      -1.45086282       0.64167859
H       -0.03554276      -1.44778111       1.21786294
H        3.37897036      -0.12358440       2.30885808
15
Frame=5 idx=009280 GeodesicLength=0.4565704312919376 rxn_smarts="[C:1]([C:2]([C:3]([H:12])([H:13])[H:14])([C:4](=[O:5])[C:6]#[C:7][H:15])[H:11])([H:8])([H:9])[H:10]>>[C:1]([C:2]1([C:3]([H:12])([H:13])[H:14])[C@@:4]([C:6]#[C:7][H:15])([H:11])[O:5]1)([H:8])([H:9])[H:10]"
C       -1.40042847       0.28517913      -1.39574251
C       -0.40782534      -0.03528341      -0.34957358
C       -0.84869039      -0.81494907       0.82750026
C        0.91925703       0.60195256      -0.38535920
O        0.55868216       1.84990923      -0.52932127
C        1.86982282       0.26848210       0.68672217
C        2.65577126       0.00053142       1.54999736
H       -2.11625057       0.99998394      -0.97423960
H       -1.96043812      -0.60366492      -1.69313804
H       -0.92944516       0.78047529      -2.24365040
H        1.10576075      -0.22472695      -1.26934331
H       -1.12405690      -0.09306028       1.60617398
H       -1.69648043      -1.46856285       0.62721028
H       -0.03921872      -1.40680443       1.25784935
H        3.41354008      -0.13946175       2.28491451
15
Frame=6 idx=009280 GeodesicLength=0.5475307008887352 rxn_smarts="[C:1]([C:2]([C:3]([H:12])([H:13])[H:14])([C:4](=[O:5])[C:6]#[C:7][H:15])[H:11])([H:8])([H:9])[H:10]>>[C:1]([C:2]1([C:3]([H:12])([H:13])[H:14])[C@@:4]([C:6]#[C:7][H:15])([H:11])[O:5]1)([H:8])([H:9])[H:10]"
C       -1.39566118       0.28578650      -1.40229503
C       -0.40090122      -0.02946258      -0.35250888
C       -0.85249421      -0.80115306       0.82953049
C        0.92663400       0.60642394      -0.37536296
O        0.52630292       1.84492117      -0.48131994
C        1.88342556       0.26686226       0.68638947
C        2.67517071      -0.01230092       1.54074137
H       -2.12253909       0.99023270      -0.98345981
H       -1.94135955      -0.60920365      -1.70753661
H       -0.92680630       0.78578445      -2.24870767
H        1.07564283      -0.24541898      -1.26414483
H       -1.17837295      -0.07706089       1.58569100
H       -1.67106780      -1.48666175       0.61372462
H       -0.04361057      -1.36430702       1.29715703
H        3.44563686      -0.15444217       2.26210174
15
Frame=7 idx=009280 GeodesicLength=0.6384199288278287 rxn_smarts="[C:1]([C:2]([C:3]([H:12])([H:13])[H:14])([C:4](=[O:5])[C:6]#[C:7][H:15])[H:11])([H:8])([H:9])[H:10]>>[C:1]([C:2]1([C:3]([H:12])([H:13])[H:14])[C@@:4]([C:6]#[C:7][H:15])([H:11])[O:5]1)([H:8])([H:9])[H:10]"
C       -1.39110877       0.28684064      -1.40841704
C       -0.39419239      -0.02351838      -0.35514014
C       -0.85622978      -0.78766855       0.83155592
C        0.93381776       0.61090149      -0.36589347
O        0.49532172       1.83810974      -0.43457282
C        1.89667009       0.26581352       0.68587082
C        2.69399605      -0.02404579       1.53140440
H       -2.12831221       0.98135306      -0.99221961
H       -1.92308356      -0.61381046      -1.72094886
H       -0.92429186       0.79103217      -2.25355469
H        1.04623726      -0.26619903      -1.25803965
H       -1.23297997      -0.06392814       1.56338222
H       -1.64331029      -1.50499410       0.60135032
H       -0.04894342      -1.31999914       1.33595220
H        3.47640938      -0.16988705       2.23927039
15
Frame=8 idx=009280 GeodesicLength=0.729250333637525 rxn_smarts="[C:1]([C:2]([C:3]([H:12])([H:13])[H:14])([C:4](=[O:5])[C:6]#[C:7][H:15])[H:11])([H:8])([H:9])[H:10]>>[C:1]([C:2]1([C:3]([H:12])([H:13])[H:14])[C@@:4]([C:6]#[C:7][H:15])([H:11])[O:5]1)([H:8])([H:9])[H:10]"
C       -1.38685604       0.28843431      -1.41405627
C       -0.38767043      -0.01752993      -0.35754970
C       -0.85981441      -0.77457258       0.83355055
C        0.94087480       0.61525478      -0.35700726
O        0.46593475       1.82955267      -0.38915141
C        1.90977072       0.26487625       0.68487392
C        2.71265627      -0.03533994       1.52150382
H       -2.13354810       0.97353075      -1.00033547
H       -1.90586284      -0.61736918      -1.73330812
H       -0.92202509       0.79629339      -2.25818363
H        1.01734122      -0.28708125      -1.25139953
H       -1.28734574      -0.05387870       1.53937001
H       -1.61329717      -1.52333121       0.59025779
H       -0.05520403      -1.27416326       1.37387788
H        3.50504610      -0.18467609       2.21755740
15
Frame=9 idx=009280 GeodesicLength=0.8200602684962488 rxn_smarts="[C:1]([C:2]([C:3]([H:12])([H:13])[H:14])([C:4](=[O:5])[C:6]#[C:7][H:15])[H:11])([H:8])([H:9])[H:10]>>[C:1]([C:2]1([C:3]([H:12])([H:13])[H:14])[C@@:4]([C:6]#[C:7][H:15])([H:11])[O:5]1)([H:8])([H:9])[H:10]"
C       -1.38266021       0.29021632      -1.41937346
C       -0.38134098      -0.01139869      -0.35963299
C       -0.86341633      -0.76162018       0.83564869
C        0.94757485       0.61995095      -0.34827118
O        0.43760630       1.81965977      -0.34499423
C        1.92228457       0.26480598       0.68402081
C        2.73076229      -0.04488758       1.51170381
H       -2.13830744       0.96626684      -1.00825209
H       -1.88912888      -0.62040360      -1.74475618
H       -0.91965808       0.80116228      -2.26272594
H        0.98913811      -0.30761500      -1.24383004
H       -1.34179594      -0.04681938       1.51359973
H       -1.58090680      -1.54147530       0.58059722
H       -0.06270075      -1.22625030       1.41124952
H        3.53254929      -0.20159210       2.19501632
15
Frame=10 idx=009280 GeodesicLength=0.9108663537369924 rxn_smarts="[C:1]([C:2]([C:3]([H:12])([H:13])[H:14])([C:4](=[O:5])[C:6]#[C:7][H:15])[H:11])([H:8])([H:9])[H:10]>>[C:1]([C:2]1([C:3]([H:12])([H:13])[H:14])[C@@:4]([C:6]#[C:7][H:15])([H:11])[O:5]1)([H:8])([H:9])[H:10]"
C       -1.37882055       0.29256375      -1.42422882
C       -0.37517000      -0.00531031      -0.36161599
C       -0.86683626      -0.74907609       0.83768749
C        0.95417522       0.62445478      -0.34006551
O        0.41091712       1.80826108      -0.30217748
C        1.93476416       0.26443559       0.68252652
C        2.74872143      -0.05482152       1.50113567
H       -2.14255393       0.96016738      -1.01543747
H       -1.87363486      -0.62239163      -1.75517587
H       -0.91761004       0.80604098      -2.26711152
H        0.96120146      -0.32817981      -1.23612942
H       -1.39526536      -0.04303886       1.48634771
H       -1.54649554      -1.55915501       0.57247957
H       -0.07121078      -1.17712398       1.44724372
H        3.55781792      -0.21682635       2.17452140
15
Frame=11 idx=009280 GeodesicLength=1.0017146292730956 rxn_smarts="[C:1]([C:2]([C:3]([H:12])([H:13])[H:14])([C:4](=[O:5])[C:6]#[C:7][H:15])[H:11])([H:8])([H:9])[H:10]>>[C:1]([C:2]1([C:3]([H:12])([H:13])[H:14])[C@@:4]([C:6]#[C:7][H:15])([H:11])[O:5]1)([H:8])([H:9])[H:10]"
C       -1.37508551       0.29505208      -1.42886766
C       -0.36916628       0.00088264      -0.36336896
C       -0.87026465      -0.73666341       0.83981714
C        0.96042297       0.62939286      -0.33186316
O        0.38515544       1.79590877      -0.26063289
C        1.94670389       0.26485798       0.68127726
C        2.76590254      -0.06367604       1.49091550
H       -2.14642424       0.95463064      -1.02251151
H       -1.85871037      -0.62401417      -1.76479562
H       -0.91551663       0.81047185      -2.27154653
H        0.93382403      -0.34829287      -1.22772509
H       -1.44812885      -0.04235463       1.45755837
H       -1.50998460      -1.57619349       0.56608870
H       -0.08103971      -1.12618905       1.48222754
H        3.58231195      -0.23381317       2.15342689
15
Frame=12 idx=009280 GeodesicLength=1.0926415029046257 rxn_smarts="[C:1]([C:2]([C:3]([H:12])([H:13])[H:14])([C:4](=[O:5])[C:6]#[C:7][H:15])[H:11])([H:8])([H:9])[H:10]>>[C:1]([C:2]1([C:3]([H:12])([H:13])[H:14])[C@@:4]([C:6]#[C:7][H:15])([H:11])[O:5]1)([H:8])([H:9])[H:10]"
C       -1.37141129       0.29758060      -1.43333648
C       -0.36329433       0.00719870      -0.36490087
C       -0.87368710      -0.72432900       0.84205878
C        0.96628138       0.63492590      -0.32355493
O        0.36011936       1.78282539      -0.22037193
C        1.95803492       0.26628371       0.68043146
C        2.78227855      -0.07121103       1.48118478
H       -2.14995769       0.94950918      -1.02955948
H       -1.84422772      -0.62544740      -1.77365090
H       -0.91334745       0.81435408      -2.27608908
H        0.90701999      -0.36784093      -1.21862187
H       -1.50008044      -0.04476786       1.42734115
H       -1.47145502      -1.59235415       0.56159574
H       -0.09224399      -1.07348329       1.51604714
H        3.60597084      -0.25324390       2.13142649
15
Frame=13 idx=009280 GeodesicLength=1.183681589034728 rxn_smarts="[C:1]([C:2]([C:3]([H:12])([H:13])[H:14])([C:4](=[O:5])[C:6]#[C:7][H:15])[H:11])([H:8])([H:9])[H:10]>>[C:1]([C:2]1([C:3]([H:12])([H:13])[H:14])[C@@:4]([C:6]#[C:7][H:15])([H:11])[O:5]1)([H:8])([H:9])[H:10]"
C       -1.36780719       0.30016856      -1.43761280
C       -0.35751145       0.01360623      -0.36626363
C       -0.87705368      -0.71210373       0.84438070
C        0.97178751       0.64102025      -0.31516313
O        0.33580869       1.76907754      -0.18140871
C        1.96880235       0.26858461       0.67991769
C        2.79794644      -0.07763299       1.47179766
H       -2.15314278       0.94481736      -1.03648260
H       -1.83023184      -0.62666865      -1.78172963
H       -0.91114809       0.81771679      -2.28073374
H        0.88070304      -0.38685548      -1.20899207
H       -1.55065234      -0.05030504       1.39588212
H       -1.43110136      -1.60739981       0.55910004
H       -0.10481146      -1.01928453       1.54840259
H        3.62841217      -0.27474111       2.10890551
15
Frame=14 idx=009280 GeodesicLength=1.2748755582053788 rxn_smarts="[C:1]([C:2]([C:3]([H:12])([H:13])[H:14])([C:4](=[O:5])[C:6]#[C:7][H:15])[H:11])([H:8])([H:9])[H:10]>>[C:1]([C:2]1([C:3]([H:12])([H:13])[H:14])[C@@:4]([C:6]#[C:7][H:15])([H:11])[O:5]1)([H:8])([H:9])[H:10]"
C       -1.36426803       0.30276042      -1.44171115
C       -0.35177144       0.02011345      -0.36748716
C       -0.88030569      -0.69997504       0.84677729
C        0.97694478       0.64777255      -0.30666573
O        0.31210589       1.75482430      -0.14377303
C        1.97901251       0.27188641       0.67977670
C        2.81297120      -0.08275195       1.46277838
H       -2.15602378       0.94045422      -1.04327265
H       -1.81666995      -0.62778003      -1.78905292
H       -0.90895710       0.82051814      -2.28551194
H        0.85485826      -0.40529786      -1.19890848
H       -1.59946906      -0.05891308       1.36336767
H       -1.38905916      -1.62113081       0.55869321
H       -0.11869501      -0.96376212       1.57910451
H        3.64932657      -0.29871858       2.08588531
15
Frame=15 idx=009280 GeodesicLength=1.3662623152512579 rxn_smarts="[C:1]([C:2]([C:3]([H:12])([H:13])[H:14])([C:4](=[O:5])[C:6]#[C:7][H:15])[H:11])([H:8])([H:9])[H:10]>>[C:1]([C:2]1([C:3]([H:12])([H:13])[H:14])[C@@:4]([C:6]#[C:7][H:15])([H:11])[O:5]1)([H:8])([H:9])[H:10]"
C       -1.36086707       0.30545620      -1.44557140
C       -0.34603095       0.02665972      -0.36865798
C       -0.88335482      -0.68803309       0.84917953
C        0.98184677       0.65501604      -0.29819826
O        0.28916191       1.74003116      -0.10749041
C        1.98881375       0.27584708       0.67975747
C        2.82759054      -0.08698470       1.45375811
H       -2.15859331       0.93654363      -1.04970892
H       -1.80372989      -0.62863250      -1.79559969
H       -0.90691328       0.82288029      -2.29038461
H        0.82931984      -0.42331118      -1.18865158
H       -1.64601933      -0.07054708       1.33006428
H       -1.34559980      -1.63337973       0.56034109
H       -0.13375966      -0.90736067       1.60782905
H        3.66813529      -0.32418519       2.06333333
15
Frame=16 idx=009280 GeodesicLength=1.4578755023536534 rxn_smarts="[C:1]([C:2]([C:3]([H:12])([H:13])[H:14])([C:4](=[O:5])[C:6]#[C:7][H:15])[H:11])([H:8])([H:9])[H:10]>>[C:1]([C:2]1([C:3]([H:12])([H:13])[H:14])[C@@:4]([C:6]#[C:7][H:15])([H:11])[O:5]1)([H:8])([H:9])[H:10]"
C       -1.35756049       0.30817611      -1.44922303
C       -0.34024982       0.03325867      -0.36977804
C       -0.88619539      -0.67626057       0.85158904
C        0.98647711       0.66287117      -0.28967771
O        0.26682480       1.72485152      -0.07255878
C        1.99815390       0.28066779       0.68000747
C        2.84183501      -0.08998712       1.44486119
H       -2.16089052       0.93293507      -1.05583710
H       -1.79128091      -0.62935528      -1.80142842
H       -0.90499060       0.82474647      -2.29537521
H        0.80411163      -0.44085147      -1.17819089
H       -1.69007624      -0.08505404       1.29615753
H       -1.30093460      -1.64399411       0.56405746
H       -0.14999141      -0.85027628       1.63447339
H        3.68476754      -0.35172792       2.04092309
