10
Frame=0 idx=007267 GeodesicLength=0.0 rxn_smarts="[N:1]#[C:2][c:3]1[n:4][c:5]([H:8])[c:6]([H:9])[n:7]1[H:10]>>[N-:1]=[C:2]=[C:3]1[N+:4]#[C:5][C:6]([H:8])([H:9])[N:7]1[H:10]"
N        3.28670150      -0.32896262       0.12730324
C        2.14290572      -0.37948823       0.07346818
C        0.70601910      -0.40085101       0.00427423
N       -0.03064007      -1.46293061       0.13157231
C       -1.38519816      -1.09215811      -0.06142674
C       -1.32159180       0.34239425      -0.19092819
N        0.01108359       0.74271771      -0.18986828
H       -1.69707837      -0.10185820       0.89173376
H       -2.10338934       1.01024367      -0.52479673
H        0.39118783       1.67089316      -0.26133177
10
Frame=1 idx=007267 GeodesicLength=0.044564844372941954 rxn_smarts="[N:1]#[C:2][c:3]1[n:4][c:5]([H:8])[c:6]([H:9])[n:7]1[H:10]>>[N-:1]=[C:2]=[C:3]1[N+:4]#[C:5][C:6]([H:8])([H:9])[N:7]1[H:10]"
N        3.28870815      -0.33086195       0.12284144
C        2.14489661      -0.37966972       0.06673807
C        0.70792903      -0.39894216       0.00496287
N       -0.02989111      -1.46188646       0.13201302
C       -1.38030734      -1.08818707      -0.05890052
C       -1.32119589       0.34601584      -0.18407376
N        0.01277938       0.74474148      -0.18189173
H       -1.71859888      -0.11042925       0.89985531
H       -2.09855670       1.00754588      -0.54010355
H        0.39423676       1.67167341      -0.26144115
10
Frame=2 idx=007267 GeodesicLength=0.0890900113360274 rxn_smarts="[N:1]#[C:2][c:3]1[n:4][c:5]([H:8])[c:6]([H:9])[n:7]1[H:10]>>[N-:1]=[C:2]=[C:3]1[N+:4]#[C:5][C:6]([H:8])([H:9])[N:7]1[H:10]"
N        3.29062196      -0.33275202       0.11858573
C        2.14663634      -0.37941158       0.06317788
C        0.70985557      -0.39729166       0.00332905
N       -0.02920073      -1.46093396       0.13112346
C       -1.37562787      -1.08399532      -0.05595862
C       -1.32088163       0.34985336      -0.17668203
N        0.01451462       0.74666725      -0.17501257
H       -1.73959537      -0.11938343       0.90834477
H       -2.09363293       1.00497975      -0.55398100
H        0.39731004       1.67226762      -0.26292666
10
Frame=3 idx=007267 GeodesicLength=0.1335949921088867 rxn_smarts="[N:1]#[C:2][c:3]1[n:4][c:5]([H:8])[c:6]([H:9])[n:7]1[H:10]>>[N-:1]=[C:2]=[C:3]1[N+:4]#[C:5][C:6]([H:8])([H:9])[N:7]1[H:10]"
N        3.29255319      -0.33478237       0.11331808
C        2.14813996      -0.37863705       0.06356305
C        0.71179574      -0.39581641      -0.00009706
N       -0.02855735      -1.46003301       0.12917423
C       -1.37109594      -1.07961114      -0.05277372
C       -1.32061013       0.35388946      -0.16888246
N        0.01630706       0.74854171      -0.16892882
H       -1.76038165      -0.12877930       0.91695388
H       -2.08855512       1.00251255      -0.56677613
H        0.40040422       1.67271554      -0.26555106
10
Frame=4 idx=007267 GeodesicLength=0.17811703891981293 rxn_smarts="[N:1]#[C:2][c:3]1[n:4][c:5]([H:8])[c:6]([H:9])[n:7]1[H:10]>>[N-:1]=[C:2]=[C:3]1[N+:4]#[C:5][C:6]([H:8])([H:9])[N:7]1[H:10]"
N        3.29472314      -0.33725141       0.10425827
C        2.14958607      -0.37746708       0.06686077
C        0.71377327      -0.39414378      -0.00264407
N       -0.02788824      -1.45894527       0.12799087
C       -1.36644345      -1.07514965      -0.04965966
C       -1.32025598       0.35799189      -0.16125281
N        0.01818913       0.75053970      -0.16225184
H       -1.78241717      -0.13860535       0.92451147
H       -2.08275785       0.99976776      -0.58033855
H        0.40349108       1.67326320      -0.26747444
10
Frame=5 idx=007267 GeodesicLength=0.22267523709162873 rxn_smarts="[N:1]#[C:2][c:3]1[n:4][c:5]([H:8])[c:6]([H:9])[n:7]1[H:10]>>[N-:1]=[C:2]=[C:3]1[N+:4]#[C:5][C:6]([H:8])([H:9])[N:7]1[H:10]"
N        3.29678843      -0.33980393       0.09477191
C        2.15118630      -0.37636187       0.06883521
C        0.71580215      -0.39228260      -0.00443484
N       -0.02716921      -1.45765613       0.12769870
C       -1.36167900      -1.07058990      -0.04629021
C       -1.31983164       0.36217741      -0.15360324
N        0.02015667       0.75266171      -0.15502427
H       -1.80556619      -0.14877796       0.93123353
H       -2.07626791       0.99674379      -0.59434682
H        0.40658040       1.67388949      -0.26883996
10
Frame=6 idx=007267 GeodesicLength=0.26729464728253766 rxn_smarts="[N:1]#[C:2][c:3]1[n:4][c:5]([H:8])[c:6]([H:9])[n:7]1[H:10]>>[N-:1]=[C:2]=[C:3]1[N+:4]#[C:5][C:6]([H:8])([H:9])[N:7]1[H:10]"
N        3.29923905      -0.34305411       0.07786604
C        2.15304832      -0.37505851       0.07179540
C        0.71791212      -0.38976423      -0.00168173
N       -0.02632889      -1.45586464       0.13086738
C       -1.35646584      -1.06610097      -0.04324621
C       -1.31920192       0.36623641      -0.14691863
N        0.02222616       0.75512081      -0.14526249
H       -1.83203197      -0.15932279       0.93503550
H       -2.06806829       0.99288152      -0.61157509
H        0.40967126       1.67492651      -0.26688016
10
Frame=7 idx=007267 GeodesicLength=0.31204311218500236 rxn_smarts="[N:1]#[C:2][c:3]1[n:4][c:5]([H:8])[c:6]([H:9])[n:7]1[H:10]>>[N-:1]=[C:2]=[C:3]1[N+:4]#[C:5][C:6]([H:8])([H:9])[N:7]1[H:10]"
N        3.30160609      -0.34666150       0.05661447
C        2.15545306      -0.37405295       0.07018649
C        0.72012388      -0.38652456       0.00634563
N       -0.02532372      -1.45350674       0.13837664
C       -1.35072843      -1.06170925      -0.04015025
C       -1.31835579       0.37014780      -0.14116690
N        0.02436685       0.75797132      -0.13252077
H       -1.86210563      -0.17011988       0.93562752
H       -2.05780370       0.98801482      -0.63226565
H        0.41276739       1.67644093      -0.26104717
10
Frame=8 idx=007267 GeodesicLength=0.35674253605266115 rxn_smarts="[N:1]#[C:2][c:3]1[n:4][c:5]([H:8])[c:6]([H:9])[n:7]1[H:10]>>[N-:1]=[C:2]=[C:3]1[N+:4]#[C:5][C:6]([H:8])([H:9])[N:7]1[H:10]"
N        3.30365072      -0.34960247       0.04074258
C        2.15761130      -0.37315003       0.06880660
C        0.72233338      -0.38381963       0.00979863
N       -0.02442858      -1.45136841       0.14333497
C       -1.34540137      -1.05697223      -0.03608151
C       -1.31765413       0.37439816      -0.13428544
N        0.02655755       0.76059328      -0.12191480
H       -1.89058694      -0.18129333       0.93738627
H       -2.04800191       0.98366457      -0.64955265
H        0.41591998       1.67755007      -0.25823465
10
Frame=9 idx=007267 GeodesicLength=0.40147947079698915 rxn_smarts="[N:1]#[C:2][c:3]1[n:4][c:5]([H:8])[c:6]([H:9])[n:7]1[H:10]>>[N-:1]=[C:2]=[C:3]1[N+:4]#[C:5][C:6]([H:8])([H:9])[N:7]1[H:10]"
N        3.30563350      -0.35227625       0.02666525
C        2.15979570      -0.37242038       0.06578250
C        0.72456572      -0.38119816       0.01224606
N       -0.02354935      -1.44915205       0.14838573
C       -1.34015042      -1.05205936      -0.03131031
C       -1.31696340       0.37880640      -0.12706175
N        0.02881490       0.76321211      -0.11157294
H       -1.91945463      -0.19276252       0.93863391
H       -2.03778239       0.97925173      -0.66600128
H        0.41909036       1.67859847      -0.25576716
10
Frame=10 idx=007267 GeodesicLength=0.4462872593882271 rxn_smarts="[N:1]#[C:2][c:3]1[n:4][c:5]([H:8])[c:6]([H:9])[n:7]1[H:10]>>[N-:1]=[C:2]=[C:3]1[N+:4]#[C:5][C:6]([H:8])([H:9])[N:7]1[H:10]"
N        3.30763307      -0.35501762       0.01067920
C        2.16211829      -0.37181434       0.06090723
C        0.72685966      -0.37831020       0.01643157
N       -0.02260748      -1.44662251       0.15552568
C       -1.33470795      -1.04709481      -0.02603674
C       -1.31617695       0.38321630      -0.12013323
N        0.03113420       0.76598860      -0.10007143
H       -1.95020118      -0.20450506       0.93784073
H       -2.02632615       0.97431369      -0.68350042
H        0.42227448       1.67984595      -0.25164259
10
Frame=11 idx=007267 GeodesicLength=0.491123255958311 rxn_smarts="[N:1]#[C:2][c:3]1[n:4][c:5]([H:8])[c:6]([H:9])[n:7]1[H:10]>>[N-:1]=[C:2]=[C:3]1[N+:4]#[C:5][C:6]([H:8])([H:9])[N:7]1[H:10]"
N        3.30959328      -0.35758443      -0.00404570
C        2.16440827      -0.37129991       0.05500436
C        0.72918754      -0.37549890       0.01959350
N       -0.02165873      -1.44399268       0.16282730
C       -1.32932752      -1.04195717      -0.01998331
C       -1.31538672       0.38776897      -0.11292755
N        0.03353511       0.76874807      -0.08893223
H       -1.98135471      -0.21654286       0.93628952
H       -2.01448161       0.96929111      -0.70009419
H        0.42548507       1.68106781      -0.24773170
10
Frame=12 idx=007267 GeodesicLength=0.5360001732627221 rxn_smarts="[N:1]#[C:2][c:3]1[n:4][c:5]([H:8])[c:6]([H:9])[n:7]1[H:10]>>[N-:1]=[C:2]=[C:3]1[N+:4]#[C:5][C:6]([H:8])([H:9])[N:7]1[H:10]"
N        3.31150980      -0.36015443      -0.01942623
C        2.16671060      -0.37083810       0.04804963
C        0.73157352      -0.37259303       0.02311196
N       -0.02065549      -1.44114554       0.17130138
C       -1.32387313      -1.03671113      -0.01319654
C       -1.31453426       0.39238065      -0.10578350
N        0.03601721       0.77156114      -0.07753182
H       -2.01361892      -0.22885673       0.93314763
H       -2.00185877       0.96394458      -0.71668442
H        0.42872944       1.68241259      -0.24298809
10
Frame=13 idx=007267 GeodesicLength=0.5808896182827071 rxn_smarts="[N:1]#[C:2][c:3]1[n:4][c:5]([H:8])[c:6]([H:9])[n:7]1[H:10]>>[N-:1]=[C:2]=[C:3]1[N+:4]#[C:5][C:6]([H:8])([H:9])[N:7]1[H:10]"
N        3.31343878      -0.36256898      -0.03312155
C        2.16894314      -0.37045181       0.04036572
C        0.73398358      -0.36981308       0.02516059
N       -0.01963292      -1.43822185       0.17961353
C       -1.31851761      -1.03126511      -0.00551493
C       -1.31367727       0.39715809      -0.09828609
N        0.03861004       0.77432147      -0.06685767
H       -2.04603997      -0.24148771       0.92932945
H       -1.98912903       0.95860095      -0.73195270
H        0.43202125       1.68372803      -0.23873636
10
Frame=14 idx=007267 GeodesicLength=0.625771005592412 rxn_smarts="[N:1]#[C:2][c:3]1[n:4][c:5]([H:8])[c:6]([H:9])[n:7]1[H:10]>>[N-:1]=[C:2]=[C:3]1[N+:4]#[C:5][C:6]([H:8])([H:9])[N:7]1[H:10]"
N        3.31552120      -0.36469883      -0.04306032
C        2.17107224      -0.37020115       0.03195867
C        0.73637129      -0.36733216       0.02428653
N       -0.01861368      -1.43533575       0.18668817
C       -1.31339265      -1.02554460       0.00317480
C       -1.31285298       0.40218857      -0.09009552
N        0.04135425       0.77694463      -0.05768635
H       -2.07790584      -0.25446388       0.92563941
H       -1.97692133       0.95354798      -0.74487731
H        0.43536751       1.68489519      -0.23602809
10
Frame=15 idx=007267 GeodesicLength=0.670651889588994 rxn_smarts="[N:1]#[C:2][c:3]1[n:4][c:5]([H:8])[c:6]([H:9])[n:7]1[H:10]>>[N-:1]=[C:2]=[C:3]1[N+:4]#[C:5][C:6]([H:8])([H:9])[N:7]1[H:10]"
N        3.31775106      -0.36666749      -0.05052404
C        2.17313993      -0.37007718       0.02266263
C        0.73874205      -0.36501495       0.02157876
N       -0.01755591      -1.43240377       0.19321272
C       -1.30838405      -1.01958325       0.01283008
C       -1.31200582       0.40742742      -0.08141339
N        0.04426065       0.77949357      -0.04951585
H       -2.10974000      -0.26780956       0.92148925
H       -1.96499100       0.94863099      -0.75611065
H        0.43878308       1.68600422      -0.23420950
10
Frame=16 idx=007267 GeodesicLength=0.7155328132828611 rxn_smarts="[N:1]#[C:2][c:3]1[n:4][c:5]([H:8])[c:6]([H:9])[n:7]1[H:10]>>[N-:1]=[C:2]=[C:3]1[N+:4]#[C:5][C:6]([H:8])([H:9])[N:7]1[H:10]"
N        3.32007747      -0.36856965      -0.05649892
C        2.17516560      -0.37006092       0.01245961
C        0.74110320      -0.36276230       0.01784305
N       -0.01642749      -1.42936800       0.19965269
C       -1.30340742      -1.01339618       0.02344509
C       -1.31109291       0.41284906      -0.07237000
N        0.04733620       0.78201782      -0.04199096
H       -2.14188647      -0.28156358       0.91640590
H       -1.95315504       0.94373786      -0.76609143
H        0.44228686       1.68711589      -0.23285503
