13
Frame=0 idx=011623 GeodesicLength=0.0 rxn_smarts="[C:1]([O:2][c:3]1[n:4][n:5]([H:11])[c:6]([H:12])[c:7]1[H:13])([H:8])([H:9])[H:10]>>[C:1]([O:2][C:3]1=[C:7]=[C:6]([H:12])[N:5]([H:11])[N:4]1[H:13])([H:8])([H:9])[H:10]"
C       -2.21806554       0.21190928       0.19829122
O       -1.26526197      -0.79046949       0.51117706
C        0.00552661      -0.57052948       0.16655698
N        0.41156857       0.78196901      -0.17152500
N        1.71714877       0.66709117      -0.14151277
C        2.13466244      -0.61656106       0.14249187
C        1.08674951      -1.47901043       0.35857391
H       -3.17285132      -0.16369514       0.55689434
H       -1.97664719       1.15606290       0.68889768
H       -2.27360115       0.37505239      -0.88339257
H        2.26223535       1.41376581      -0.54399822
H        3.20171727      -0.79587435       0.16972690
H        0.08681871      -0.18971055      -1.05218145
13
Frame=1 idx=011623 GeodesicLength=0.09543399999810549 rxn_smarts="[C:1]([O:2][c:3]1[n:4][n:5]([H:11])[c:6]([H:12])[c:7]1[H:13])([H:8])([H:9])[H:10]>>[C:1]([O:2][C:3]1=[C:7]=[C:6]([H:12])[N:5]([H:11])[N:4]1[H:13])([H:8])([H:9])[H:10]"
C       -2.21964196       0.21467712       0.20253878
O       -1.26712397      -0.78563628       0.52216347
C        0.00445482      -0.56162835       0.18548286
N        0.40865917       0.77255573      -0.19186095
N        1.71760335       0.66980924      -0.13933710
C        2.13518902      -0.61005956       0.15632637
C        1.08382211      -1.47963136       0.32148707
H       -3.17492309      -0.15863283       0.56238365
H       -1.97842457       1.16151523       0.68838015
H       -2.27572282       0.37274269      -0.87976028
H        2.26529466       1.42376897      -0.52317617
H        3.20148562      -0.79474517       0.16996576
H        0.09932768      -0.22473542      -1.07459361
13
Frame=2 idx=011623 GeodesicLength=0.1905415556909522 rxn_smarts="[C:1]([O:2][c:3]1[n:4][n:5]([H:11])[c:6]([H:12])[c:7]1[H:13])([H:8])([H:9])[H:10]>>[C:1]([O:2][C:3]1=[C:7]=[C:6]([H:12])[N:5]([H:11])[N:4]1[H:13])([H:8])([H:9])[H:10]"
C       -2.22090380       0.21746529       0.20676552
O       -1.26873046      -0.78124384       0.53169937
C        0.00366803      -0.55326448       0.20273082
N        0.40585566       0.76245038      -0.21161284
N        1.71786747       0.67230412      -0.13749403
C        2.13526335      -0.60447085       0.16765273
C        1.08070805      -1.47790672       0.28865435
H       -3.17665446      -0.15387389       0.56756057
H       -1.97959363       1.16630903       0.68896576
H       -2.27763919       0.37177045      -0.87593079
H        2.26723438       1.43383033      -0.50238694
H        3.20080272      -0.79366443       0.17073730
H        0.11212188      -0.25970539      -1.09734181
13
Frame=3 idx=011623 GeodesicLength=0.28557973593360564 rxn_smarts="[C:1]([O:2][c:3]1[n:4][n:5]([H:11])[c:6]([H:12])[c:7]1[H:13])([H:8])([H:9])[H:10]>>[C:1]([O:2][C:3]1=[C:7]=[C:6]([H:12])[N:5]([H:11])[N:4]1[H:13])([H:8])([H:9])[H:10]"
C       -2.22192322       0.22030488       0.21091189
O       -1.27016339      -0.77717279       0.54011168
C        0.00310945      -0.54526518       0.21887855
N        0.40313112       0.75174309      -0.23067766
N        1.71792586       0.67464176      -0.13587097
C        2.13505782      -0.59962932       0.17666318
C        1.07742710      -1.47449087       0.25959092
H       -3.17815539      -0.14932798       0.57233565
H       -1.98034205       1.17062982       0.69038555
H       -2.27928955       0.37188964      -0.87202468
H        2.26803599       1.44397989      -0.48155574
H        3.19987184      -0.79264461       0.17158285
H        0.12531442      -0.29465833      -1.12033122
13
Frame=4 idx=011623 GeodesicLength=0.38068165598470877 rxn_smarts="[C:1]([O:2][c:3]1[n:4][n:5]([H:11])[c:6]([H:12])[c:7]1[H:13])([H:8])([H:9])[H:10]>>[C:1]([O:2][C:3]1=[C:7]=[C:6]([H:12])[N:5]([H:11])[N:4]1[H:13])([H:8])([H:9])[H:10]"
C       -2.22275758       0.22320525       0.21492206
O       -1.27147131      -0.77331965       0.54766224
C        0.00274731      -0.53746431       0.23440488
N        0.40046691       0.74052087      -0.24896092
N        1.71778007       0.67688508      -0.13435168
C        2.13467950      -0.59535129       0.18381960
C        1.07397515      -1.46982872       0.23383110
H       -3.17950880      -0.14495571       0.57662200
H       -1.98084057       1.17461358       0.69241251
H       -2.28061813       0.37288245      -0.86814294
H        2.26771476       1.45419656      -0.46066132
H        3.19879942      -0.79177023       0.17190548
H        0.13903326      -0.32961390      -1.14346301
13
Frame=5 idx=011623 GeodesicLength=0.47600119902966165 rxn_smarts="[C:1]([O:2][c:3]1[n:4][n:5]([H:11])[c:6]([H:12])[c:7]1[H:13])([H:8])([H:9])[H:10]>>[C:1]([O:2][C:3]1=[C:7]=[C:6]([H:12])[N:5]([H:11])[N:4]1[H:13])([H:8])([H:9])[H:10]"
C       -2.22344508       0.22616228       0.21877782
O       -1.27268968      -0.76960994       0.55456513
C        0.00256871      -0.52972207       0.24968271
N        0.39784749       0.72886283      -0.26636768
N        1.71743696       0.67906800      -0.13287961
C        2.13420238      -0.59150429       0.18949781
C        1.07030734      -1.46425148       0.21084841
H       -3.18077257      -0.14074352       0.58037315
H       -1.98121444       1.17834371       0.69490791
H       -2.28157562       0.37458053      -0.86433788
H        2.26632496       1.46441755      -0.43979574
H        3.19760125      -0.79105676       0.17143921
H        0.15340828      -0.36454684      -1.16671122
13
Frame=6 idx=011623 GeodesicLength=0.5715593244389741 rxn_smarts="[C:1]([O:2][c:3]1[n:4][n:5]([H:11])[c:6]([H:12])[c:7]1[H:13])([H:8])([H:9])[H:10]>>[C:1]([O:2][C:3]1=[C:7]=[C:6]([H:12])[N:5]([H:11])[N:4]1[H:13])([H:8])([H:9])[H:10]"
C       -2.22401100       0.22916769       0.22248367
O       -1.27381180      -0.76598214       0.56095926
C        0.00256954      -0.52191871       0.26495982
N        0.39525914       0.71683337      -0.28286737
N        1.71691875       0.68120282      -0.13146143
C        2.13363446      -0.58800391       0.19397115
C        1.06639521      -1.45795633       0.19018173
H       -3.18196862      -0.13670588       0.58359832
H       -1.98155327       1.18187724       0.69778336
H       -2.28215379       0.37685880      -0.86062443
H        2.26392843       1.47458037      -0.41902507
H        3.19627739      -0.79052679       0.17013606
H        0.16851557      -0.39942653      -1.19009507
13
Frame=7 idx=011623 GeodesicLength=0.667327153657139 rxn_smarts="[C:1]([O:2][c:3]1[n:4][n:5]([H:11])[c:6]([H:12])[c:7]1[H:13])([H:8])([H:9])[H:10]>>[C:1]([O:2][C:3]1=[C:7]=[C:6]([H:12])[N:5]([H:11])[N:4]1[H:13])([H:8])([H:9])[H:10]"
C       -2.22448514       0.23220755       0.22604913
O       -1.27483409      -0.76238000       0.56697585
C        0.00274244      -0.51395413       0.28042274
N        0.39268326       0.70450004      -0.29840840
N        1.71623996       0.68330692      -0.13008016
C        2.13299096      -0.58479714       0.19744603
C        1.06218519      -1.45107833       0.17143212
H       -3.18312176      -0.13286813       0.58630929
H       -1.98195092       1.18525763       0.70097013
H       -2.28235393       0.37960334      -0.85700910
H        2.26061303       1.48461446      -0.39845402
H        3.19482448      -0.79020623       0.16798782
H        0.18446652      -0.43420597      -1.21364144
13
Frame=8 idx=011623 GeodesicLength=0.7632791481011085 rxn_smarts="[C:1]([O:2][c:3]1[n:4][n:5]([H:11])[c:6]([H:12])[c:7]1[H:13])([H:8])([H:9])[H:10]>>[C:1]([O:2][C:3]1=[C:7]=[C:6]([H:12])[N:5]([H:11])[N:4]1[H:13])([H:8])([H:9])[H:10]"
C       -2.22488597       0.23526608       0.22949167
O       -1.27574016      -0.75874424       0.57275204
C        0.00309362      -0.50574562       0.29622660
N        0.39009922       0.69191939      -0.31296360
N        1.71542126       0.68537985      -0.12874171
C        2.13225108      -0.58185628       0.20005758
C        1.05761882      -1.44370986       0.15423637
H       -3.18424072      -0.12925326       0.58854152
H       -1.98247933       1.18852730       0.70439630
H       -2.28217895       0.38268661      -0.85349007
H        2.25645049       1.49446306      -0.37814839
H        3.19322631      -0.79012047       0.16506146
H        0.20136430      -0.46881255      -1.23741976
13
Frame=9 idx=011623 GeodesicLength=0.8587804559516021 rxn_smarts="[C:1]([O:2][c:3]1[n:4][n:5]([H:11])[c:6]([H:12])[c:7]1[H:13])([H:8])([H:9])[H:10]>>[C:1]([O:2][C:3]1=[C:7]=[C:6]([H:12])[N:5]([H:11])[N:4]1[H:13])([H:8])([H:9])[H:10]"
C       -2.22522735       0.23836116       0.23288922
O       -1.27652413      -0.75509046       0.57827939
C        0.00357623      -0.49735542       0.31213003
N        0.38747923       0.67912049      -0.32676022
N        1.71442700       0.68744756      -0.12743158
C        2.13132244      -0.57913000       0.20198444
C        1.05278906      -1.43588552       0.13809982
H       -3.18530109      -0.12581599       0.59047990
H       -1.98308298       1.19170789       0.70810530
H       -2.28176480       0.38613076      -0.84998052
H        2.25155226       1.50407112      -0.35819135
H        3.19149588      -0.79018459       0.16181843
H        0.21925824      -0.50337699      -1.26142288
13
Frame=10 idx=011623 GeodesicLength=0.9544414647177706 rxn_smarts="[C:1]([O:2][c:3]1[n:4][n:5]([H:11])[c:6]([H:12])[c:7]1[H:13])([H:8])([H:9])[H:10]>>[C:1]([O:2][C:3]1=[C:7]=[C:6]([H:12])[N:5]([H:11])[N:4]1[H:13])([H:8])([H:9])[H:10]"
C       -2.22553675       0.24143775       0.23619724
O       -1.27716036      -0.75129510       0.58381727
C        0.00423939      -0.48858140       0.32860954
N        0.38480490       0.66618479      -0.33949039
N        1.71331367       0.68949767      -0.12612384
C        2.13025724      -0.57664034       0.20327398
C        1.04746312      -1.42766496       0.12295938
H       -3.18634700      -0.12266404       0.59199843
H       -1.98396536       1.19484205       0.71193760
H       -2.28098910       0.38968685      -0.84656024
H        2.24599315       1.51338169      -0.33867012
H        3.18954871      -0.79055945       0.15786312
H        0.23837838      -0.53762552      -1.28581195
13
Frame=11 idx=011623 GeodesicLength=1.0502477663972876 rxn_smarts="[C:1]([O:2][c:3]1[n:4][n:5]([H:11])[c:6]([H:12])[c:7]1[H:13])([H:8])([H:9])[H:10]>>[C:1]([O:2][C:3]1=[C:7]=[C:6]([H:12])[N:5]([H:11])[N:4]1[H:13])([H:8])([H:9])[H:10]"
C       -2.22583571       0.24447174       0.23944456
O       -1.27762085      -0.74729296       0.58950179
C        0.00508560      -0.47935650       0.34573367
N        0.38204606       0.65317821      -0.35111701
N        1.71209269       0.69153020      -0.12481004
C        2.12901579      -0.57439662       0.20398742
C        1.04154669      -1.41904978       0.10856989
H       -3.18738022      -0.11984286       0.59315056
H       -1.98520289       1.19795721       0.71584079
H       -2.27987382       0.39322883      -0.84321248
H        2.23989121       1.52233386      -0.31967073
H        3.18732704      -0.79129200       0.15329689
H        0.25890841      -0.57146933      -1.31071532
13
Frame=12 idx=011623 GeodesicLength=1.146119180032909 rxn_smarts="[C:1]([O:2][c:3]1[n:4][n:5]([H:11])[c:6]([H:12])[c:7]1[H:13])([H:8])([H:9])[H:10]>>[C:1]([O:2][C:3]1=[C:7]=[C:6]([H:12])[N:5]([H:11])[N:4]1[H:13])([H:8])([H:9])[H:10]"
C       -2.22614530       0.24744106       0.24266268
O       -1.27788020      -0.74301497       0.59548538
C        0.00611348      -0.46963346       0.36352939
N        0.37916829       0.64015658      -0.36163665
N        1.71076706       0.69354262      -0.12347159
C        2.12754185      -0.57241461       0.20417653
C        1.03495027      -1.41002732       0.09471092
H       -3.18840219      -0.11737764       0.59401421
H       -1.98685529       1.20109114       0.71974027
H       -2.27845298       0.39660668      -0.83991992
H        2.23335065       1.53088033      -0.30123678
H        3.18478008      -0.79243961       0.14820199
H        0.28106428      -0.60481080      -1.33625643
13
Frame=13 idx=011623 GeodesicLength=1.2420116482835906 rxn_smarts="[C:1]([O:2][c:3]1[n:4][n:5]([H:11])[c:6]([H:12])[c:7]1[H:13])([H:8])([H:9])[H:10]>>[C:1]([O:2][C:3]1=[C:7]=[C:6]([H:12])[N:5]([H:11])[N:4]1[H:13])([H:8])([H:9])[H:10]"
C       -2.22649100       0.25032214       0.24589145
O       -1.27792255      -0.73839461       0.60191184
C        0.00731672      -0.45937475       0.38198616
N        0.37613392       0.62719923      -0.37102544
N        1.70933995       0.69553145      -0.12209178
C        2.12577981      -0.57071472       0.20388863
C        1.02757673      -1.40057535       0.08115258
H       -3.18941721      -0.11530148       0.59467135
H       -1.98898578       1.20426945       0.72358517
H       -2.27676746       0.39968724      -0.83665387
H        2.22650944       1.53897022      -0.28346305
H        3.18182766      -0.79404963       0.14270804
H        0.30509976      -0.63756919      -1.36256109
13
Frame=14 idx=011623 GeodesicLength=1.3378188155372368 rxn_smarts="[C:1]([O:2][c:3]1[n:4][n:5]([H:11])[c:6]([H:12])[c:7]1[H:13])([H:8])([H:9])[H:10]>>[C:1]([O:2][C:3]1=[C:7]=[C:6]([H:12])[N:5]([H:11])[N:4]1[H:13])([H:8])([H:9])[H:10]"
C       -2.22689538       0.25310273       0.24916967
O       -1.27772811      -0.73337213       0.60891346
C        0.00868209      -0.44856421       0.40104131
N        0.37290319       0.61437178      -0.37931164
N        1.70780628       0.69749441      -0.12066091
C        2.12365633      -0.56930800       0.20318156
C        1.01935442      -1.39066623       0.06770843
H       -3.19042222      -0.11362408       0.59522662
H       -1.99163362       1.20753627       0.72731540
H       -2.27487897       0.40234402      -0.83338969
H        2.21945694       1.54656684      -0.26636488
H        3.17842853      -0.79618137       0.13690142
H        0.33127051      -0.66970003      -1.38973074
13
Frame=15 idx=011623 GeodesicLength=1.433494838875414 rxn_smarts="[C:1]([O:2][c:3]1[n:4][n:5]([H:11])[c:6]([H:12])[c:7]1[H:13])([H:8])([H:9])[H:10]>>[C:1]([O:2][C:3]1=[C:7]=[C:6]([H:12])[N:5]([H:11])[N:4]1[H:13])([H:8])([H:9])[H:10]"
C       -2.22738882       0.25576930       0.25254468
O       -1.27729065      -0.72789528       0.61661082
C        0.01019171      -0.43719388       0.42060587
N        0.36943200       0.60175430      -0.38651532
N        1.70615654       0.69942823      -0.11916329
C        2.12109705      -0.56821071       0.20211278
C        1.01020396      -1.38026750       0.05417293
H       -3.19142278      -0.11235781       0.59579266
H       -1.99483665       1.21092153       0.73089201
H       -2.27285935       0.40446318      -0.83009060
H        2.21232365       1.55364004      -0.25001456
H        3.17451637      -0.79888829       0.13091324
H        0.35987697      -0.70116313      -1.41786122
13
Frame=16 idx=011623 GeodesicLength=1.528987037680958 rxn_smarts="[C:1]([O:2][c:3]1[n:4][n:5]([H:11])[c:6]([H:12])[c:7]1[H:13])([H:8])([H:9])[H:10]>>[C:1]([O:2][C:3]1=[C:7]=[C:6]([H:12])[N:5]([H:11])[N:4]1[H:13])([H:8])([H:9])[H:10]"
C       -2.22800192       0.25831713       0.25606730
O       -1.27661384      -0.72192519       0.62509645
C        0.01182067      -0.42527648       0.44054682
N        0.36567490       0.58942934      -0.39268093
N        1.70437698       0.70133307      -0.11759549
C        2.11803250      -0.56743617       0.20072953
C        1.00006516      -1.36934765       0.04035007
H       -3.19242548      -0.11149990       0.59649185
H       -1.99861496       1.21445535       0.73429471
H       -2.27079443       0.40596117      -0.82671514
H        2.20521409       1.56016475      -0.23446566
H        3.17003353      -0.80221482       0.12488563
H        0.39123280      -0.73196060      -1.44700514
