13
Frame=0 idx=008343 GeodesicLength=0.0 rxn_smarts="[O:1]([C@@:2]([C:3]([C:4]#[C:5][H:12])([H:10])[H:11])([C:6]#[C:7][H:13])[H:9])[H:8]>>[O:1](/[C:5](=[C:4]1\[C:3]([H:10])([H:11])[C:2]([H:9])=[C:6]=[C:7]1[H:13])[H:12])[H:8]"
O       -1.02122369      -0.08829469       1.16182048
C        0.15494236      -0.86131612       0.63352209
C       -0.29976401      -0.98909230      -0.79455084
C       -0.13543781       0.54254593      -0.88521985
C       -1.11488091       1.15702526      -0.16184052
C        1.38757692       0.02567877       0.43001615
C        1.34145235       0.82876458      -0.60692885
H       -0.73747615       0.44599999       1.91266606
H        0.25574572      -1.71831687       1.29665253
H       -1.32228960      -1.34707027      -0.91213936
H        0.38702399      -1.53069289      -1.43694923
H       -0.91870784       2.02778097       0.45403963
H        2.02303861       1.50698764      -1.09108830
13
Frame=1 idx=008343 GeodesicLength=0.1521051136732424 rxn_smarts="[O:1]([C@@:2]([C:3]([C:4]#[C:5][H:12])([H:10])[H:11])([C:6]#[C:7][H:13])[H:9])[H:8]>>[O:1](/[C:5](=[C:4]1\[C:3]([H:10])([H:11])[C:2]([H:9])=[C:6]=[C:7]1[H:13])[H:12])[H:8]"
O       -1.02678301      -0.08135199       1.17527473
C        0.17437406      -0.87303205       0.63097874
C       -0.30424922      -0.98866131      -0.79257095
C       -0.14888127       0.54182836      -0.88487303
C       -1.12185861       1.16340252      -0.16836874
C        1.40654532       0.00349027       0.42582984
C        1.35770648       0.82533955      -0.59510411
H       -0.74998311       0.47055912       1.91533427
H        0.27983879      -1.74274282       1.27643200
H       -1.32401985      -1.36092477      -0.88887916
H        0.36548424      -1.52791417      -1.45485155
H       -0.94311265       2.05203347       0.42577635
H        2.03493886       1.51797381      -1.06497838
13
Frame=2 idx=008343 GeodesicLength=0.3039331401873458 rxn_smarts="[O:1]([C@@:2]([C:3]([C:4]#[C:5][H:12])([H:10])[H:11])([C:6]#[C:7][H:13])[H:9])[H:8]>>[O:1](/[C:5](=[C:4]1\[C:3]([H:10])([H:11])[C:2]([H:9])=[C:6]=[C:7]1[H:13])[H:12])[H:8]"
O       -1.03229602      -0.07380573       1.18927596
C        0.19439191      -0.88537165       0.62800782
C       -0.30888464      -0.98832071      -0.79025834
C       -0.16282413       0.54090869      -0.88429494
C       -1.12900600       1.17000824      -0.17478992
C        1.42591646      -0.01917859       0.42112593
C        1.37437327       0.82172563      -0.58292217
H       -0.76286305       0.49591763       1.91791805
H        0.30464144      -1.76788186       1.25488786
H       -1.32534456      -1.37472563      -0.86503286
H        0.34306764      -1.52491251      -1.47238362
H       -0.96789876       2.07635903       0.39601891
H        2.04672644       1.52927746      -1.03755269
13
Frame=3 idx=008343 GeodesicLength=0.45554035121022074 rxn_smarts="[O:1]([C@@:2]([C:3]([C:4]#[C:5][H:12])([H:10])[H:11])([C:6]#[C:7][H:13])[H:9])[H:8]>>[O:1](/[C:5](=[C:4]1\[C:3]([H:10])([H:11])[C:2]([H:9])=[C:6]=[C:7]1[H:13])[H:12])[H:8]"
O       -1.03777238      -0.06560373       1.20383755
C        0.21504828      -0.89837064       0.62455384
C       -0.31367102      -0.98807127      -0.78758299
C       -0.17729879       0.53977968      -0.88346991
C       -1.13631971       1.17686721      -0.18109630
C        1.44571259      -0.04231375       0.41585793
C        1.39148971       0.81790106      -0.57039398
H       -0.77620768       0.52208956       1.92043616
H        0.33022261      -1.79372829       1.23193727
H       -1.32626007      -1.38845032      -0.84057041
H        0.31972182      -1.52170411      -1.48950232
H       -0.99305900       2.10071689       0.36470844
H        2.05839365       1.54088770      -1.00871529
13
Frame=4 idx=008343 GeodesicLength=0.606973287269968 rxn_smarts="[O:1]([C@@:2]([C:3]([C:4]#[C:5][H:12])([H:10])[H:11])([C:6]#[C:7][H:13])[H:9])[H:8]>>[O:1](/[C:5](=[C:4]1\[C:3]([H:10])([H:11])[C:2]([H:9])=[C:6]=[C:7]1[H:13])[H:12])[H:8]"
O       -1.04321186      -0.05669247       1.21898259
C        0.23639551      -0.91206051       0.62055951
C       -0.31861013      -0.98791089      -0.78451068
C       -0.19233977       0.53843723      -0.88237406
C       -1.14379609       1.18401101      -0.18727278
C        1.46596444      -0.06590421       0.40996925
C        1.40910241       0.81384916      -0.55753784
H       -0.79012328       0.54910088       1.92290935
H        0.35666415      -1.82028831       1.20745825
H       -1.32675436      -1.40207350      -0.81545445
H        0.29538141      -1.51830581      -1.50614379
H       -1.01861497       2.12506681       0.33176531
H        2.06994254       1.55277060      -0.97835064
13
Frame=5 idx=008343 GeodesicLength=0.7582564685954196 rxn_smarts="[O:1]([C@@:2]([C:3]([C:4]#[C:5][H:12])([H:10])[H:11])([C:6]#[C:7][H:13])[H:9])[H:8]>>[O:1](/[C:5](=[C:4]1\[C:3]([H:10])([H:11])[C:2]([H:9])=[C:6]=[C:7]1[H:13])[H:12])[H:8]"
O       -1.04862422      -0.04701848       1.23473190
C        0.25848729      -0.92647107       0.61596942
C       -0.32369926      -0.98783023      -0.78100613
C       -0.20797906       0.53688355      -0.88097738
C       -1.15142435       1.19147584      -0.19329928
C        1.48669913      -0.08993158       0.40341611
C        1.42725903       0.80955702      -0.54434970
H       -0.80471135       0.57696568       1.92535989
H        0.38404096      -1.84756226       1.18133153
H       -1.32682266      -1.41556116      -0.78965935
H        0.26999442      -1.51473039      -1.52224205
H       -1.04461033       2.14935449       0.29711680
H        2.08139041       1.56486858      -0.94639177
13
Frame=6 idx=008343 GeodesicLength=0.9094599766113254 rxn_smarts="[O:1]([C@@:2]([C:3]([C:4]#[C:5][H:12])([H:10])[H:11])([C:6]#[C:7][H:13])[H:9])[H:8]>>[O:1](/[C:5](=[C:4]1\[C:3]([H:10])([H:11])[C:2]([H:9])=[C:6]=[C:7]1[H:13])[H:12])[H:8]"
O       -1.05401347      -0.03650413       1.25111671
C        0.28139561      -0.94164766       0.61069335
C       -0.32893414      -0.98782501      -0.77702109
C       -0.22424732       0.53511266      -0.87923978
C       -1.15919279       1.19930211      -0.19915924
C        1.50795940      -0.11438516       0.39612346
C        1.44601461       0.80501647      -0.53084983
H       -0.82011118       0.60573265       1.92781731
H        0.41243728      -1.87556321       1.15338368
H       -1.32644790      -1.42888182      -0.76311346
H        0.24348046      -1.51099888      -1.53771750
H       -1.07108504       2.17351436       0.26065801
H        2.09274446       1.57712763      -0.91269161
13
Frame=7 idx=008343 GeodesicLength=1.0606040067519726 rxn_smarts="[O:1]([C@@:2]([C:3]([C:4]#[C:5][H:12])([H:10])[H:11])([C:6]#[C:7][H:13])[H:9])[H:8]>>[O:1](/[C:5](=[C:4]1\[C:3]([H:10])([H:11])[C:2]([H:9])=[C:6]=[C:7]1[H:13])[H:12])[H:8]"
O       -1.05938201      -0.02508180       1.26816510
C        0.30519227      -0.95763163       0.60463823
C       -0.33430210      -0.98787957      -0.77250867
C       -0.24117557       0.53313157      -0.87711914
C       -1.16708852       1.20753259      -0.20483118
C        1.52978496      -0.13924526       0.38803737
C        1.46542243       0.80021977      -0.51703325
H       -0.83645367       0.63543671       1.93031583
H        0.44190661      -1.90428995       1.12346022
H       -1.32561015      -1.44200040      -0.73576330
H        0.21577393      -1.50711915      -1.55249098
H       -1.09810416       2.19746152       0.22229859
H        2.10403599       1.58946560      -0.87716883
13
Frame=8 idx=008343 GeodesicLength=1.2117281803926652 rxn_smarts="[O:1]([C@@:2]([C:3]([C:4]#[C:5][H:12])([H:10])[H:11])([C:6]#[C:7][H:13])[H:9])[H:8]>>[O:1](/[C:5](=[C:4]1\[C:3]([H:10])([H:11])[C:2]([H:9])=[C:6]=[C:7]1[H:13])[H:12])[H:8]"
O       -1.06471733      -0.01265670       1.28592370
C        0.32995328      -0.97447059       0.59769501
C       -0.33979087      -0.98797464      -0.76740752
C       -0.25878830       0.53094974      -0.87455390
C       -1.17508094       1.21622842      -0.21028527
C        1.55222865      -0.16450328       0.37907738
C        1.48555876       0.79516728      -0.50290039
H       -0.85390765       0.66614404       1.93288718
H        0.47252373      -1.93375974       1.09132677
H       -1.32427924      -1.45486598      -0.70752748
H        0.18679256      -1.50310347      -1.56644808
H       -1.12578846       2.22108055       0.18190863
H        2.11529580       1.60176438      -0.83969602
13
Frame=9 idx=008343 GeodesicLength=1.363373129497524 rxn_smarts="[O:1]([C@@:2]([C:3]([C:4]#[C:5][H:12])([H:10])[H:11])([C:6]#[C:7][H:13])[H:9])[H:8]>>[O:1](/[C:5](=[C:4]1\[C:3]([H:10])([H:11])[C:2]([H:9])=[C:6]=[C:7]1[H:13])[H:12])[H:8]"
O       -1.07013781       0.00099529       1.30444877
C        0.35590493      -0.99231552       0.58958687
C       -0.34536876      -0.98818759      -0.76159820
C       -0.27711373       0.52845804      -0.87137013
C       -1.18311213       1.22542812      -0.21556199
C        1.57540248      -0.19023268       0.36904177
C        1.50655056       0.78986247      -0.48847896
H       -0.87303856       0.69808954       1.93547886
H        0.50441841      -1.96403030       1.05667865
H       -1.32242742      -1.46752297      -0.67807327
H        0.15638910      -1.49894226      -1.57958235
H       -1.15389338       2.24427153       0.13947494
H        2.12642630       1.61412633      -0.80004495
13
Frame=10 idx=008343 GeodesicLength=1.5149725360491517 rxn_smarts="[O:1]([C@@:2]([C:3]([C:4]#[C:5][H:12])([H:10])[H:11])([C:6]#[C:7][H:13])[H:9])[H:8]>>[O:1](/[C:5](=[C:4]1\[C:3]([H:10])([H:11])[C:2]([H:9])=[C:6]=[C:7]1[H:13])[H:12])[H:8]"
O       -1.07548546       0.01589380       1.32378642
C        0.38299439      -1.01110204       0.58030691
C       -0.35102592      -0.98840634      -0.75504935
C       -0.29615075       0.52577308      -0.86758972
C       -1.19116941       1.23520926      -0.22058993
C        1.59933582      -0.21635631       0.35789290
C        1.52843690       0.78431522      -0.47372729
H       -0.89373654       0.73119021       1.93817993
H        0.53757958      -1.99503959       1.01926232
H       -1.31999149      -1.47984051      -0.64747547
H        0.12448729      -1.49469299      -1.59164517
H       -1.18288078       2.26684778       0.09475465
H        2.13760637       1.62620843      -0.75810620
13
Frame=11 idx=008343 GeodesicLength=1.6665070387497207 rxn_smarts="[O:1]([C@@:2]([C:3]([C:4]#[C:5][H:12])([H:10])[H:11])([C:6]#[C:7][H:13])[H:9])[H:8]>>[O:1](/[C:5](=[C:4]1\[C:3]([H:10])([H:11])[C:2]([H:9])=[C:6]=[C:7]1[H:13])[H:12])[H:8]"
O       -1.08076917       0.03215419       1.34397234
C        0.41131162      -1.03088046       0.56970792
C       -0.35673024      -0.98860272      -0.74769134
C       -0.31591269       0.52290885      -0.86313320
C       -1.19920108       1.24563316      -0.22535996
C        1.62409361      -0.24287105       0.34553432
C        1.55129610       0.77852165      -0.45860169
H       -0.91622326       0.76552227       1.94100353
H        0.57204534      -2.02676435       0.97884764
H       -1.31692983      -1.49176713      -0.61561588
H        0.09099978      -1.49035015      -1.60253318
H       -1.21289056       2.28863474       0.04765877
H        2.14891039       1.63786099      -0.71378925
13
Frame=12 idx=008343 GeodesicLength=1.8179761466241926 rxn_smarts="[O:1]([C@@:2]([C:3]([C:4]#[C:5][H:12])([H:10])[H:11])([C:6]#[C:7][H:13])[H:9])[H:8]>>[O:1](/[C:5](=[C:4]1\[C:3]([H:10])([H:11])[C:2]([H:9])=[C:6]=[C:7]1[H:13])[H:12])[H:8]"
O       -1.08596374       0.04993349       1.36506352
C        0.44095823      -1.05169427       0.55760036
C       -0.36244951      -0.98875108      -0.73943242
C       -0.33640230       0.51987378      -0.85790334
C       -1.20714439       1.25677933      -0.22986831
C        1.64976535      -0.26978637       0.33181027
C        1.57524480       0.77248729      -0.44306977
H       -0.94080762       0.80117052       1.94394770
H        0.60785652      -2.05916857       0.93511345
H       -1.31317892      -1.50324364      -0.58232333
H        0.05579183      -1.48592770      -1.61208858
H       -1.24408002       2.30941547      -0.00193800
H        2.16040977       1.64891177      -0.66691155
13
Frame=13 idx=008343 GeodesicLength=1.9693066686507965 rxn_smarts="[O:1]([C@@:2]([C:3]([C:4]#[C:5][H:12])([H:10])[H:11])([C:6]#[C:7][H:13])[H:9])[H:8]>>[O:1](/[C:5](=[C:4]1\[C:3]([H:10])([H:11])[C:2]([H:9])=[C:6]=[C:7]1[H:13])[H:12])[H:8]"
O       -1.09105593       0.06939134       1.38710440
C        0.47202183      -1.07358701       0.54380554
C       -0.36814100      -0.98880656      -0.73019180
C       -0.35761742       0.51669405      -0.85179616
C       -1.21490735       1.26873706      -0.23410696
C        1.67642404      -0.29711159       0.31657422
C        1.60038514       0.76620413      -0.42705599
H       -0.96776732       0.83821108       1.94700388
H        0.64501673      -2.09220379       0.88776570
H       -1.30866897      -1.51418564      -0.54744143
H        0.01876114      -1.48141940      -1.62015488
H       -1.27667435       2.32891188      -0.05414376
H        2.17222347       1.65916445      -0.61736276
13
Frame=14 idx=008343 GeodesicLength=2.1205174999881056 rxn_smarts="[O:1]([C@@:2]([C:3]([C:4]#[C:5][H:12])([H:10])[H:11])([C:6]#[C:7][H:13])[H:9])[H:8]>>[O:1](/[C:5](=[C:4]1\[C:3]([H:10])([H:11])[C:2]([H:9])=[C:6]=[C:7]1[H:13])[H:12])[H:8]"
O       -1.09600715       0.09078671       1.41015934
C        0.50462487      -1.09660159       0.52805845
C       -0.37375143      -0.98873167      -0.71983474
C       -0.37954105       0.51338294      -0.84469345
C       -1.22237921       1.28162289      -0.23810799
C        1.70418404      -0.32487089       0.29958240
C        1.62686216       0.75967468      -0.41050174
H       -0.99750436       0.87676895       1.95012166
H        0.68353144      -2.12581993       0.83631513
H       -1.30327769      -1.52451157      -0.51068322
H       -0.02027633      -1.47686248      -1.62648735
H       -1.31092217       2.34677676      -0.10909283
H        2.18445688       1.66838523      -0.56483565
13
Frame=15 idx=008343 GeodesicLength=2.271545646258386 rxn_smarts="[O:1]([C@@:2]([C:3]([C:4]#[C:5][H:12])([H:10])[H:11])([C:6]#[C:7][H:13])[H:9])[H:8]>>[O:1](/[C:5](=[C:4]1\[C:3]([H:10])([H:11])[C:2]([H:9])=[C:6]=[C:7]1[H:13])[H:12])[H:8]"
O       -1.10078815       0.11440220       1.43428001
C        0.53887556      -1.12077298       0.51006088
C       -0.37920694      -0.98847528      -0.70821843
C       -0.40214881       0.50996062      -0.83646370
C       -1.22941816       1.29555724      -0.24190596
C        1.73313550      -0.35306952       0.28058177
C        1.65480792       0.75287778      -0.39329789
H       -1.03042055       0.91694455       1.95322684
H        0.72334553      -2.15992229       0.78025432
H       -1.29684196      -1.53411657      -0.47175160
H       -0.06150280      -1.47228418      -1.63080381
H       -1.34709658       2.36257678      -0.16690610
H        2.19725944       1.67632164      -0.50905633
13
Frame=16 idx=008343 GeodesicLength=2.422383888716308 rxn_smarts="[O:1]([C@@:2]([C:3]([C:4]#[C:5][H:12])([H:10])[H:11])([C:6]#[C:7][H:13])[H:9])[H:8]>>[O:1](/[C:5](=[C:4]1\[C:3]([H:10])([H:11])[C:2]([H:9])=[C:6]=[C:7]1[H:13])[H:12])[H:8]"
O       -1.10529123       0.14062600       1.45953593
C        0.57490305      -1.14612269       0.48942849
C       -0.38444931      -0.98799088      -0.69516565
C       -0.42538901       0.50644681      -0.82698037
C       -1.23580434       1.31071158      -0.24558352
C        1.76342461      -0.38175221       0.25918973
C        1.68443235       0.74577838      -0.37536957
H       -1.06695876       0.95887252       1.95617479
H        0.76438559      -2.19438453       0.71892717
H       -1.28917172      -1.54286998      -0.43021882
H       -0.10522537      -1.46777578      -1.63274159
H       -1.38561151       2.37574661      -0.22778614
H        2.21075564       1.68271416      -0.44941047
