12
Frame=0 idx=005625 GeodesicLength=0.0 rxn_smarts="[C:1]1([H:7])([H:8])[C@@:2]2([H:9])[C@@:3]3([H:10])[O:4][C@:5]1([H:11])[C@@:6]23[H:12]>>[C:1]1([H:7])([H:8])[C:2][C@@:3]2([H:10])[O:4][C@:5]1([H:11])[C:6]2([H:9])[H:12]"
C        1.08765187      -0.30450246      -0.59482510
C        0.35568309       1.07318709      -0.55769028
C       -1.06798122       0.56644307      -0.38481670
O       -1.15388787      -0.84164410      -0.64602098
C       -0.01076345      -0.97101220       0.22298016
C       -0.38200042       0.36421571       0.92891429
H        2.05863224      -0.25791281      -0.10397163
H        1.19231953      -0.70702385      -1.60262500
H        0.54188600       1.22524693       0.75525815
H       -1.94152485       1.16100139      -0.61185005
H        0.07641715      -1.95068529       0.68751518
H       -0.75643205       0.64268654       1.90713192
12
Frame=1 idx=005625 GeodesicLength=0.04738987702045108 rxn_smarts="[C:1]1([H:7])([H:8])[C@@:2]2([H:9])[C@@:3]3([H:10])[O:4][C@:5]1([H:11])[C@@:6]23[H:12]>>[C:1]1([H:7])([H:8])[C:2][C@@:3]2([H:10])[O:4][C@:5]1([H:11])[C:6]2([H:9])[H:12]"
C        1.08762148      -0.30644454      -0.59771561
C        0.35756335       1.06860499      -0.55913420
C       -1.06663372       0.56701346      -0.38535349
O       -1.15526969      -0.84157762      -0.64189713
C       -0.01022495      -0.97011186       0.22484137
C       -0.37953845       0.36566220       0.93026041
H        2.05985666      -0.26098772      -0.10902178
H        1.19091307      -0.70993296      -1.60551300
H        0.54519565       1.24367315       0.76019103
H       -1.93890097       1.16360095      -0.61221623
H        0.07855764      -1.94958580       0.68935169
H       -0.76914007       0.63008575       1.90620696
12
Frame=2 idx=005625 GeodesicLength=0.09477355567026213 rxn_smarts="[C:1]1([H:7])([H:8])[C@@:2]2([H:9])[C@@:3]3([H:10])[O:4][C@:5]1([H:11])[C@@:6]23[H:12]>>[C:1]1([H:7])([H:8])[C:2][C@@:3]2([H:10])[O:4][C@:5]1([H:11])[C:6]2([H:9])[H:12]"
C        1.08757958      -0.30843921      -0.60057932
C        0.35947725       1.06401224      -0.56045082
C       -1.06526069       0.56757646      -0.38586342
O       -1.15664418      -0.84149157      -0.63776712
C       -0.00969961      -0.96923546       0.22671866
C       -0.37707411       0.36709037       0.93166964
H        2.06105081      -0.26413466      -0.11401960
H        1.18948299      -0.71282943      -1.60839701
H        0.54828186       1.26244074       0.76502152
H       -1.93622750       1.16621516      -0.61256444
H        0.08065948      -1.94852277       0.69117738
H       -0.78162588       0.61731812       1.90505454
12
Frame=3 idx=005625 GeodesicLength=0.14215154690792978 rxn_smarts="[C:1]1([H:7])([H:8])[C@@:2]2([H:9])[C@@:3]3([H:10])[O:4][C@:5]1([H:11])[C@@:6]23[H:12]>>[C:1]1([H:7])([H:8])[C:2][C@@:3]2([H:10])[O:4][C@:5]1([H:11])[C:6]2([H:9])[H:12]"
C        1.08752614      -0.31048729      -0.60341513
C        0.36142584       1.05940772      -0.56163485
C       -1.06386140       0.56813076      -0.38634559
O       -1.15801079      -0.84138645      -0.63363558
C       -0.00918840      -0.96838699       0.22860935
C       -0.37461072       0.36849282       0.93314383
H        2.06221466      -0.26735783      -0.11896323
H        1.18803070      -0.71570972      -1.61127763
H        0.55113311       1.28155398       0.76974793
H       -1.93350347       1.16884294      -0.61289305
H        0.08272056      -1.94750184       0.69298650
H       -0.79387624       0.60440188       1.90367745
12
Frame=4 idx=005625 GeodesicLength=0.18952525047293461 rxn_smarts="[C:1]1([H:7])([H:8])[C@@:2]2([H:9])[C@@:3]3([H:10])[O:4][C@:5]1([H:11])[C@@:6]23[H:12]>>[C:1]1([H:7])([H:8])[C:2][C@@:3]2([H:10])[O:4][C@:5]1([H:11])[C:6]2([H:9])[H:12]"
C        1.08746132      -0.31258942      -0.60622189
C        0.36341013       1.05479031      -0.56268167
C       -1.06243503       0.56867517      -0.38679939
O       -1.15936902      -0.84126280      -0.62950712
C       -0.00869222      -0.96757027       0.23051076
C       -0.37215145       0.36986247       0.93468448
H        2.06334821      -0.27066168      -0.12385106
H        1.18655768      -0.71857031      -1.61415551
H        0.55373808       1.30101713       0.77436805
H       -1.93072774       1.17148348      -0.61320087
H        0.08473880      -1.94652841       0.69477355
H       -0.80587876       0.59135434       1.90208067
12
Frame=5 idx=005625 GeodesicLength=0.2368958731203452 rxn_smarts="[C:1]1([H:7])([H:8])[C@@:2]2([H:9])[C@@:3]3([H:10])[O:4][C@:5]1([H:11])[C@@:6]23[H:12]>>[C:1]1([H:7])([H:8])[C:2][C@@:3]2([H:10])[O:4][C@:5]1([H:11])[C:6]2([H:9])[H:12]"
C        1.08738545      -0.31474675      -0.60899883
C        0.36543159       1.05015892      -0.56358661
C       -1.06098043       0.56920860      -0.38722413
O       -1.16071822      -0.84112098      -0.62538700
C       -0.00821206      -0.96678952       0.23241982
C       -0.36969859       0.37119172       0.93629293
H        2.06445167      -0.27405095      -0.12868160
H        1.18506588      -0.72140830      -1.61703137
H        0.55608348       1.32083617       0.77887919
H       -1.92789909       1.17413580      -0.61348596
H        0.08671161      -1.94560838       0.69653249
H       -0.81762127       0.57819369       1.90027107
12
Frame=6 idx=005625 GeodesicLength=0.2842671336333503 rxn_smarts="[C:1]1([H:7])([H:8])[C@@:2]2([H:9])[C@@:3]3([H:10])[O:4][C@:5]1([H:11])[C@@:6]23[H:12]>>[C:1]1([H:7])([H:8])[C:2][C@@:3]2([H:10])[O:4][C@:5]1([H:11])[C:6]2([H:9])[H:12]"
C        1.08729874      -0.31695978      -0.61174535
C        0.36749125       1.04551182      -0.56434614
C       -1.05949648       0.56973001      -0.38761939
O       -1.16205810      -0.84096168      -0.62127939
C       -0.00774859      -0.96604865       0.23433372
C       -0.36725479       0.37247356       0.93797012
H        2.06552532      -0.27752963      -0.13345385
H        1.18355663      -0.72422045      -1.61990626
H        0.55815803       1.34101442       0.78328043
H       -1.92501584       1.17679963      -0.61374731
H        0.08863727      -1.94474705       0.69825791
H       -0.82909343       0.56493779       1.89825552
12
Frame=7 idx=005625 GeodesicLength=0.33163452424688156 rxn_smarts="[C:1]1([H:7])([H:8])[C@@:2]2([H:9])[C@@:3]3([H:10])[O:4][C@:5]1([H:11])[C@@:6]23[H:12]>>[C:1]1([H:7])([H:8])[C:2][C@@:3]2([H:10])[O:4][C@:5]1([H:11])[C:6]2([H:9])[H:12]"
C        1.08720178      -0.31923001      -0.61446074
C        0.36959193       1.04084882      -0.56495370
C       -1.05798162       0.57023829      -0.38798404
O       -1.16338788      -0.84078525      -0.61718930
C       -0.00730253      -0.96535234       0.23624939
C       -0.36482178       0.37369989       0.93971740
H        2.06656977      -0.28110364      -0.13816673
H        1.18203155      -0.72700271      -1.62278175
H        0.55994767       1.36155824       0.78756507
H       -1.92207615       1.17947410      -0.61398271
H        0.09051331      -1.94395084       0.69994384
H       -0.84028605       0.55160545       1.89604326
12
Frame=8 idx=005625 GeodesicLength=0.37900956113120343 rxn_smarts="[C:1]1([H:7])([H:8])[C@@:2]2([H:9])[C@@:3]3([H:10])[O:4][C@:5]1([H:11])[C@@:6]23[H:12]>>[C:1]1([H:7])([H:8])[C:2][C@@:3]2([H:10])[O:4][C@:5]1([H:11])[C:6]2([H:9])[H:12]"
C        1.08709490      -0.32155776      -0.61714446
C        0.37173416       1.03616782      -0.56540706
C       -1.05643470       0.57073276      -0.38831780
O       -1.16470734      -0.84059212      -0.61312103
C       -0.00687470      -0.96470429       0.23816398
C       -0.36240184       0.37486393       0.94153549
H        2.06758535      -0.28477675      -0.14281925
H        1.18049245      -0.72975256      -1.62565840
H        0.56144381       1.38247281       0.79173063
H       -1.91907844       1.18215929      -0.61419094
H        0.09233763      -1.94322472       0.70158498
H       -0.85119126       0.53821161       1.89364386
12
Frame=9 idx=005625 GeodesicLength=0.4263892549608902 rxn_smarts="[C:1]1([H:7])([H:8])[C@@:2]2([H:9])[C@@:3]3([H:10])[O:4][C@:5]1([H:11])[C@@:6]23[H:12]>>[C:1]1([H:7])([H:8])[C:2][C@@:3]2([H:10])[O:4][C@:5]1([H:11])[C:6]2([H:9])[H:12]"
C        1.08697888      -0.32394451      -0.61979613
C        0.37392155       1.03146856      -0.56570113
C       -1.05485380       0.57121272      -0.38861911
O       -1.16601577      -0.84038223      -0.60907864
C       -0.00646552      -0.96410856       0.24007497
C       -0.35999523       0.37595884       0.94342552
H        2.06857305      -0.28855539      -0.14741139
H        1.17894037      -0.73246663      -1.62853795
H        0.56263205       1.40376503       0.79577091
H       -1.91602029       1.18485480      -0.61436920
H        0.09410798      -1.94257437       0.70317610
H       -0.86180326       0.52477173       1.89106604
12
Frame=10 idx=005625 GeodesicLength=0.47377411718775453 rxn_smarts="[C:1]1([H:7])([H:8])[C@@:2]2([H:9])[C@@:3]3([H:10])[O:4][C@:5]1([H:11])[C@@:6]23[H:12]>>[C:1]1([H:7])([H:8])[C:2][C@@:3]2([H:10])[O:4][C@:5]1([H:11])[C:6]2([H:9])[H:12]"
C        1.08685430      -0.32639128      -0.62241598
C        0.37615564       1.02674930      -0.56583219
C       -1.05323683       0.57167768      -0.38888787
O       -1.16731298      -0.84015607      -0.60506611
C       -0.00607543      -0.96356949       0.24197914
C       -0.35760335       0.37697727       0.94538797
H        2.06953371      -0.29244362      -0.15194273
H        1.17737690      -0.73514173      -1.63142220
H        0.56349884       1.42543825       0.79968321
H       -1.91289905       1.18756108      -0.61451670
H        0.09582241      -1.94200546       0.70471186
H       -0.87211416       0.51130406       1.88832162
12
Frame=11 idx=005625 GeodesicLength=0.5211624935811285 rxn_smarts="[C:1]1([H:7])([H:8])[C@@:2]2([H:9])[C@@:3]3([H:10])[O:4][C@:5]1([H:11])[C@@:6]23[H:12]>>[C:1]1([H:7])([H:8])[C:2][C@@:3]2([H:10])[O:4][C@:5]1([H:11])[C:6]2([H:9])[H:12]"
C        1.08672186      -0.32889901      -0.62500386
C        0.37843979       1.02200917      -0.56579592
C       -1.05158150       0.57212738      -0.38912270
O       -1.16859852      -0.83991356      -0.60108659
C       -0.00570462      -0.96309086       0.24387428
C       -0.35522608       0.37791285       0.94742386
H        2.07046836      -0.29644726      -0.15641394
H        1.17580284      -0.73777473      -1.63431283
H        0.56403101       1.44749821       0.80346054
H       -1.90971146       1.19027895      -0.61463119
H        0.09747927      -1.94152309       0.70618751
H       -0.88212095       0.49782196       1.88542085
12
Frame=12 idx=005625 GeodesicLength=0.5685519373275724 rxn_smarts="[C:1]1([H:7])([H:8])[C@@:2]2([H:9])[C@@:3]3([H:10])[O:4][C@:5]1([H:11])[C@@:6]23[H:12]>>[C:1]1([H:7])([H:8])[C:2][C@@:3]2([H:10])[O:4][C@:5]1([H:11])[C:6]2([H:9])[H:12]"
C        1.08658252      -0.33146895      -0.62755973
C        0.38077707       1.01724737      -0.56558790
C       -1.04988520       0.57256183      -0.38932244
O       -1.16987194      -0.83965431      -0.59714353
C       -0.00535341      -0.96267661       0.24575781
C       -0.35286331       0.37875904       0.94953419
H        2.07137819      -0.30057214      -0.16082512
H        1.17421943      -0.74036239      -1.63721154
H        0.56421466       1.46995107       0.80709440
H       -1.90645421       1.19300930      -0.61471078
H        0.09907627      -1.94113251       0.70759818
H       -0.89182008       0.48433830       1.88237648
12
Frame=13 idx=005625 GeodesicLength=0.6159406390629591 rxn_smarts="[C:1]1([H:7])([H:8])[C@@:2]2([H:9])[C@@:3]3([H:10])[O:4][C@:5]1([H:11])[C@@:6]23[H:12]>>[C:1]1([H:7])([H:8])[C:2][C@@:3]2([H:10])[O:4][C@:5]1([H:11])[C:6]2([H:9])[H:12]"
C        1.08643726      -0.33410237      -0.63008390
C        0.38317116       1.01246320      -0.56520413
C       -1.04814509       0.57298130      -0.38948541
O       -1.17113270      -0.83937771      -0.59323944
C       -0.00502170      -0.96233022       0.24762771
C       -0.35051395       0.37951004       0.95171998
H        2.07226469      -0.30482434      -0.16517755
H        1.17262724      -0.74290173      -1.64012042
H        0.56403631       1.49280255       0.81057729
H       -1.90312368       1.19575314      -0.61475270
H        0.10061165      -1.94083861       0.70893970
H       -0.90121120       0.47086475       1.87919887
12
Frame=14 idx=005625 GeodesicLength=0.6633301509883874 rxn_smarts="[C:1]1([H:7])([H:8])[C@@:2]2([H:9])[C@@:3]3([H:10])[O:4][C@:5]1([H:11])[C@@:6]23[H:12]>>[C:1]1([H:7])([H:8])[C:2][C@@:3]2([H:10])[O:4][C@:5]1([H:11])[C:6]2([H:9])[H:12]"
C        1.08628764      -0.33680040      -0.63257623
C        0.38562456       1.00765616      -0.56463922
C       -1.04635879       0.57338620      -0.38960978
O       -1.17238099      -0.83908329      -0.58937736
C       -0.00470987      -0.96205555       0.24948196
C       -0.34817859       0.38015954       0.95398361
H        2.07313018      -0.30920957      -0.16947113
H        1.17102793      -0.74538930      -1.64304163
H        0.56348565       1.51605989       0.81389679
H       -1.89971679       1.19851204      -0.61475451
H        0.10208276      -1.94064665       0.71020753
H       -0.91029369       0.45741092       1.87589998
12
Frame=15 idx=005625 GeodesicLength=0.7108235275102669 rxn_smarts="[C:1]1([H:7])([H:8])[C@@:2]2([H:9])[C@@:3]3([H:10])[O:4][C@:5]1([H:11])[C@@:6]23[H:12]>>[C:1]1([H:7])([H:8])[C:2][C@@:3]2([H:10])[O:4][C@:5]1([H:11])[C:6]2([H:9])[H:12]"
C        1.08613487      -0.33955791      -0.63506131
C        0.38813125       1.00281909      -0.56397457
C       -1.04451679       0.57378649      -0.38971715
O       -1.17363780      -0.83877213      -0.58549110
C       -0.00438749      -0.96183651       0.25133217
C       -0.34582874       0.38074280       0.95628522
H        2.07399334      -0.31368710      -0.17374947
H        1.16940458      -0.74786780      -1.64598242
H        0.56270450       1.53964161       0.81711736
H       -1.89625280       1.20133496      -0.61471677
H        0.10354717      -1.94048519       0.71144502
H       -0.91929210       0.44388169       1.87251300
12
Frame=16 idx=005625 GeodesicLength=0.7580920785207805 rxn_smarts="[C:1]1([H:7])([H:8])[C@@:2]2([H:9])[C@@:3]3([H:10])[O:4][C@:5]1([H:11])[C@@:6]23[H:12]>>[C:1]1([H:7])([H:8])[C:2][C@@:3]2([H:10])[O:4][C@:5]1([H:11])[C:6]2([H:9])[H:12]"
C        1.08597465      -0.34239275      -0.63746438
C        0.39073139       0.99797063      -0.56295488
C       -1.04263130       0.57415535      -0.38973313
O       -1.17483463      -0.83843598      -0.58178580
C       -0.00414435      -0.96173371       0.25313635
C       -0.34353506       0.38113137       0.95874620
H        2.07479748      -0.31840069      -0.17788828
H        1.16780457      -0.75019504      -1.64892301
H        0.56121876       1.56380259       0.82000682
H       -1.89265747       1.20407931      -0.61461496
H        0.10482740      -1.94058669       0.71250393
H       -0.92755143       0.43060562       1.86897114
