14
Frame=0 idx=005959 GeodesicLength=0.0 rxn_smarts="[O:1]([C:2]([C:3]([O:4][H:11])([C:5]([O:6][H:14])([H:12])[H:13])[H:10])([H:8])[H:9])[H:7]>>[C:2]([H:8])[H:9].[O:1]([C:3]([O:4][H:11])([C:5]([O:6][H:14])([H:12])[H:13])[H:10])[H:7]"
O        1.06172109       0.92525466       0.40497026
C        1.60880325      -0.15703806      -0.56570281
C       -0.36029558       0.38651756      -0.51809394
O       -1.21107214       1.36899036       0.01608513
C       -0.91572119      -0.93014036      -0.01793233
O       -0.61750863      -1.10185238       1.35815480
H        0.85842300       0.44986042       1.22323327
H        2.26662453       0.41493383      -1.22383023
H        2.21569674      -0.83231749       0.04318736
H       -0.25244596       0.51402839      -1.58577985
H       -0.91122831       2.23575235      -0.26653491
H       -2.00235610      -0.91142853      -0.16502478
H       -0.47121973      -1.75305270      -0.56439179
H       -1.26942093      -0.60950806       1.86165979
14
Frame=1 idx=005959 GeodesicLength=0.0518646450339538 rxn_smarts="[O:1]([C:2]([C:3]([O:4][H:11])([C:5]([O:6][H:14])([H:12])[H:13])[H:10])([H:8])[H:9])[H:7]>>[C:2]([H:8])[H:9].[O:1]([C:3]([O:4][H:11])([C:5]([O:6][H:14])([H:12])[H:13])[H:10])[H:7]"
O        1.06831484       0.93749525       0.39858294
C        1.60470627      -0.15140291      -0.56620630
C       -0.35716875       0.38374826      -0.51406056
O       -1.21149574       1.36284953       0.02140076
C       -0.91596664      -0.93452624      -0.02057495
O       -0.62794904      -1.10647442       1.35737774
H        0.88423592       0.47390297       1.22802144
H        2.26793102       0.40908044      -1.22857196
H        2.19516642      -0.83692574       0.04746845
H       -0.25819636       0.51269843      -1.58332028
H       -0.90599903       2.23085046      -0.25139256
H       -2.00095298      -0.92189478      -0.17931301
H       -0.46744869      -1.75753188      -0.56440621
H       -1.27517724      -0.60186937       1.85499451
14
Frame=2 idx=005959 GeodesicLength=0.10369677845722103 rxn_smarts="[O:1]([C:2]([C:3]([O:4][H:11])([C:5]([O:6][H:14])([H:12])[H:13])[H:10])([H:8])[H:9])[H:7]>>[C:2]([H:8])[H:9].[O:1]([C:3]([O:4][H:11])([C:5]([O:6][H:14])([H:12])[H:13])[H:10])[H:7]"
O        1.07498473       0.94998278       0.39175834
C        1.60060468      -0.14610574      -0.56636039
C       -0.35403430       0.38097917      -0.50983059
O       -1.21176986       1.35669663       0.02711072
C       -0.91639254      -0.93893283      -0.02338780
O       -0.63868383      -1.11164702       1.35630960
H        0.91084588       0.49913983       1.23229063
H        2.26898686       0.40234345      -1.23342764
H        2.17463925      -0.84090009       0.05255811
H       -0.26388004       0.51150735      -1.58057736
H       -0.90102907       2.22583743      -0.23618343
H       -1.99957048      -0.93213647      -0.19376080
H       -0.46394415      -1.76194153      -0.56477183
H       -1.28075713      -0.59482295       1.84827243
14
Frame=3 idx=005959 GeodesicLength=0.15550145075427815 rxn_smarts="[O:1]([C:2]([C:3]([O:4][H:11])([C:5]([O:6][H:14])([H:12])[H:13])[H:10])([H:8])[H:9])[H:7]>>[C:2]([H:8])[H:9].[O:1]([C:3]([O:4][H:11])([C:5]([O:6][H:14])([H:12])[H:13])[H:10])[H:7]"
O        1.08172870       0.96272523       0.38446349
C        1.59649625      -0.14114626      -0.56615765
C       -0.35089624       0.37820253      -0.50539082
O       -1.21189143       1.35051922       0.03324712
C       -0.91700643      -0.94336734      -0.02638080
O       -0.64974210      -1.11739907       1.35493659
H        0.93831208       0.52565235       1.23596269
H        2.26978419       0.39469351      -1.23836988
H        2.15411661      -0.84423037       0.05850781
H       -0.26950574       0.51046341      -1.57753785
H       -0.89630453       2.22071246      -0.22088413
H       -1.99821768      -0.94214852      -0.20839497
H       -0.46070599      -1.76628282      -0.56550208
H       -1.28616769      -0.58839435       1.84150048
14
Frame=4 idx=005959 GeodesicLength=0.20729778439273894 rxn_smarts="[O:1]([C:2]([C:3]([O:4][H:11])([C:5]([O:6][H:14])([H:12])[H:13])[H:10])([H:8])[H:9])[H:7]>>[C:2]([H:8])[H:9].[O:1]([C:3]([O:4][H:11])([C:5]([O:6][H:14])([H:12])[H:13])[H:10])[H:7]"
O        1.08854630       0.97572936       0.37665102
C        1.59237711      -0.13652499      -0.56558432
C       -0.34775833       0.37541014      -0.50072464
O       -1.21185383       1.34430439       0.03985076
C       -0.91781798      -0.94783817      -0.02956565
O       -0.66116006      -1.12376759       1.35324486
H        0.96670381       0.55353824       1.23893500
H        2.27031894       0.38609506      -1.24336550
H        2.13359718      -0.84689618       0.06538140
H       -0.27508493       0.50957603      -1.57418539
H       -0.89180827       2.21547336      -0.20546338
H       -1.99690372      -0.95192374      -0.22324778
H       -0.45773540      -1.77055908      -0.56661451
H       -1.29142081      -0.58261682       1.83468813
14
Frame=5 idx=005959 GeodesicLength=0.2590744175421731 rxn_smarts="[O:1]([C:2]([C:3]([O:4][H:11])([C:5]([O:6][H:14])([H:12])[H:13])[H:10])([H:8])[H:9])[H:7]>>[C:2]([H:8])[H:9].[O:1]([C:3]([O:4][H:11])([C:5]([O:6][H:14])([H:12])[H:13])[H:10])[H:7]"
O        1.09543584       0.98901154       0.36828825
C        1.58824700      -0.13224842      -0.56462996
C       -0.34462155       0.37259408      -0.49581328
O       -1.21165184       1.33803916       0.04695785
C       -0.91883413      -0.95234952      -0.03294763
O       -0.67297778      -1.13077657       1.35121968
H        0.99608644       0.58286515       1.24110900
H        2.27059982       0.37652739      -1.24839792
H        2.11308504      -0.84888248       0.07322946
H       -0.28062296       0.50885231      -1.57050035
H       -0.88753284       2.21011663      -0.18989506
H       -1.99563493      -0.96145498      -0.23834566
H       -0.45503286      -1.77476935      -0.56811360
H       -1.29654522      -0.57752494       1.82783923
14
Frame=6 idx=005959 GeodesicLength=0.31086057836543857 rxn_smarts="[O:1]([C:2]([C:3]([O:4][H:11])([C:5]([O:6][H:14])([H:12])[H:13])[H:10])([H:8])[H:9])[H:7]>>[C:2]([H:8])[H:9].[O:1]([C:3]([O:4][H:11])([C:5]([O:6][H:14])([H:12])[H:13])[H:10])[H:7]"
O        1.10239366       1.00257071       0.35931900
C        1.58410123      -0.12831260      -0.56327040
C       -0.34149076       0.36974555      -0.49063872
O       -1.21127482       1.33170847       0.05462014
C       -0.92006557      -0.95691178      -0.03654447
O       -0.68523331      -1.13847205       1.34884052
H        1.02654193       0.61376119       1.24234089
H        2.27060921       0.36592886      -1.25341020
H        2.09256825      -0.85015491       0.08213247
H       -0.28613338       0.50830645      -1.56646378
H       -0.88345517       2.20463876      -0.17413432
H       -1.99441806      -0.97073076      -0.25372968
H       -0.45259587      -1.77891579      -0.57002521
H       -1.30154735      -0.57316209       1.82096378
14
Frame=7 idx=005959 GeodesicLength=0.3626652621183236 rxn_smarts="[O:1]([C:2]([C:3]([O:4][H:11])([C:5]([O:6][H:14])([H:12])[H:13])[H:10])([H:8])[H:9])[H:7]>>[C:2]([H:8])[H:9].[O:1]([C:3]([O:4][H:11])([C:5]([O:6][H:14])([H:12])[H:13])[H:10])[H:7]"
O        1.10941699       1.01641675       0.34969661
C        1.57993712      -0.12472134      -0.56148477
C       -0.33836832       0.36685403      -0.48517895
O       -1.21071216       1.32529496       0.06288808
C       -0.92152065      -0.96153043      -0.04036860
O       -0.69797331      -1.14688943       1.34608153
H        1.05815451       0.64632682       1.24248636
H        2.27034502       0.35425568      -1.25836690
H        2.07203731      -0.85068243       0.09216990
H       -0.29162452       0.50794943      -1.56205128
H       -0.87956152       2.19903301      -0.15813871
H       -1.99325774      -0.97974028      -0.26943296
H       -0.45042077      -1.78299343      -0.57236409
H       -1.30645197      -0.56957333       1.81406378
14
Frame=8 idx=005959 GeodesicLength=0.4145075808055561 rxn_smarts="[O:1]([C:2]([C:3]([O:4][H:11])([C:5]([O:6][H:14])([H:12])[H:13])[H:10])([H:8])[H:9])[H:7]>>[C:2]([H:8])[H:9].[O:1]([C:3]([O:4][H:11])([C:5]([O:6][H:14])([H:12])[H:13])[H:10])[H:7]"
O        1.11650268       1.03055423       0.33937141
C        1.57574845      -0.12147868      -0.55923936
C       -0.33525869       0.36390937      -0.47941009
O       -1.20995444       1.31877918       0.07182157
C       -0.92320845      -0.96621237      -0.04443611
O       -0.71124245      -1.15607096       1.34291515
H        1.09102310       0.68068688       1.24135342
H        2.26980131       0.34144455      -1.26320695
H        2.05147285      -0.85042060       0.10342860
H       -0.29710578       0.50779701      -1.55723500
H       -0.87583610       2.19329090      -0.14185471
H       -1.99215621      -0.98846626      -0.28549857
H       -0.44850275      -1.78700113      -0.57515324
H       -1.31128352      -0.56681212       1.80714387
14
Frame=9 idx=005959 GeodesicLength=0.46652701461714724 rxn_smarts="[O:1]([C:2]([C:3]([O:4][H:11])([C:5]([O:6][H:14])([H:12])[H:13])[H:10])([H:8])[H:9])[H:7]>>[C:2]([H:8])[H:9].[O:1]([C:3]([O:4][H:11])([C:5]([O:6][H:14])([H:12])[H:13])[H:10])[H:7]"
O        1.12366800       1.04507648       0.32812565
C        1.57154271      -0.11861878      -0.55639566
C       -0.33214250       0.36090587      -0.47325148
O       -1.20892787       1.31211359       0.08161298
C       -0.92514751      -0.97095849      -0.04878558
O       -0.72516559      -1.16614962       1.33926177
H        1.12532448       0.71713153       1.23841485
H        2.26898846       0.32722565      -1.26782581
H        2.03082152      -0.84916979       0.11616875
H       -0.30259198       0.50788464      -1.55192815
H       -0.87229890       2.18738319      -0.12511692
H       -1.99111885      -0.99685912      -0.30199990
H       -0.44685335      -1.79090919      -0.57846840
H       -1.31609861      -0.56505598       1.80018791
14
Frame=10 idx=005959 GeodesicLength=0.5185766260175367 rxn_smarts="[O:1]([C:2]([C:3]([O:4][H:11])([C:5]([O:6][H:14])([H:12])[H:13])[H:10])([H:8])[H:9])[H:7]>>[C:2]([H:8])[H:9].[O:1]([C:3]([O:4][H:11])([C:5]([O:6][H:14])([H:12])[H:13])[H:10])[H:7]"
O        1.13087355       1.05989478       0.31604710
C        1.56731205      -0.11611201      -0.55300043
C       -0.32904121       0.35782949      -0.46673356
O       -1.20766042       1.30530293       0.09220998
C       -0.92733930      -0.97577816      -0.05341339
O       -0.73971385      -1.17707735       1.33513423
H        1.16104057       0.75560088       1.23369352
H        2.26789385       0.31173025      -1.27217474
H        2.01008956      -0.84699397       0.13034323
H       -0.30808302       0.50821205      -1.54615866
H       -0.86887830       2.18131524      -0.10794470
H       -1.99014587      -1.00492503      -0.31894639
H       -0.44545713      -1.79473772      -0.58227962
H       -1.32089047      -0.56426138       1.79322345
14
Frame=11 idx=005959 GeodesicLength=0.5706407509429645 rxn_smarts="[O:1]([C:2]([C:3]([O:4][H:11])([C:5]([O:6][H:14])([H:12])[H:13])[H:10])([H:8])[H:9])[H:7]>>[C:2]([H:8])[H:9].[O:1]([C:3]([O:4][H:11])([C:5]([O:6][H:14])([H:12])[H:13])[H:10])[H:7]"
O        1.13810958       1.07501577       0.30307121
C        1.56305917      -0.11396272      -0.54901023
C       -0.32595394       0.35467099      -0.45983168
O       -1.20612823       1.29832417       0.10368155
C       -0.92978852      -0.98067145      -0.05833627
O       -0.75493138      -1.18889045       1.33049329
H        1.19822377       0.79619413       1.22695683
H        2.26651476       0.29488448      -1.27618220
H        1.98925245      -0.84382353       0.14605027
H       -0.31358518       0.50879747      -1.53989574
H       -0.86554574       2.17507470      -0.09026331
H       -1.98923413      -1.01264023      -0.33637740
H       -0.44430700      -1.79847692      -0.58660643
H       -1.32568561      -0.56449641       1.78625011
14
Frame=12 idx=005959 GeodesicLength=0.6227267464413438 rxn_smarts="[O:1]([C:2]([C:3]([O:4][H:11])([C:5]([O:6][H:14])([H:12])[H:13])[H:10])([H:8])[H:9])[H:7]>>[C:2]([H:8])[H:9].[O:1]([C:3]([O:4][H:11])([C:5]([O:6][H:14])([H:12])[H:13])[H:10])[H:7]"
O        1.14536683       1.09044616       0.28911473
C        1.55878271      -0.11217153      -0.54435784
C       -0.32288171       0.35142259      -0.45251694
O       -1.20430403       1.29115287       0.11611258
C       -0.93250138      -0.98564243      -0.06357784
O       -0.77086544      -1.20163607       1.32529634
H        1.23693483       0.83902357       1.21790658
H        2.26484906       0.27659242      -1.27975735
H        1.96827126      -0.83956753       0.16341464
H       -0.31910528       0.50966839      -1.53310551
H       -0.86226551       2.16864947      -0.07197795
H       -1.98837764      -1.01997674      -0.35434273
H       -0.44339250      -1.80211916      -0.59148006
H       -1.33051119      -0.56584200       1.77927134
14
Frame=13 idx=005959 GeodesicLength=0.6747855845487186 rxn_smarts="[O:1]([C:2]([C:3]([O:4][H:11])([C:5]([O:6][H:14])([H:12])[H:13])[H:10])([H:8])[H:9])[H:7]>>[C:2]([H:8])[H:9].[O:1]([C:3]([O:4][H:11])([C:5]([O:6][H:14])([H:12])[H:13])[H:10])[H:7]"
O        1.15262243       1.10619789       0.27413872
C        1.55448768      -0.11074984      -0.53899614
C       -0.31982444       0.34806849      -0.44476287
O       -1.20216739       1.28374902       0.12956926
C       -0.93547768      -0.99068004      -0.06914663
O       -0.78755965      -1.21532320       1.31948860
H        1.27721229       0.88411867       1.20626411
H        2.26290925       0.25680837      -1.28282730
H        1.94712138      -0.83414304       0.18252937
H       -0.32464366       0.51082937      -1.52574518
H       -0.85900729       2.16201820      -0.05300374
H       -1.98756583      -1.02689814      -0.37286932
H       -0.44269924      -1.80563841      -0.59690137
H       -1.33540785      -0.56835735       1.77226248
14
Frame=14 idx=005959 GeodesicLength=0.7268620202777266 rxn_smarts="[O:1]([C:2]([C:3]([O:4][H:11])([C:5]([O:6][H:14])([H:12])[H:13])[H:10])([H:8])[H:9])[H:7]>>[C:2]([H:8])[H:9].[O:1]([C:3]([O:4][H:11])([C:5]([O:6][H:14])([H:12])[H:13])[H:10])[H:7]"
O        1.15985742       1.12224731       0.25804691
C        1.55016981      -0.10969108      -0.53282356
C       -0.31678464       0.34460347      -0.43654157
O       -1.19967429       1.27608855       0.14415884
C       -0.93872588      -0.99579000      -0.07508022
O       -0.80506279      -1.23002005       1.31301313
H        1.31911599       0.93161976       1.19157750
H        2.26068404       0.23540277      -1.28521710
H        1.92573732      -0.82740414       0.20355510
H       -0.33020871       0.51232180      -1.51778127
H       -0.85571157       2.15515832      -0.03319914
H       -1.98679136      -1.03336684      -0.39202014
H       -0.44221585      -1.80902634      -0.60292364
H       -1.34038949      -0.57214354       1.76523513
14
Frame=15 idx=005959 GeodesicLength=0.7789499333137491 rxn_smarts="[O:1]([C:2]([C:3]([O:4][H:11])([C:5]([O:6][H:14])([H:12])[H:13])[H:10])([H:8])[H:9])[H:7]>>[C:2]([H:8])[H:9].[O:1]([C:3]([O:4][H:11])([C:5]([O:6][H:14])([H:12])[H:13])[H:10])[H:7]"
O        1.16704055       1.13857694       0.24076840
C        1.54583071      -0.10899362      -0.52574936
C       -0.31376406       0.34101709      -0.42782812
O       -1.19678593       1.26813523       0.15997439
C       -0.94224573      -1.00096493      -0.08140341
O       -0.82341476      -1.24575837       1.30580192
H        1.36266001       0.98157497       1.17341650
H        2.25817810       0.21228464      -1.28677198
H        1.90406198      -0.81920463       0.22663021
H       -0.33580452       0.51417051      -1.50917434
H       -0.85231633       2.14804162      -0.01242588
H       -1.98603918      -1.03933684      -0.41183780
H       -0.44192470      -1.81226004      -0.60957749
H       -1.34547614      -0.57728258       1.75817695
14
Frame=16 idx=005959 GeodesicLength=0.8310583486823632 rxn_smarts="[O:1]([C:2]([C:3]([O:4][H:11])([C:5]([O:6][H:14])([H:12])[H:13])[H:10])([H:8])[H:9])[H:7]>>[C:2]([H:8])[H:9].[O:1]([C:3]([O:4][H:11])([C:5]([O:6][H:14])([H:12])[H:13])[H:10])[H:7]"
O        1.17412945       1.15515739       0.22223518
C        1.54147596      -0.10864556      -0.51765545
C       -0.31076469       0.33730482      -0.41860093
O       -1.19345472       1.25985475       0.17711761
C       -0.94604174      -1.00619863      -0.08814919
O       -0.84265660      -1.26257927       1.29778780
H        1.40785331       1.03401336       1.15123734
H        2.25539957       0.18735706      -1.28728623
H        1.88203533      -0.80936050       0.25191216
H       -0.34142905       0.51641497      -1.49989182
H       -0.84874292       2.14063833       0.00948500
H       -1.98529961      -1.04476399      -0.43237052
H       -0.44181502      -1.81532318      -0.61690364
H       -1.35068927      -0.58386955       1.75108270
