15
Frame=0 idx=011588 GeodesicLength=0.0 rxn_smarts="[C:1]([C@@:2]1([H:11])[N:3]([H:12])[C:4]([H:13])([H:14])/[C:5]1=[N:6]\[O:7][H:15])([H:8])([H:9])[H:10]>>[C:1]([N+:3]1([H:12])[C-:2]([H:11])[C:5](=[N:6][O:7][H:15])[C:4]1([H:13])[H:14])([H:8])([H:9])[H:10]"
C       -1.98771402      -0.10828941       0.10395257
C       -0.36015801      -0.15368493      -1.06980151
N       -0.63653166       1.06126194      -0.16443664
C        0.61188783       0.73236558       0.57410709
C        0.84782096      -0.43642457      -0.35734217
N        1.75183606      -1.33451057      -0.40792172
O        2.65428585      -1.12285520       0.66507020
H       -2.69219065       0.67761149       0.39795214
H       -1.62912292      -0.65725316       0.96564541
H       -2.48393706      -0.78329582      -0.59146972
H       -0.54231270      -0.10094594      -2.13411138
H       -0.66644864       1.98433845      -0.59086060
H        0.46930781       0.52055646       1.63413025
H        1.35209179       1.52498175       0.45824833
H        3.31118536      -1.80385602       0.51683774
15
Frame=1 idx=011588 GeodesicLength=0.025176336546625166 rxn_smarts="[C:1]([C@@:2]1([H:11])[N:3]([H:12])[C:4]([H:13])([H:14])/[C:5]1=[N:6]\[O:7][H:15])([H:8])([H:9])[H:10]>>[C:1]([N+:3]1([H:12])[C-:2]([H:11])[C:5](=[N:6][O:7][H:15])[C:4]1([H:13])[H:14])([H:8])([H:9])[H:10]"
C       -1.99026988      -0.10931809       0.09886170
C       -0.36285833      -0.15428307      -1.06279437
N       -0.63387881       1.06036464      -0.16161786
C        0.61713734       0.73602235       0.57504037
C        0.84893431      -0.43574529      -0.35312201
N        1.74437921      -1.34187982      -0.39830735
O        2.65947532      -1.12266087       0.66191855
H       -2.69770718       0.67331762       0.39402704
H       -1.64018457      -0.66167483       0.96233653
H       -2.49225916      -0.78230890      -0.59468146
H       -0.53761501      -0.09576369      -2.12835031
H       -0.66549008       1.98086308      -0.59256160
H        0.47518487       0.52691292       1.63565357
H        1.35787040       1.52771626       0.45564168
H        3.31728157      -1.80156233       0.50795550
15
Frame=2 idx=011588 GeodesicLength=0.05032367908593782 rxn_smarts="[C:1]([C@@:2]1([H:11])[N:3]([H:12])[C:4]([H:13])([H:14])/[C:5]1=[N:6]\[O:7][H:15])([H:8])([H:9])[H:10]>>[C:1]([N+:3]1([H:12])[C-:2]([H:11])[C:5](=[N:6][O:7][H:15])[C:4]1([H:13])[H:14])([H:8])([H:9])[H:10]"
C       -1.99263306      -0.11061406       0.09387180
C       -0.36548927      -0.15466098      -1.05586466
N       -0.63133835       1.05949737      -0.15870983
C        0.62248812       0.73997143       0.57576094
C        0.85022123      -0.43470068      -0.34913590
N        1.73743839      -1.34832803      -0.38913269
O        2.66503907      -1.12190114       0.65813852
H       -2.70314742       0.66854468       0.39038760
H       -1.65088450      -0.66642715       0.95892418
H       -2.50028028      -0.78154517      -0.59784541
H       -0.53305049      -0.09048680      -2.12256085
H       -0.66494524       1.97743417      -0.59404539
H        0.48142468       0.53350872       1.63698081
H        1.36353750       1.53089585       0.45271527
H        3.32161961      -1.80118823       0.50051561
15
Frame=3 idx=011588 GeodesicLength=0.07544007144053395 rxn_smarts="[C:1]([C@@:2]1([H:11])[N:3]([H:12])[C:4]([H:13])([H:14])/[C:5]1=[N:6]\[O:7][H:15])([H:8])([H:9])[H:10]>>[C:1]([N+:3]1([H:12])[C-:2]([H:11])[C:5](=[N:6][O:7][H:15])[C:4]1([H:13])[H:14])([H:8])([H:9])[H:10]"
C       -1.99495106      -0.11201970       0.08891223
C       -0.36807459      -0.15494492      -1.04894737
N       -0.62885366       1.05863822      -0.15571812
C        0.62790970       0.74406788       0.57637587
C        0.85157026      -0.43353913      -0.34519626
N        1.73080228      -1.35428561      -0.38010854
O        2.67071047      -1.12099784       0.65411569
H       -2.70859262       0.66356681       0.38685807
H       -1.66151983      -0.67135135       0.95540097
H       -2.50817974      -0.78083795      -0.60104627
H       -0.52854402      -0.08525519      -2.11670196
H       -0.66459679       1.97402154      -0.59536050
H        0.48788073       0.54028565       1.63822214
H        1.36919025       1.53427510       0.44958635
H        3.32524864      -1.80162351       0.49360769
15
Frame=4 idx=011588 GeodesicLength=0.10051954931834398 rxn_smarts="[C:1]([C@@:2]1([H:11])[N:3]([H:12])[C:4]([H:13])([H:14])/[C:5]1=[N:6]\[O:7][H:15])([H:8])([H:9])[H:10]>>[C:1]([N+:3]1([H:12])[C-:2]([H:11])[C:5](=[N:6][O:7][H:15])[C:4]1([H:13])[H:14])([H:8])([H:9])[H:10]"
C       -1.99720836      -0.11353884       0.08399463
C       -0.37062186      -0.15512740      -1.04204836
N       -0.62642490       1.05778662      -0.15264730
C        0.63339987       0.74830999       0.57686944
C        0.85298110      -0.43224514      -0.34132789
N        1.72451574      -1.35969337      -0.37132435
O        2.67644627      -1.11997502       0.64986567
H       -2.71401942       0.65837408       0.38346140
H       -1.67205803      -0.67645702       0.95176991
H       -2.51594397      -0.78019019      -0.60426572
H       -0.52412383      -0.08005544      -2.11077946
H       -0.66445220       1.97062496      -0.59650719
H        0.49455753       0.54722794       1.63935873
H        1.37481688       1.53785463       0.44624445
H        3.32813516      -1.80289578       0.48733603
15
Frame=5 idx=011588 GeodesicLength=0.12555361039563662 rxn_smarts="[C:1]([C@@:2]1([H:11])[N:3]([H:12])[C:4]([H:13])([H:14])/[C:5]1=[N:6]\[O:7][H:15])([H:8])([H:9])[H:10]>>[C:1]([N+:3]1([H:12])[C-:2]([H:11])[C:5](=[N:6][O:7][H:15])[C:4]1([H:13])[H:14])([H:8])([H:9])[H:10]"
C       -1.99937117      -0.11521540       0.07914922
C       -0.37313678      -0.15517043      -1.03519863
N       -0.62406846       1.05695386      -0.14949364
C        0.63897208       0.75273573       0.57719671
C        0.85448641      -0.43074477      -0.33761625
N        1.71869266      -1.36441108      -0.36298125
O        2.68228087      -1.11875777       0.64529934
H       -2.71940660       0.65289080       0.38027163
H       -1.68240908      -0.68179551       0.94803529
H       -2.52353815      -0.77965370      -0.60746563
H       -0.51984588      -0.07482875      -2.10482052
H       -0.66457406       1.96726518      -0.59745727
H        0.50150624       0.55433700       1.64034260
H        1.38039526       1.54170467       0.44264866
H        3.33001666      -1.80530983       0.48208974
15
Frame=6 idx=011588 GeodesicLength=0.1505530391278296 rxn_smarts="[C:1]([C@@:2]1([H:11])[N:3]([H:12])[C:4]([H:13])([H:14])/[C:5]1=[N:6]\[O:7][H:15])([H:8])([H:9])[H:10]>>[C:1]([N+:3]1([H:12])[C-:2]([H:11])[C:5](=[N:6][O:7][H:15])[C:4]1([H:13])[H:14])([H:8])([H:9])[H:10]"
C       -2.00152348      -0.11693569       0.07432022
C       -0.37562833      -0.15516485      -1.02833478
N       -0.62173989       1.05611310      -0.14626388
C        0.64459463       0.75723486       0.57744403
C        0.85600218      -0.42921288      -0.33390301
N        1.71312423      -1.36875764      -0.35477806
O        2.68808837      -1.11756320       0.64063084
H       -2.72478944       0.64731065       0.37713950
H       -1.69277152      -0.68724918       0.94418771
H       -2.53105980      -0.77909809      -0.61071114
H       -0.51563459      -0.06968895      -2.09878106
H       -0.66480479       1.96390060      -0.59825869
H        0.50861174       0.56156366       1.64126082
H        1.38597399       1.54564074       0.43889240
H        3.33155671      -1.80809312       0.47715510
15
Frame=7 idx=011588 GeodesicLength=0.17552889270286948 rxn_smarts="[C:1]([C@@:2]1([H:11])[N:3]([H:12])[C:4]([H:13])([H:14])/[C:5]1=[N:6]\[O:7][H:15])([H:8])([H:9])[H:10]>>[C:1]([N+:3]1([H:12])[C-:2]([H:11])[C:5](=[N:6][O:7][H:15])[C:4]1([H:13])[H:14])([H:8])([H:9])[H:10]"
C       -2.00372006      -0.11862923       0.06946869
C       -0.37810072      -0.15516874      -1.02141308
N       -0.61941262       1.05524579      -0.14295892
C        0.65024676       0.76174007       0.57766802
C        0.85747580      -0.42776055      -0.33007794
N        1.70765565      -1.37295082      -0.34649097
O        2.69381214      -1.11650535       0.63598121
H       -2.73019396       0.64175375       0.37396739
H       -1.70327644      -0.69274325       0.94021667
H       -2.53857073      -0.77843714      -0.61405283
H       -0.51143010      -0.06470852      -2.09262840
H       -0.66504871       1.96050265      -0.59894041
H        0.51580503       0.56888598       1.64217031
H        1.39158048       1.54954808       0.43503151
H        3.33317747      -1.81077272       0.47205877
15
Frame=8 idx=011588 GeodesicLength=0.20048801067188027 rxn_smarts="[C:1]([C@@:2]1([H:11])[N:3]([H:12])[C:4]([H:13])([H:14])/[C:5]1=[N:6]\[O:7][H:15])([H:8])([H:9])[H:10]>>[C:1]([N+:3]1([H:12])[C-:2]([H:11])[C:5](=[N:6][O:7][H:15])[C:4]1([H:13])[H:14])([H:8])([H:9])[H:10]"
C       -2.00593453      -0.12034528       0.06460813
C       -0.38054914      -0.15513860      -1.01446091
N       -0.61710952       1.05436356      -0.13956096
C        0.65594829       0.76630207       0.57783664
C        0.85894384      -0.42631752      -0.32620084
N        1.70229609      -1.37695735      -0.33814798
O        2.69957670      -1.11543910       0.63118812
H       -2.73562031       0.63613258       0.37081871
H       -1.71384896      -0.69834616       0.93610610
H       -2.54604264      -0.77770923      -0.61749660
H       -0.50725127      -0.05981392      -2.08639147
H       -0.66538436       1.95709283      -0.59946117
H        0.52315158       0.57633917       1.64304428
H        1.39720253       1.55350444       0.43101417
H        3.33462170      -1.81366752       0.46710378
15
Frame=9 idx=011588 GeodesicLength=0.22544666801317592 rxn_smarts="[C:1]([C@@:2]1([H:11])[N:3]([H:12])[C:4]([H:13])([H:14])/[C:5]1=[N:6]\[O:7][H:15])([H:8])([H:9])[H:10]>>[C:1]([N+:3]1([H:12])[C-:2]([H:11])[C:5](=[N:6][O:7][H:15])[C:4]1([H:13])[H:14])([H:8])([H:9])[H:10]"
C       -2.00813397      -0.12212174       0.05975096
C       -0.38296817      -0.15504322      -1.00748578
N       -0.61483458       1.05346890      -0.13605764
C        0.66170781       0.77094906       0.57791842
C        0.86041876      -0.42483346      -0.32230971
N        1.69703938      -1.38073797      -0.32978781
O        2.70544910      -1.11424115       0.62611285
H       -2.74103864       0.63037521       0.36773970
H       -1.72443537      -0.70411654       0.93183779
H       -2.55344140      -0.77693684      -0.62103302
H       -0.50310017      -0.05494465      -2.08006870
H       -0.66584676       1.95367955      -0.59979096
H        0.53069057       0.58393522       1.64384456
H        1.40282234       1.55755862       0.42679662
H        3.33567110      -1.81699099       0.46253271
15
Frame=10 idx=011588 GeodesicLength=0.25037085036757545 rxn_smarts="[C:1]([C@@:2]1([H:11])[N:3]([H:12])[C:4]([H:13])([H:14])/[C:5]1=[N:6]\[O:7][H:15])([H:8])([H:9])[H:10]>>[C:1]([N+:3]1([H:12])[C-:2]([H:11])[C:5](=[N:6][O:7][H:15])[C:4]1([H:13])[H:14])([H:8])([H:9])[H:10]"
C       -2.01037672      -0.12385451       0.05487581
C       -0.38537938      -0.15497998      -1.00043676
N       -0.61255526       1.05254152      -0.13248549
C        0.66748687       0.77558181       0.57797771
C        0.86183759      -0.42344925      -0.31829110
N        1.69192858      -1.38434408      -0.32138823
O        2.71112452      -1.11329258       0.62117591
H       -2.74646529       0.62467589       0.36460378
H       -1.73516896      -0.70989946       0.92745012
H       -2.56083075      -0.77604031      -0.62465701
H       -0.49897176      -0.05025733      -2.07362353
H       -0.66629968       1.95022333      -0.60001917
H        0.53830104       0.59160703       1.64463234
H        1.40846969       1.56154720       0.42248188
H        3.33689950      -1.82005928       0.45770375
15
Frame=11 idx=011588 GeodesicLength=0.27527042877830976 rxn_smarts="[C:1]([C@@:2]1([H:11])[N:3]([H:12])[C:4]([H:13])([H:14])/[C:5]1=[N:6]\[O:7][H:15])([H:8])([H:9])[H:10]>>[C:1]([N+:3]1([H:12])[C-:2]([H:11])[C:5](=[N:6][O:7][H:15])[C:4]1([H:13])[H:14])([H:8])([H:9])[H:10]"
C       -2.01263962      -0.12560490       0.05000710
C       -0.38778007      -0.15489680      -0.99335196
N       -0.61029558       1.05159565      -0.12882483
C        0.67331373       0.78026196       0.57797019
C        0.86324980      -0.42207364      -0.31423193
N        1.68702377      -1.38769559      -0.31308845
O        2.71674885      -1.11241450       0.61621221
H       -2.75190585       0.61892445       0.36150239
H       -1.74596863      -0.71577884       0.92293324
H       -2.56819064      -0.77507324      -0.62836131
H       -0.49489656      -0.04566348      -2.06709260
H       -0.66683068       1.94674951      -0.60009604
H        0.54606168       0.59939183       1.64536660
H        1.41413396       1.56557036       0.41800942
H        3.33797584      -1.82329275       0.45304598
15
Frame=12 idx=011588 GeodesicLength=0.30015437841354004 rxn_smarts="[C:1]([C@@:2]1([H:11])[N:3]([H:12])[C:4]([H:13])([H:14])/[C:5]1=[N:6]\[O:7][H:15])([H:8])([H:9])[H:10]>>[C:1]([N+:3]1([H:12])[C-:2]([H:11])[C:5](=[N:6][O:7][H:15])[C:4]1([H:13])[H:14])([H:8])([H:9])[H:10]"
C       -2.01487482      -0.12743457       0.04516350
C       -0.39016444      -0.15473238      -0.98626376
N       -0.60807618       1.05064482      -0.12505228
C        0.67920856       0.78504283       0.57784717
C        0.86468794      -0.42062122      -0.31021354
N        1.68231642      -1.39074445      -0.30492936
O        2.72244157      -1.11144747       0.61098564
H       -2.75733417       0.61300836       0.35851138
H       -1.75672814      -0.72184711       0.91826428
H       -2.57546384      -0.77408832      -0.63213974
H       -0.49089994      -0.04105326      -2.06050197
H       -0.66752417       1.94328877      -0.59996012
H        0.55404937       0.60731645       1.64599872
H        1.41979129       1.56971498       0.41330671
H        3.33857054      -1.82704744       0.44898336
15
Frame=13 idx=011588 GeodesicLength=0.3250335090676773 rxn_smarts="[C:1]([C@@:2]1([H:11])[N:3]([H:12])[C:4]([H:13])([H:14])/[C:5]1=[N:6]\[O:7][H:15])([H:8])([H:9])[H:10]>>[C:1]([N+:3]1([H:12])[C-:2]([H:11])[C:5](=[N:6][O:7][H:15])[C:4]1([H:13])[H:14])([H:8])([H:9])[H:10]"
C       -2.01715050      -0.12925326       0.04029557
C       -0.39253368      -0.15457125      -0.97910588
N       -0.60586487       1.04966273      -0.12117532
C        0.68514383       0.78984581       0.57768397
C        0.86608448      -0.41923895      -0.30607235
N        1.67764191      -1.39372801      -0.29661116
O        2.72807778      -1.11058058       0.60574460
H       -2.76278245       0.60708544       0.35550180
H       -1.76761640      -0.72800114       0.91342912
H       -2.58272524      -0.77297397      -0.63605576
H       -0.48689607      -0.03654796      -2.05379809
H       -0.66825791       1.93979452      -0.59966802
H        0.56216851       0.61537691       1.64660621
H        1.42547942       1.57383601       0.40843666
H        3.33923119      -1.83070630       0.44478866
15
Frame=14 idx=011588 GeodesicLength=0.34991600760430575 rxn_smarts="[C:1]([C@@:2]1([H:11])[N:3]([H:12])[C:4]([H:13])([H:14])/[C:5]1=[N:6]\[O:7][H:15])([H:8])([H:9])[H:10]>>[C:1]([N+:3]1([H:12])[C-:2]([H:11])[C:5](=[N:6][O:7][H:15])[C:4]1([H:13])[H:14])([H:8])([H:9])[H:10]"
C       -2.01950202      -0.13101579       0.03537655
C       -0.39488668      -0.15446041      -0.97183929
N       -0.60364651       1.04863592      -0.11719665
C        0.69110375       0.79463481       0.57752297
C        0.86740583      -0.41800082      -0.30171302
N        1.67291514      -1.39676267      -0.28795419
O        2.73360489      -1.10990018       0.60061078
H       -2.76827043       0.60123652       0.35240285
H       -1.77872637      -0.73418792       0.90841887
H       -2.59001020      -0.77167268      -0.64014847
H       -0.48283528      -0.03221856      -2.04695083
H       -0.66896880       1.93624078      -0.59925341
H        0.57037036       0.62357989       1.64723303
H        1.43121491       1.57786243       0.40343295
H        3.34023142      -1.83397129       0.44005786
15
Frame=15 idx=011588 GeodesicLength=0.37479232635305015 rxn_smarts="[C:1]([C@@:2]1([H:11])[N:3]([H:12])[C:4]([H:13])([H:14])/[C:5]1=[N:6]\[O:7][H:15])([H:8])([H:9])[H:10]>>[C:1]([N+:3]1([H:12])[C-:2]([H:11])[C:5](=[N:6][O:7][H:15])[C:4]1([H:13])[H:14])([H:8])([H:9])[H:10]"
C       -2.02188431      -0.13278024       0.03044065
C       -0.39722629      -0.15434636      -0.96450483
N       -0.60144162       1.04757926      -0.11310742
C        0.69710754       0.79945881       0.57730879
C        0.86869544      -0.41681169      -0.29724382
N        1.66825417      -1.39969451      -0.27917613
O        2.73908402      -1.10929862       0.59544874
H       -2.77377175       0.59535917       0.34930786
H       -1.78994195      -0.74048073       0.90323277
H       -2.59727169      -0.77024902      -0.64437933
H       -0.47877841      -0.02797835      -2.03999349
H       -0.66974081       1.93265760      -0.59867131
H        0.57872228       0.63192887       1.64782033
H        1.43697130       1.58188434       0.39824210
H        3.34122207      -1.83722854       0.43527507
15
Frame=16 idx=011588 GeodesicLength=0.3996525706517124 rxn_smarts="[C:1]([C@@:2]1([H:11])[N:3]([H:12])[C:4]([H:13])([H:14])/[C:5]1=[N:6]\[O:7][H:15])([H:8])([H:9])[H:10]>>[C:1]([N+:3]1([H:12])[C-:2]([H:11])[C:5](=[N:6][O:7][H:15])[C:4]1([H:13])[H:14])([H:8])([H:9])[H:10]"
C       -2.02425926      -0.13459402       0.02551808
C       -0.39955629      -0.15418268      -0.95714017
N       -0.59926561       1.04650519      -0.10890040
C        0.70317109       0.80435489       0.57699187
C        0.86998989      -0.41559153      -0.29276473
N        1.66375855      -1.40239715      -0.27047642
O        2.74455753      -1.10869531       0.59014405
H       -2.77926154       0.58936851       0.34629920
H       -1.80116237      -0.74694062       0.89787113
H       -2.60447148      -0.76875651      -0.64871128
H       -0.47478200      -0.02374815      -2.03295733
H       -0.67064220       1.92907181      -0.59788035
H        0.58727989       0.64041793       1.64831428
H        1.44272598       1.58597326       0.39281984
H        3.34191783      -1.84078562       0.43087223
