14
Frame=0 idx=010665 GeodesicLength=0.0 rxn_smarts="[O:1](/[N:2]=[C:3]1/[C:4]([H:9])([H:10])[C:5]([H:11])([H:12])[C@:6]1([O:7][H:14])[H:13])[H:8]>>[O:1]=[N:2][C@:3]1([H:8])[C:4]([H:9])([H:10])[C:5]([H:11])([H:12])[C@:6]1([O:7][H:14])[H:13]"
O        2.28687920       1.33354060      -0.13851038
N        1.74918933       0.52336540      -0.97505186
C        0.84749141      -0.13749460      -0.21950547
C        0.03468264      -1.36856322      -0.56328256
C       -1.14189123      -0.76780576       0.23713080
C       -0.51004905       0.61975001       0.13965969
O       -0.61166082       1.42103138       1.26261133
H        1.59358292       0.62965810       0.71498230
H        0.43170843      -2.31723653      -0.20620831
H       -0.17389423      -1.44952268      -1.63194298
H       -1.13349531      -1.09986117       1.27504123
H       -2.14577582      -0.86651295      -0.17190192
H       -0.83946288       1.15402798      -0.75784797
H       -0.38730458       2.32562346       1.03482604
14
Frame=1 idx=010665 GeodesicLength=0.04729469844296392 rxn_smarts="[O:1](/[N:2]=[C:3]1/[C:4]([H:9])([H:10])[C:5]([H:11])([H:12])[C@:6]1([O:7][H:14])[H:13])[H:8]>>[O:1]=[N:2][C@:3]1([H:8])[C:4]([H:9])([H:10])[C:5]([H:11])([H:12])[C@:6]1([O:7][H:14])[H:13]"
O        2.28753819       1.33727836      -0.14337866
N        1.74379312       0.52595650      -0.97665219
C        0.84119682      -0.13099638      -0.21784291
C        0.03508657      -1.36691618      -0.56113544
C       -1.14597293      -0.76902487       0.23530973
C       -0.51633047       0.62003700       0.13684305
O       -0.61929927       1.42159972       1.26043399
H        1.61623246       0.62250147       0.72482330
H        0.43665327      -2.31285418      -0.20204808
H       -0.17115269      -1.45044365      -1.62999862
H       -1.13999523      -1.09938907       1.27375279
H       -2.14820658      -0.87154641      -0.17685860
H       -0.84935695       1.15290392      -0.76040185
H       -0.37018632       2.32089377       1.03715350
14
Frame=2 idx=010665 GeodesicLength=0.09460256954666293 rxn_smarts="[O:1](/[N:2]=[C:3]1/[C:4]([H:9])([H:10])[C:5]([H:11])([H:12])[C@:6]1([O:7][H:14])[H:13])[H:8]>>[O:1]=[N:2][C@:3]1([H:8])[C:4]([H:9])([H:10])[C:5]([H:11])([H:12])[C@:6]1([O:7][H:14])[H:13]"
O        2.28824894       1.34084742      -0.14802892
N        1.73827255       0.52873111      -0.97823242
C        0.83482722      -0.12433360      -0.21611675
C        0.03552224      -1.36515117      -0.55888877
C       -1.15008605      -0.77019714       0.23349134
C       -0.52279447       0.62041624       0.13390657
O       -0.62700873       1.42235668       1.25808449
H        1.63955759       0.61482908       0.73420776
H        0.44164896      -2.30828643      -0.19771772
H       -0.16831627      -1.45132248      -1.62794984
H       -1.14653751      -1.09876809       1.27249110
H       -2.15062447      -0.87665926      -0.18182174
H       -0.85939613       1.15179389      -0.76311192
H       -0.35331387       2.31574374       1.03968679
14
Frame=3 idx=010665 GeodesicLength=0.1419170980983606 rxn_smarts="[O:1](/[N:2]=[C:3]1/[C:4]([H:9])([H:10])[C:5]([H:11])([H:12])[C@:6]1([O:7][H:14])[H:13])[H:8]>>[O:1]=[N:2][C@:3]1([H:8])[C:4]([H:9])([H:10])[C:5]([H:11])([H:12])[C@:6]1([O:7][H:14])[H:13]"
O        2.28901910       1.34424364      -0.15245505
N        1.73261960       0.53169835      -0.97978723
C        0.82838220      -0.11750207      -0.21431529
C        0.03599356      -1.36326135      -0.55653735
C       -1.15422976      -0.77132231       0.23167736
C       -0.52944233       0.62088867       0.13085465
O       -0.63481567       1.42330531       1.25556234
H        1.66357875       0.60660791       0.74310025
H        0.44669732      -2.30352600      -0.19321423
H       -0.16537800      -1.45215117      -1.62579103
H       -1.15312525      -1.09800004       1.27125638
H       -2.15302539      -0.88185436      -0.18679255
H       -0.86958180       1.15069287      -0.76597768
H       -0.33669233       2.31018055       1.04241941
14
Frame=4 idx=010665 GeodesicLength=0.18923520420589113 rxn_smarts="[O:1](/[N:2]=[C:3]1/[C:4]([H:9])([H:10])[C:5]([H:11])([H:12])[C@:6]1([O:7][H:14])[H:13])[H:8]>>[O:1]=[N:2][C@:3]1([H:8])[C:4]([H:9])([H:10])[C:5]([H:11])([H:12])[C@:6]1([O:7][H:14])[H:13]"
O        2.28985272       1.34746730      -0.15665109
N        1.72682947       0.53486442      -0.98130951
C        0.82186207      -0.11049906      -0.21242723
C        0.03650397      -1.36124070      -0.55407543
C       -1.15840329      -0.77239902       0.22986926
C       -0.53627422       0.62145552       0.12769003
O       -0.64274652       1.42445136       1.25286437
H        1.68832127       0.59780485       0.75145933
H        0.45179822      -2.29856734      -0.18853335
H       -0.16233051      -1.45292252      -1.62351626
H       -1.15976220      -1.09708391       1.27004940
H       -2.15540521      -0.88713320      -0.19177212
H       -0.87991259       1.14959573      -0.76900110
H       -0.32033319       2.30420658       1.04535370
14
Frame=5 idx=010665 GeodesicLength=0.23653408796352468 rxn_smarts="[O:1](/[N:2]=[C:3]1/[C:4]([H:9])([H:10])[C:5]([H:11])([H:12])[C@:6]1([O:7][H:14])[H:13])[H:8]>>[O:1]=[N:2][C@:3]1([H:8])[C:4]([H:9])([H:10])[C:5]([H:11])([H:12])[C@:6]1([O:7][H:14])[H:13]"
O        2.29075402       1.35051701      -0.16062141
N        1.72089350       0.53823955      -0.98279681
C        0.81526877      -0.10331716      -0.21043842
C        0.03705984      -1.35908191      -0.55149189
C       -1.16260559      -0.77342294       0.22806713
C       -0.54329097       0.62212089       0.12441010
O       -0.65083476       1.42580924       1.24997536
H        1.71380344       0.58837652       0.75923247
H        0.45695391      -2.29340139      -0.18365894
H       -0.15915983      -1.45363298      -1.62111411
H       -1.16645514      -1.09601118       1.26887015
H       -2.15775724      -0.89249615      -0.19676681
H       -0.89038552       1.14849903      -0.77219134
H       -0.30424442       2.29780148       1.04852453
14
Frame=6 idx=010665 GeodesicLength=0.2838342853035584 rxn_smarts="[O:1](/[N:2]=[C:3]1/[C:4]([H:9])([H:10])[C:5]([H:11])([H:12])[C@:6]1([O:7][H:14])[H:13])[H:8]>>[O:1]=[N:2][C@:3]1([H:8])[C:4]([H:9])([H:10])[C:5]([H:11])([H:12])[C@:6]1([O:7][H:14])[H:13]"
O        2.29172123       1.35339950      -0.16436003
N        1.71480977       0.54182746      -0.98423978
C        0.80860235      -0.09595552      -0.20833896
C        0.03766389      -1.35677906      -0.54878124
C       -1.16683578      -0.77439295       0.22627249
C       -0.55049077       0.62288513       0.12101999
O       -0.65910619       1.42738284       1.24689494
H        1.74005202       0.57828719       0.76638020
H        0.46216368      -2.28802191      -0.17858775
H       -0.15586011      -1.45427522      -1.61857848
H       -1.17320840      -1.09478302       1.26771825
H       -2.16007677      -0.89794348      -0.20177796
H       -0.90099691       1.14739702      -0.77554780
H       -0.28843803       2.29097203       1.05192612
14
Frame=7 idx=010665 GeodesicLength=0.33114235001953135 rxn_smarts="[O:1](/[N:2]=[C:3]1/[C:4]([H:9])([H:10])[C:5]([H:11])([H:12])[C@:6]1([O:7][H:14])[H:13])[H:8]>>[O:1]=[N:2][C@:3]1([H:8])[C:4]([H:9])([H:10])[C:5]([H:11])([H:12])[C@:6]1([O:7][H:14])[H:13]"
O        2.29276209       1.35610155      -0.16785772
N        1.70857296       0.54563789      -0.98562977
C        0.80186251      -0.08841100      -0.20611902
C        0.03831952      -1.35432570      -0.54593740
C       -1.17109218      -0.77530682       0.22448704
C       -0.55787241       0.62374968       0.11752140
O       -0.66758769       1.42918104       1.24361664
H        1.76709107       0.56750930       0.77285273
H        0.46742856      -2.28242202      -0.17331390
H       -0.15242227      -1.45484180      -1.61590268
H       -1.18002453      -1.09339623       1.26659540
H       -2.16235852      -0.90347577      -0.20680587
H       -0.91174448       1.14628340      -0.77907390
H       -0.27293463       2.28371646       1.05556705
14
Frame=8 idx=010665 GeodesicLength=0.3784415751835749 rxn_smarts="[O:1](/[N:2]=[C:3]1/[C:4]([H:9])([H:10])[C:5]([H:11])([H:12])[C@:6]1([O:7][H:14])[H:13])[H:8]>>[O:1]=[N:2][C@:3]1([H:8])[C:4]([H:9])([H:10])[C:5]([H:11])([H:12])[C@:6]1([O:7][H:14])[H:13]"
O        2.29386847       1.35864147      -0.17111175
N        1.70218719       0.54967287      -0.98695261
C        0.79505287      -0.08068050      -0.20376361
C        0.03902991      -1.35171773      -0.54294917
C       -1.17537447      -0.77615973       0.22271127
C       -0.56543285       0.62471700       0.11391419
O       -0.67630777       1.43121593       1.24012815
H        1.79495099       0.55599932       0.77857486
H        0.47274404      -2.27659869      -0.16782160
H       -0.14883524      -1.45532971      -1.61307580
H       -1.18691313      -1.09184310       1.26550128
H       -2.16459643      -0.90908909      -0.21185674
H       -0.92261677       1.14515343      -0.78277775
H       -0.25775681       2.27601852       1.05947928
14
Frame=9 idx=010665 GeodesicLength=0.4257523863642501 rxn_smarts="[O:1](/[N:2]=[C:3]1/[C:4]([H:9])([H:10])[C:5]([H:11])([H:12])[C@:6]1([O:7][H:14])[H:13])[H:8]>>[O:1]=[N:2][C@:3]1([H:8])[C:4]([H:9])([H:10])[C:5]([H:11])([H:12])[C@:6]1([O:7][H:14])[H:13]"
O        2.29504294       1.36101325      -0.17410674
N        1.69565344       0.55394031      -0.98820203
C        0.78817575      -0.07276176      -0.20126843
C        0.03979764      -1.34895096      -0.53981059
C       -1.17967944      -0.77694748       0.22094790
C       -0.57316923       0.62578920       0.11019537
O       -0.68529056       1.43350280       1.23641583
H        1.82365212       0.54372780       0.78349492
H        0.47810923      -2.27054891      -0.16210434
H       -0.14509292      -1.45573470      -1.61009131
H       -1.19387304      -1.09011379       1.26443985
H       -2.16678500      -0.91478253      -0.21692671
H       -0.93360763       1.14400021      -0.78666886
H       -0.24293330       2.26786656       1.06368515
14
Frame=10 idx=010665 GeodesicLength=0.47307684901815916 rxn_smarts="[O:1](/[N:2]=[C:3]1/[C:4]([H:9])([H:10])[C:5]([H:11])([H:12])[C@:6]1([O:7][H:14])[H:13])[H:8]>>[O:1]=[N:2][C@:3]1([H:8])[C:4]([H:9])([H:10])[C:5]([H:11])([H:12])[C@:6]1([O:7][H:14])[H:13]"
O        2.29627951       1.36322652      -0.17683779
N        1.68897327       0.55844260      -0.98936197
C        0.78123264      -0.06465349      -0.19861874
C        0.04062618      -1.34601999      -0.53651152
C       -1.18400655      -0.77766695       0.21919704
C       -0.58107637       0.62696704       0.10636874
O       -0.69456160       1.43604875       1.23247401
H        1.85321837       0.53065640       0.78753982
H        0.48352236      -2.26426528      -0.15614877
H       -0.14118377      -1.45605226      -1.60693860
H       -1.20091454      -1.08820551       1.26340885
H       -2.16891723      -0.92055257      -0.22202237
H       -0.94470619       1.14281771      -0.79074999
H       -0.22848608       2.25925702       1.06820130
14
Frame=11 idx=010665 GeodesicLength=0.5204015632220714 rxn_smarts="[O:1](/[N:2]=[C:3]1/[C:4]([H:9])([H:10])[C:5]([H:11])([H:12])[C@:6]1([O:7][H:14])[H:13])[H:8]>>[O:1]=[N:2][C@:3]1([H:8])[C:4]([H:9])([H:10])[C:5]([H:11])([H:12])[C@:6]1([O:7][H:14])[H:13]"
O        2.29757847       1.36528018      -0.17928769
N        1.68215420       0.56318454      -0.99041578
C        0.77422697      -0.05635355      -0.19580413
C        0.04151723      -1.34292218      -0.53304209
C       -1.18835429      -0.77831282       0.21746005
C       -0.58914939       0.62825249       0.10243038
O       -0.70414371       1.43886974       1.22828416
H        1.88367336       0.51676245       0.79062016
H        0.48897895      -2.25774675      -0.14994002
H       -0.13709893      -1.45628061      -1.60360813
H       -1.20804251      -1.08610634       1.26241091
H       -2.17098718      -0.92639496      -0.22714485
H       -0.95589983       1.14159932      -0.79503303
H       -0.21445334       2.25016852       1.07307006
14
Frame=12 idx=010665 GeodesicLength=0.567748599514206 rxn_smarts="[O:1](/[N:2]=[C:3]1/[C:4]([H:9])([H:10])[C:5]([H:11])([H:12])[C@:6]1([O:7][H:14])[H:13])[H:8]>>[O:1]=[N:2][C@:3]1([H:8])[C:4]([H:9])([H:10])[C:5]([H:11])([H:12])[C@:6]1([O:7][H:14])[H:13]"
O        2.29893621       1.36717466      -0.18144037
N        1.67519790       0.56817273      -0.99135230
C        0.76715994      -0.04786023      -0.19281725
C        0.04247423      -1.33965248      -0.52939323
C       -1.19272011      -0.77888078       0.21573846
C       -0.59738332       0.62964742       0.09837892
O       -0.71405613       1.44197897       1.22383446
H        1.91503322       0.50200849       0.79266574
H        0.49447930      -2.25098559      -0.14346524
H       -0.13282768      -1.45641604      -1.60008890
H       -1.21526148      -1.08380788       1.26144666
H       -2.17298740      -0.93230751      -0.23229521
H       -0.96717986       1.14033793      -0.79952592
H       -0.20086483       2.24059031       1.07831417
14
Frame=13 idx=010665 GeodesicLength=0.6151193001127311 rxn_smarts="[O:1](/[N:2]=[C:3]1/[C:4]([H:9])([H:10])[C:5]([H:11])([H:12])[C@:6]1([O:7][H:14])[H:13])[H:8]>>[O:1]=[N:2][C@:3]1([H:8])[C:4]([H:9])([H:10])[C:5]([H:11])([H:12])[C@:6]1([O:7][H:14])[H:13]"
O        2.30035093       1.36890946      -0.18326936
N        1.66811531       0.57341031      -0.99215367
C        0.76003480      -0.03917377      -0.18965071
C        0.04349829      -1.33620923      -0.52555691
C       -1.19710134      -0.77936583       0.21403477
C       -0.60577103       0.63115248       0.09421148
O       -0.72431384       1.44539053       1.21910979
H        1.94731534       0.48637346       0.79358608
H        0.50001894      -2.24398134      -0.13671310
H       -0.12836317      -1.45645651      -1.59637257
H       -1.22257454      -1.08129869       1.26051905
H       -2.17491186      -0.93828514      -0.23747119
H       -0.97853186       1.13902563      -0.80423895
H       -0.18776597       2.23050864       1.08396528
14
Frame=14 idx=010665 GeodesicLength=0.662502879698039 rxn_smarts="[O:1](/[N:2]=[C:3]1/[C:4]([H:9])([H:10])[C:5]([H:11])([H:12])[C@:6]1([O:7][H:14])[H:13])[H:8]>>[O:1]=[N:2][C@:3]1([H:8])[C:4]([H:9])([H:10])[C:5]([H:11])([H:12])[C@:6]1([O:7][H:14])[H:13]"
O        2.30182212       1.37048136      -0.18475034
N        1.66091419       0.57890343      -0.99280089
C        0.75285476      -0.03029251      -0.18629375
C        0.04459205      -1.33258923      -0.52152115
C       -1.20149611      -0.77976290       0.21235020
C       -0.61430594       0.63276927       0.08992525
O       -0.73493350       1.44911936       1.21409245
H        1.98053184       0.46983477       0.79327677
H        0.50559464      -2.23672994      -0.12966519
H       -0.12369391      -1.45640059      -1.59244682
H       -1.22998895      -1.07856771       1.25962888
H       -2.17675297      -0.94432345      -0.24267552
H       -0.98994120       1.13765507      -0.80918319
H       -0.17519703       2.21990308       1.09006330
14
Frame=15 idx=010665 GeodesicLength=0.7098955953994954 rxn_smarts="[O:1](/[N:2]=[C:3]1/[C:4]([H:9])([H:10])[C:5]([H:11])([H:12])[C@:6]1([O:7][H:14])[H:13])[H:8]>>[O:1]=[N:2][C@:3]1([H:8])[C:4]([H:9])([H:10])[C:5]([H:11])([H:12])[C@:6]1([O:7][H:14])[H:13]"
O        2.30334754       1.37188709      -0.18584939
N        1.65360695       0.58465507      -0.99327213
C        0.74562319      -0.02121763      -0.18273760
C        0.04575668      -1.32879074      -0.51727677
C       -1.20590178      -0.78006717       0.21068733
C       -0.62298014       0.63449786       0.08551809
O       -0.74592626       1.45317866       1.20876789
H        2.01469268       0.45237462       0.79163169
H        0.51120213      -2.22922960      -0.12230846
H       -0.11881061      -1.45624542      -1.58830148
H       -1.23750929      -1.07560393       1.25877825
H       -2.17850394      -0.95041748      -0.24790682
H       -1.00139176       1.13621761      -0.81436818
H       -0.16320538       2.20876105       1.09663758
14
Frame=16 idx=010665 GeodesicLength=0.7572844582272134 rxn_smarts="[O:1](/[N:2]=[C:3]1/[C:4]([H:9])([H:10])[C:5]([H:11])([H:12])[C@:6]1([O:7][H:14])[H:13])[H:8]>>[O:1]=[N:2][C@:3]1([H:8])[C:4]([H:9])([H:10])[C:5]([H:11])([H:12])[C@:6]1([O:7][H:14])[H:13]"
O        2.30492893       1.37311716      -0.18653158
N        1.64620629       0.59067162      -0.99354676
C        0.73834337      -0.01194812      -0.17897538
C        0.04699383      -1.32481332      -0.51281173
C       -1.21031614      -0.78027227       0.20904737
C       -0.63178516       0.63633980       0.08098299
O       -0.75730150       1.45758712       1.20311387
H        2.04980203       0.43398543       0.78853113
H        0.51683798      -2.22147843      -0.11462173
H       -0.11370245      -1.45599357      -1.58392370
H       -1.24514198      -1.07239065       1.25796918
H       -2.18015766      -0.95656123      -0.25316560
H       -1.01286612       1.13470555      -0.81980927
H       -0.15184142       2.19705091       1.10374121
