15
Frame=0 idx=011785 GeodesicLength=0.0 rxn_smarts="[C:1]([N:2](/[C:3](=[N:4]\[H:12])[C:5](=[O:6])[C:7]([H:13])([H:14])[H:15])[H:11])([H:8])([H:9])[H:10]>>[C:1]([N:2](/[C:3](=[N:4]\[H:12])[C-:5]=[O+:6][C:7]([H:13])([H:14])[H:15])[H:11])([H:8])([H:9])[H:10]"
C       -2.38331230      -0.28285284      -0.06352127
N       -1.11187194       0.33242828      -0.33690622
C       -0.08337555       0.31302519       0.55454891
N       -0.06307210      -0.14909370       1.74419325
C        1.18173641       1.00473861       0.05813684
O        1.36250233       0.84258312      -1.21852522
C        2.59926738      -0.00493812      -0.40376999
H       -3.06695066      -0.07797622      -0.88546262
H       -2.81970349       0.13677068       0.84650935
H       -2.30628013      -1.36954132       0.06293108
H       -0.84780359       0.49109040      -1.29537065
H       -0.93603030      -0.60825268       1.99372590
H        2.37495038      -0.59488641       0.49095861
H        2.65696365      -0.69131458      -1.25144546
H        3.44297987       0.65821960      -0.29600257
15
Frame=1 idx=011785 GeodesicLength=0.05061641752248054 rxn_smarts="[C:1]([N:2](/[C:3](=[N:4]\[H:12])[C:5](=[O:6])[C:7]([H:13])([H:14])[H:15])[H:11])([H:8])([H:9])[H:10]>>[C:1]([N:2](/[C:3](=[N:4]\[H:12])[C-:5]=[O+:6][C:7]([H:13])([H:14])[H:15])[H:11])([H:8])([H:9])[H:10]"
C       -2.39534812      -0.27620246      -0.05601669
N       -1.11176693       0.30584137      -0.34320046
C       -0.08530355       0.29294479       0.55018932
N       -0.06824420      -0.15638146       1.74469889
C        1.17853375       0.98685569       0.05671858
O        1.35588284       0.83965348      -1.21847961
C        2.61225860       0.00270303      -0.41012908
H       -3.07222599      -0.08434953      -0.88662057
H       -2.82702271       0.17761300       0.83997571
H       -2.33796245      -1.35967134       0.10295923
H       -0.84698699       0.45631173      -1.30253109
H       -0.95375951      -0.58278138       2.00791506
H        2.38747276      -0.64407255       0.44378260
H        2.72501519      -0.63271104      -1.29095488
H        3.43945730       0.67424668      -0.23830701
15
Frame=2 idx=011785 GeodesicLength=0.10063728391669727 rxn_smarts="[C:1]([N:2](/[C:3](=[N:4]\[H:12])[C:5](=[O:6])[C:7]([H:13])([H:14])[H:15])[H:11])([H:8])([H:9])[H:10]>>[C:1]([N:2](/[C:3](=[N:4]\[H:12])[C-:5]=[O+:6][C:7]([H:13])([H:14])[H:15])[H:11])([H:8])([H:9])[H:10]"
C       -2.40645644      -0.27004176      -0.04875281
N       -1.11190234       0.27939236      -0.34893378
C       -0.08745859       0.27449694       0.54634905
N       -0.07320614      -0.16229365       1.74547294
C        1.17532724       0.96931832       0.05457388
O        1.34879721       0.83558251      -1.21892954
C        2.62422878       0.00946484      -0.41633124
H       -3.07708072      -0.09236669      -0.88751223
H       -2.83317765       0.21708318       0.83222687
H       -2.36761864      -1.34892523       0.14262670
H       -0.84668151       0.42257613      -1.30900825
H       -0.96987535      -0.55612428       2.02156320
H        2.39980394      -0.69288952       0.39207388
H        2.79182179      -0.56924252      -1.32665690
H        3.43347841       0.68396936      -0.17876178
15
Frame=3 idx=011785 GeodesicLength=0.1501158522304401 rxn_smarts="[C:1]([N:2](/[C:3](=[N:4]\[H:12])[C:5](=[O:6])[C:7]([H:13])([H:14])[H:15])[H:11])([H:8])([H:9])[H:10]>>[C:1]([N:2](/[C:3](=[N:4]\[H:12])[C-:5]=[O+:6][C:7]([H:13])([H:14])[H:15])[H:11])([H:8])([H:9])[H:10]"
C       -2.41666920      -0.26445126      -0.04173752
N       -1.11228026       0.25319851      -0.35409685
C       -0.08980795       0.25772844       0.54296469
N       -0.07792327      -0.16676755       1.74647206
C        1.17215604       0.95220404       0.05166142
O        1.34133484       0.83032264      -1.21994655
C        2.63526721       0.01531279      -0.42237721
H       -3.08156430      -0.10205619      -0.88809498
H       -2.83832895       0.25497509       0.82331683
H       -2.39516801      -1.33745886       0.18180761
H       -0.84697999       0.39031602      -1.31479735
H       -0.98441163      -0.52829365       2.03465424
H        2.41220382      -0.74080067       0.33588124
H        2.85702768      -0.50127210      -1.35781871
H        3.42514397       0.68704274      -0.11788892
15
Frame=4 idx=011785 GeodesicLength=0.19907773287109626 rxn_smarts="[C:1]([N:2](/[C:3](=[N:4]\[H:12])[C:5](=[O:6])[C:7]([H:13])([H:14])[H:15])[H:11])([H:8])([H:9])[H:10]>>[C:1]([N:2](/[C:3](=[N:4]\[H:12])[C-:5]=[O+:6][C:7]([H:13])([H:14])[H:15])[H:11])([H:8])([H:9])[H:10]"
C       -2.42601708      -0.25946591      -0.03496534
N       -1.11285728       0.22731411      -0.35870382
C       -0.09231086       0.24266050       0.53997739
N       -0.08240676      -0.16963265       1.74769802
C        1.16905401       0.93559492       0.04798654
O        1.33359134       0.82394269      -1.22155866
C        2.64543375       0.02023343      -0.42828446
H       -3.08569060      -0.11341808      -0.88833133
H       -2.84260661       0.29122188       0.81327885
H       -2.42062273      -1.32537401       0.22046234
H       -0.84785912       0.35968441      -1.31992141
H       -0.99737671      -0.49950054       2.04709318
H        2.42492747      -0.78724320       0.27532917
H        2.92020509      -0.42918413      -1.38382254
H        3.41453609       0.68316657      -0.05623793
15
Frame=5 idx=011785 GeodesicLength=0.24757209540245728 rxn_smarts="[C:1]([N:2](/[C:3](=[N:4]\[H:12])[C:5](=[O:6])[C:7]([H:13])([H:14])[H:15])[H:11])([H:8])([H:9])[H:10]>>[C:1]([N:2](/[C:3](=[N:4]\[H:12])[C-:5]=[O+:6][C:7]([H:13])([H:14])[H:15])[H:11])([H:8])([H:9])[H:10]"
C       -2.43455873      -0.25510442      -0.02842907
N       -1.11361515       0.20179743      -0.36277251
C       -0.09492498       0.22922537       0.53730549
N       -0.08666289      -0.17079395       1.74913291
C        1.16604765       0.91951554       0.04355168
O        1.32565636       0.81643647      -1.22379656
C        2.65484136       0.02423829      -0.43404849
H       -3.08951385      -0.12638210      -0.88817217
H       -2.84615397       0.32574957       0.80218460
H       -2.44402694      -1.31277376       0.25851062
H       -0.84935862       0.33091939      -1.32441466
H       -1.00883888      -0.46991128       2.05882580
H        2.43835744      -0.83164856       0.21066802
H        2.98099969      -0.35352552      -1.40406153
H        3.40175151       0.67225754       0.00551588
15
Frame=6 idx=011785 GeodesicLength=0.2956563044169339 rxn_smarts="[C:1]([N:2](/[C:3](=[N:4]\[H:12])[C:5](=[O:6])[C:7]([H:13])([H:14])[H:15])[H:11])([H:8])([H:9])[H:10]>>[C:1]([N:2](/[C:3](=[N:4]\[H:12])[C-:5]=[O+:6][C:7]([H:13])([H:14])[H:15])[H:11])([H:8])([H:9])[H:10]"
C       -2.44233172      -0.25138137      -0.02212809
N       -1.11450281       0.17666678      -0.36631925
C       -0.09760866       0.21734944       0.53490294
N       -0.09071758      -0.17013678       1.75079337
C        1.16316836       0.90397563       0.03842826
O        1.31760628       0.80791900      -1.22662729
C        2.66357031       0.02733157      -0.43969835
H       -3.09303162      -0.14092665      -0.88760703
H       -2.84909787       0.35855785       0.79005115
H       -2.46544093      -1.29973894       0.29593600
H       -0.85144592       0.30412808      -1.32829904
H       -1.01891922      -0.43964115       2.06982733
H        2.45285163      -0.87353288       0.14213224
H        3.03902547      -0.27482663      -1.41810151
H        3.38687430       0.65425606       0.06670927
15
Frame=7 idx=011785 GeodesicLength=0.34336394454458685 rxn_smarts="[C:1]([N:2](/[C:3](=[N:4]\[H:12])[C:5](=[O:6])[C:7]([H:13])([H:14])[H:15])[H:11])([H:8])([H:9])[H:10]>>[C:1]([N:2](/[C:3](=[N:4]\[H:12])[C-:5]=[O+:6][C:7]([H:13])([H:14])[H:15])[H:11])([H:8])([H:9])[H:10]"
C       -2.44938472      -0.24831870      -0.01605922
N       -1.11550705       0.15203536      -0.36934554
C       -0.10033886       0.20697503       0.53271700
N       -0.09461454      -0.16753660       1.75267235
C        1.16046505       0.88893933       0.03266704
O        1.30953390       0.79840230      -1.23001546
C        2.67172550       0.02950168      -0.44524148
H       -3.09626984      -0.15697900      -0.88659950
H       -2.85160288       0.38953089       0.77696493
H       -2.48487346      -1.28638469       0.33262250
H       -0.85416286       0.27960130      -1.33158502
H       -1.02776089      -0.40882340       2.08006417
H        2.46883914      -0.91240401       0.07012990
H        3.09392824      -0.19384665      -1.42552661
H        3.37002327       0.62930716       0.12653496
15
Frame=8 idx=011785 GeodesicLength=0.390734039920555 rxn_smarts="[C:1]([N:2](/[C:3](=[N:4]\[H:12])[C:5](=[O:6])[C:7]([H:13])([H:14])[H:15])[H:11])([H:8])([H:9])[H:10]>>[C:1]([N:2](/[C:3](=[N:4]\[H:12])[C-:5]=[O+:6][C:7]([H:13])([H:14])[H:15])[H:11])([H:8])([H:9])[H:10]"
C       -2.45576478      -0.24589612      -0.01021981
N       -1.11657140       0.12791482      -0.37186044
C       -0.10308959       0.19799349       0.53073601
N       -0.09840721      -0.16296595       1.75477856
C        1.15798322       0.87434256       0.02640938
O        1.30150436       0.78805555      -1.23383955
C        2.67938461       0.03076494      -0.45072773
H       -3.09921063      -0.17446632      -0.88514915
H       -2.85379103       0.41871661       0.76293997
H       -2.50244236      -1.27275062       0.36856273
H       -0.85741893       0.25726039      -1.33428533
H       -1.03556888      -0.37750169       2.08954675
H        2.48670153      -0.94785593      -0.00504147
H        3.14537364      -0.11120850      -1.42610919
H        3.35131745       0.59759679       0.18425927
15
Frame=9 idx=011785 GeodesicLength=0.4378266196402564 rxn_smarts="[C:1]([N:2](/[C:3](=[N:4]\[H:12])[C:5](=[O:6])[C:7]([H:13])([H:14])[H:15])[H:11])([H:8])([H:9])[H:10]>>[C:1]([N:2](/[C:3](=[N:4]\[H:12])[C-:5]=[O+:6][C:7]([H:13])([H:14])[H:15])[H:11])([H:8])([H:9])[H:10]"
C       -2.46148863      -0.24411609      -0.00462315
N       -1.11763817       0.10437888      -0.37384955
C       -0.10585650       0.19038342       0.52899975
N       -0.10216398      -0.15635881       1.75715239
C        1.15576851       0.86013241       0.01984498
O        1.29355050       0.77713165      -1.23793682
C        2.68659172       0.03109832      -0.45623878
H       -3.10178721      -0.19337962      -0.88328723
H       -2.85580103       0.44611912       0.74796878
H       -2.51818298      -1.25889850       0.40372310
H       -0.86109443       0.23701099      -1.33637473
H       -1.04256264      -0.34564338       2.09830862
H        2.50674775      -0.97955700      -0.08311741
H        3.19302710      -0.02758381      -1.41974294
H        3.33088999       0.55928243       0.23917299
15
Frame=10 idx=011785 GeodesicLength=0.4845765307497746 rxn_smarts="[C:1]([N:2](/[C:3](=[N:4]\[H:12])[C:5](=[O:6])[C:7]([H:13])([H:14])[H:15])[H:11])([H:8])([H:9])[H:10]>>[C:1]([N:2](/[C:3](=[N:4]\[H:12])[C-:5]=[O+:6][C:7]([H:13])([H:14])[H:15])[H:11])([H:8])([H:9])[H:10]"
C       -2.46664643      -0.24291451       0.00075314
N       -1.11876770       0.08175024      -0.37530388
C       -0.10867464       0.18417530       0.52747104
N       -0.10594188      -0.14766500       1.75972787
C        1.15386575       0.84621584       0.01298487
O        1.28575060       0.76549090      -1.24227729
C        2.69346737       0.03050515      -0.46176424
H       -3.10408809      -0.21337913      -0.88093300
H       -2.85781821       0.47154728       0.73233163
H       -2.53211147      -1.24495128       0.43781228
H       -0.86523955       0.21897864      -1.33786356
H       -1.04887111      -0.31368176       2.10624616
H        2.52947182      -1.00702307      -0.16320860
H        3.23663628       0.05581330      -1.40631358
H        3.30896728       0.51513808       0.29033717
15
Frame=11 idx=011785 GeodesicLength=0.5309784727756299 rxn_smarts="[C:1]([N:2](/[C:3](=[N:4]\[H:12])[C:5](=[O:6])[C:7]([H:13])([H:14])[H:15])[H:11])([H:8])([H:9])[H:10]>>[C:1]([N:2](/[C:3](=[N:4]\[H:12])[C-:5]=[O+:6][C:7]([H:13])([H:14])[H:15])[H:11])([H:8])([H:9])[H:10]"
C       -2.47130718      -0.24222950       0.00591816
N       -1.11999463       0.06031979      -0.37622282
C       -0.11158324       0.17948019       0.52616800
N       -0.10976217      -0.13684012       1.76248955
C        1.15229802       0.83254471       0.00589525
O        1.27811533       0.75314849      -1.24682043
C        2.70008666       0.02897507      -0.46734252
H       -3.10614726      -0.23422281      -0.87808304
H       -2.86001763       0.49492470       0.71624614
H       -2.54424144      -1.23103553       0.47063473
H       -0.86980491       0.20304657      -1.33875886
H       -1.05462690      -0.28193846       2.11333955
H        2.55519919      -1.02998445      -0.24461031
H        3.27601664       0.13798045      -1.38596947
H        3.28576952       0.46583091       0.33711607
15
Frame=12 idx=011785 GeodesicLength=0.576968419125899 rxn_smarts="[C:1]([N:2](/[C:3](=[N:4]\[H:12])[C:5](=[O:6])[C:7]([H:13])([H:14])[H:15])[H:11])([H:8])([H:9])[H:10]>>[C:1]([N:2](/[C:3](=[N:4]\[H:12])[C-:5]=[O+:6][C:7]([H:13])([H:14])[H:15])[H:11])([H:8])([H:9])[H:10]"
C       -2.47564671      -0.24199583       0.01091882
N       -1.12148247       0.04051315      -0.37664714
C       -0.11466452       0.17641032       0.52502118
N       -0.11363916      -0.12397487       1.76530658
C        1.15112184       0.81902628      -0.00148150
O        1.27076903       0.73981970      -1.25160803
C        2.70665802       0.02654742      -0.47294001
H       -3.10818301      -0.25548327      -0.87467625
H       -2.86268789       0.51601812       0.70018558
H       -2.55459083      -1.21739112       0.50186154
H       -0.87498912       0.18942546      -1.33915227
H       -1.05992010      -0.25082591       2.11957229
H        2.58441017      -1.04818914      -0.32626372
H        3.31119393       0.21757723      -1.35902573
H        3.26165082       0.41252246       0.37892866
15
Frame=13 idx=011785 GeodesicLength=0.6225344432507417 rxn_smarts="[C:1]([N:2](/[C:3](=[N:4]\[H:12])[C:5](=[O:6])[C:7]([H:13])([H:14])[H:15])[H:11])([H:8])([H:9])[H:10]>>[C:1]([N:2](/[C:3](=[N:4]\[H:12])[C-:5]=[O+:6][C:7]([H:13])([H:14])[H:15])[H:11])([H:8])([H:9])[H:10]"
C       -2.47919139      -0.24271914       0.01561366
N       -1.12279073       0.02275406      -0.37639394
C       -0.11793679       0.17621682       0.52452054
N       -0.11770705      -0.10795154       1.76864580
C        1.15054827       0.80614906      -0.00853711
O        1.26360122       0.72712826      -1.25620494
C        2.71258439       0.02274927      -0.47894262
H       -3.10926911      -0.27848641      -0.87109847
H       -2.86613572       0.53436633       0.68362230
H       -2.56231492      -1.20451198       0.53170892
H       -0.87992483       0.17789600      -1.33875872
H       -1.06511571      -0.21932146       2.12526672
H        2.61542310      -1.06208622      -0.40961833
H        3.34182774       0.29451309      -1.32571416
H        3.23640154       0.35330386       0.41589036
15
Frame=14 idx=011785 GeodesicLength=0.6682129603950112 rxn_smarts="[C:1]([N:2](/[C:3](=[N:4]\[H:12])[C:5](=[O:6])[C:7]([H:13])([H:14])[H:15])[H:11])([H:8])([H:9])[H:10]>>[C:1]([N:2](/[C:3](=[N:4]\[H:12])[C-:5]=[O+:6][C:7]([H:13])([H:14])[H:15])[H:11])([H:8])([H:9])[H:10]"
C       -2.48237997      -0.24413047       0.02009279
N       -1.12410436       0.00639837      -0.37566695
C       -0.12138315       0.17817067       0.52448990
N       -0.12184593      -0.08941011       1.77243458
C        1.15049839       0.79365464      -0.01516844
O        1.25652979       0.71507285      -1.26057741
C        2.71835064       0.01790475      -0.48539901
H       -3.10996171      -0.30289120      -0.86732866
H       -2.87043400       0.55080521       0.66658897
H       -2.56827909      -1.19206300       0.56064730
H       -0.88488457       0.16736596      -1.33800807
H       -1.07023244      -0.18710670       2.13069909
H        2.64920124      -1.07123806      -0.49502624
H        3.36862886       0.36879569      -1.28576917
H        3.21029630       0.28867140       0.44799131
15
Frame=15 idx=011785 GeodesicLength=0.7134110602881296 rxn_smarts="[C:1]([N:2](/[C:3](=[N:4]\[H:12])[C:5](=[O:6])[C:7]([H:13])([H:14])[H:15])[H:11])([H:8])([H:9])[H:10]>>[C:1]([N:2](/[C:3](=[N:4]\[H:12])[C-:5]=[O+:6][C:7]([H:13])([H:14])[H:15])[H:11])([H:8])([H:9])[H:10]"
C       -2.48565930      -0.24508200       0.02483933
N       -1.12563563      -0.00958077      -0.37457289
C       -0.12490453       0.17972467       0.52408850
N       -0.12620732      -0.07061971       1.77551345
C        1.15046108       0.78006392      -0.02236484
O        1.24979690       0.70104164      -1.26512361
C        2.72447811       0.01310816      -0.49207957
H       -3.11092941      -0.32619842      -0.86235738
H       -2.87446767       0.56670239       0.64974235
H       -2.57444899      -1.17865147       0.58897781
H       -0.88999967       0.15626954      -1.33694612
H       -1.07537179      -0.15538718       2.13513138
H        2.68818431      -1.07377503      -0.58013996
H        3.39193772       0.44050827      -1.23917620
H        3.18276620       0.22187600       0.47446777
15
Frame=16 idx=011785 GeodesicLength=0.758790455434355 rxn_smarts="[C:1]([N:2](/[C:3](=[N:4]\[H:12])[C:5](=[O:6])[C:7]([H:13])([H:14])[H:15])[H:11])([H:8])([H:9])[H:10]>>[C:1]([N:2](/[C:3](=[N:4]\[H:12])[C-:5]=[O+:6][C:7]([H:13])([H:14])[H:15])[H:11])([H:8])([H:9])[H:10]"
C       -2.48892069      -0.24583476       0.02961052
N       -1.12708704      -0.02587172      -0.37301594
C       -0.12841700       0.18115025       0.52390239
N       -0.13079345      -0.05098145       1.77876109
C        1.15052790       0.76577264      -0.02918058
O        1.24300557       0.68701576      -1.26941132
C        2.73082998       0.00823206      -0.49946295
H       -3.11183066      -0.34970594      -0.85680474
H       -2.87838925       0.58266904       0.63196269
H       -2.58083093      -1.16410290       0.61744613
H       -0.89459988       0.14305204      -1.33560862
H       -1.08077013      -0.12253776       2.13926683
H        2.73174844      -1.06950238      -0.66741766
H        3.41154007       0.51030912      -1.18553638
H        3.15398707       0.15033600       0.49548855
