8
Frame=0 idx=005048 GeodesicLength=0.0 rxn_smarts="[N:1]([C:2]([C:3]#[N:4])([H:7])[H:8])([H:5])[H:6]>>[N:1]([C:2]([N+:4]#[C-:3])([H:7])[H:8])([H:5])[H:6]"
N       -1.00666525      -0.49635375       0.06624373
C       -0.11270033       0.52039046       0.06158230
C        1.55777214      -0.05116486      -0.78542738
N        1.85787225      -0.10035888       0.35167696
H       -1.20357551      -0.93190604      -0.81939156
H       -0.94521736      -1.14951274       0.82900394
H        0.08236027       0.96348685       1.02670058
H       -0.22984620       1.24541894      -0.73038857
8
Frame=1 idx=005048 GeodesicLength=0.036864408960824914 rxn_smarts="[N:1]([C:2]([C:3]#[N:4])([H:7])[H:8])([H:5])[H:6]>>[N:1]([C:2]([N+:4]#[C-:3])([H:7])[H:8])([H:5])[H:6]"
N       -1.00914352      -0.49533347       0.06796940
C       -0.10331554       0.51754531       0.05871399
C        1.57327382      -0.02120425      -0.78966015
N        1.84479420      -0.13387236       0.34791017
H       -1.19381838      -0.94131169      -0.81532491
H       -0.95112984      -1.14283513       0.83607382
H        0.07793929       0.97094370       1.02260670
H       -0.23860003       1.24606790      -0.72828901
8
Frame=2 idx=005048 GeodesicLength=0.07398884244252615 rxn_smarts="[N:1]([C:2]([C:3]#[N:4])([H:7])[H:8])([H:5])[H:6]>>[N:1]([C:2]([N+:4]#[C-:3])([H:7])[H:8])([H:5])[H:6]"
N       -1.01184217      -0.49419796       0.06968374
C       -0.09410507       0.51472525       0.05580932
C        1.58930120       0.00928778      -0.79178691
N        1.83108157      -0.16739941       0.34212143
H       -1.18412795      -0.95077826      -0.81087325
H       -0.95698153      -1.13600799       0.84301353
H        0.07362603       0.97805440       1.01829033
H       -0.24695208       1.24631618      -0.72625819
8
Frame=3 idx=005048 GeodesicLength=0.11104730001729567 rxn_smarts="[N:1]([C:2]([C:3]#[N:4])([H:7])[H:8])([H:5])[H:6]>>[N:1]([C:2]([N+:4]#[C-:3])([H:7])[H:8])([H:5])[H:6]"
N       -1.01477075      -0.49298383       0.07132884
C       -0.08507957       0.51190527       0.05294148
C        1.60570296       0.04003565      -0.79174343
N        1.81718515      -0.20062663       0.33422637
H       -1.17458758      -0.96025459      -0.80617719
H       -0.96290247      -1.12901090       0.84988536
H        0.06937146       0.98482184       1.01388665
H       -0.25491920       1.24611319      -0.72434806
8
Frame=4 idx=005048 GeodesicLength=0.14785231304839033 rxn_smarts="[N:1]([C:2]([C:3]#[N:4])([H:7])[H:8])([H:5])[H:6]>>[N:1]([C:2]([N+:4]#[C-:3])([H:7])[H:8])([H:5])[H:6]"
N       -1.01795277      -0.49166658       0.07313794
C       -0.07625931       0.50910502       0.05010086
C        1.62235798       0.07005873      -0.78942760
N        1.80316264      -0.23272659       0.32466919
H       -1.16610948      -0.96898304      -0.80122827
H       -0.96787745      -1.12261082       0.85621072
H        0.06494715       0.99147408       1.00933196
H       -0.26226877       1.24534921      -0.72279481
8
Frame=5 idx=005048 GeodesicLength=0.1843644869343612 rxn_smarts="[N:1]([C:2]([C:3]#[N:4])([H:7])[H:8])([H:5])[H:6]>>[N:1]([C:2]([N+:4]#[C-:3])([H:7])[H:8])([H:5])[H:6]"
N       -1.02130672      -0.49030723       0.07497431
C       -0.06759794       0.50628515       0.04735300
C        1.63907317       0.09962918      -0.78493086
N        1.78920012      -0.26386792       0.31326374
H       -1.15827944      -0.97730068      -0.79610151
H       -0.97247440      -1.11643247       0.86225073
H        0.06043448       0.99794888       1.00466696
H       -0.26904926       1.24404509      -0.72147637
8
Frame=6 idx=005048 GeodesicLength=0.22102550102422996 rxn_smarts="[N:1]([C:2]([C:3]#[N:4])([H:7])[H:8])([H:5])[H:6]>>[N:1]([C:2]([N+:4]#[C-:3])([H:7])[H:8])([H:5])[H:6]"
N       -1.02483359      -0.48888371       0.07699020
C       -0.05911012       0.50347521       0.04457206
C        1.65623626       0.12909432      -0.77811520
N        1.77484116      -0.29448706       0.30000687
H       -1.15128751      -0.98515810      -0.79065388
H       -0.97632942      -1.11062339       0.86800759
H        0.05579196       1.00435518       0.99975120
H       -0.27530873       1.24222755      -0.72055885
8
Frame=7 idx=005048 GeodesicLength=0.2576080813916548 rxn_smarts="[N:1]([C:2]([C:3]#[N:4])([H:7])[H:8])([H:5])[H:6]>>[N:1]([C:2]([N+:4]#[C-:3])([H:7])[H:8])([H:5])[H:6]"
N       -1.02851872      -0.48743688       0.07909752
C       -0.05077059       0.50063244       0.04183667
C        1.67369577       0.15842173      -0.76900066
N        1.76044073      -0.32447943       0.28472915
H       -1.14495372      -0.99268999      -0.78500041
H       -0.97983117      -1.10497538       0.87366588
H        0.05101467       1.01064654       0.99468138
H       -0.28107697       1.23988097      -0.72000954
8
Frame=8 idx=005048 GeodesicLength=0.2937533092492947 rxn_smarts="[N:1]([C:2]([C:3]#[N:4])([H:7])[H:8])([H:5])[H:6]>>[N:1]([C:2]([N+:4]#[C-:3])([H:7])[H:8])([H:5])[H:6]"
N       -1.03233795      -0.48596241       0.08140505
C       -0.04259660       0.49779214       0.03923188
C        1.69109029       0.18669640      -0.75777605
N        1.74626552      -0.35311733       0.26787241
H       -1.13968808      -0.99944650      -0.77927071
H       -0.98245843      -1.09995547       0.87894791
H        0.04593241       1.01699746       0.98948421
H       -0.28620715       1.23699571      -0.71989470
8
Frame=9 idx=005048 GeodesicLength=0.3300918457487466 rxn_smarts="[N:1]([C:2]([C:3]#[N:4])([H:7])[H:8])([H:5])[H:6]>>[N:1]([C:2]([N+:4]#[C-:3])([H:7])[H:8])([H:5])[H:6]"
N       -1.03623800      -0.48445392       0.08401600
C       -0.03457392       0.49497917       0.03662004
C        1.70878537       0.21451640      -0.74406774
N        1.73169521      -0.38096448       0.24915822
H       -1.13551138      -1.00555867      -0.77328209
H       -0.98403150      -1.09551752       0.88390794
H        0.04063394       1.02346368       0.98395103
H       -0.29075971       1.23353534      -0.72030339
8
Frame=10 idx=005048 GeodesicLength=0.3662849205523826 rxn_smarts="[N:1]([C:2]([C:3]#[N:4])([H:7])[H:8])([H:5])[H:6]>>[N:1]([C:2]([N+:4]#[C-:3])([H:7])[H:8])([H:5])[H:6]"
N       -1.04024103      -0.48293964       0.08686369
C       -0.02668368       0.49214359       0.03409441
C        1.72665133       0.24182215      -0.72795617
N        1.71718270      -0.40793804       0.22844003
H       -1.13224257      -1.01112876      -0.76715832
H       -0.98495021      -1.09147771       0.88875402
H        0.03505582       1.03001540       0.97819838
H       -0.29477236       1.22950300      -0.72123605
8
Frame=11 idx=005048 GeodesicLength=0.4022276533911275 rxn_smarts="[N:1]([C:2]([C:3]#[N:4])([H:7])[H:8])([H:5])[H:6]>>[N:1]([C:2]([N+:4]#[C-:3])([H:7])[H:8])([H:5])[H:6]"
N       -1.04429941      -0.48141462       0.09004785
C       -0.01894012       0.48934748       0.03169680
C        1.74446675       0.26797615      -0.70960156
N        1.70276027      -0.43358158       0.20606645
H       -1.13010964      -1.01587375      -0.76097402
H       -0.98479917      -1.08817185       0.89328085
H        0.02910756       1.03679612       0.97220042
H       -0.29818624       1.22492206      -0.72271678
8
Frame=12 idx=005048 GeodesicLength=0.43789641545532015 rxn_smarts="[N:1]([C:2]([C:3]#[N:4])([H:7])[H:8])([H:5])[H:6]>>[N:1]([C:2]([N+:4]#[C-:3])([H:7])[H:8])([H:5])[H:6]"
N       -1.04838484      -0.47989039       0.09355155
C       -0.01133122       0.48659000       0.02946587
C        1.76215695       0.29302369      -0.68898200
N        1.68846678      -0.45794847       0.18190194
H       -1.12896329      -1.01990594      -0.75473527
H       -0.98373187      -1.08547496       0.89757059
H        0.02279190       1.04382346       0.96596309
H       -0.30100440       1.21978262      -0.72473578
8
Frame=13 idx=005048 GeodesicLength=0.4734433094377179 rxn_smarts="[N:1]([C:2]([C:3]#[N:4])([H:7])[H:8])([H:5])[H:6]>>[N:1]([C:2]([N+:4]#[C-:3])([H:7])[H:8])([H:5])[H:6]"
N       -1.05247126      -0.47835756       0.09750040
C       -0.00387498       0.48393843       0.02736905
C        1.77980085       0.31676236      -0.66602657
N        1.67412165      -0.48098125       0.15603145
H       -1.12895282      -1.02307798      -0.74842341
H       -0.98140688      -1.08362050       0.90153182
H        0.01604857       1.05122794       0.95939165
H       -0.30326513       1.21410857      -0.72737438
8
Frame=14 idx=005048 GeodesicLength=0.5089579606281188 rxn_smarts="[N:1]([C:2]([C:3]#[N:4])([H:7])[H:8])([H:5])[H:6]>>[N:1]([C:2]([N+:4]#[C-:3])([H:7])[H:8])([H:5])[H:6]"
N       -1.05657605      -0.47684509       0.10182728
C        0.00347305       0.48128841       0.02544456
C        1.79749793       0.33988125      -0.64013399
N        1.65980157      -0.50310949       0.12752453
H       -1.12980444      -1.02574982      -0.74193934
H       -0.97839282      -1.08211084       0.90551957
H        0.00890880       1.05893226       0.95246691
H       -0.30490804       1.20771330      -0.73070954
8
Frame=15 idx=005048 GeodesicLength=0.544754090045661 rxn_smarts="[N:1]([C:2]([C:3]#[N:4])([H:7])[H:8])([H:5])[H:6]>>[N:1]([C:2]([N+:4]#[C-:3])([H:7])[H:8])([H:5])[H:6]"
N       -1.06061039      -0.47531639       0.10674319
C        0.01065095       0.47879911       0.02362141
C        1.81536289       0.36192260      -0.61095563
N        1.64502312      -0.52419122       0.09632001
H       -1.13172409      -1.02770373      -0.73519884
H       -0.97397803      -1.08133238       0.90930863
H        0.00123950       1.06718445       0.94505008
H       -0.30596395       1.20063757      -0.73488885
8
Frame=16 idx=005048 GeodesicLength=0.5805187747994243 rxn_smarts="[N:1]([C:2]([C:3]#[N:4])([H:7])[H:8])([H:5])[H:6]>>[N:1]([C:2]([N+:4]#[C-:3])([H:7])[H:8])([H:5])[H:6]"
N       -1.06460820      -0.47379751       0.11219535
C        0.01770069       0.47639136       0.02202507
C        1.83307192       0.38263559      -0.57844836
N        1.63024084      -0.54388588       0.06221712
H       -1.13463146      -1.02897006      -0.72826466
H       -0.96844763      -1.08111920       0.91299417
H       -0.00697180       1.07597324       0.93715075
H       -0.30635436       1.19277246      -0.73986943
