14
Frame=0 idx=011413 GeodesicLength=0.0 rxn_smarts="[O:1]=[C:2]1[C:3]([H:8])([H:9])[C:4]([H:10])=[C:5]([H:11])[C:6]([H:12])([H:13])[N:7]1[H:14]>>[O:1]1[C@:2]23[C:3]([H:8])([H:9])[C@@:4]1([H:10])[C@:5]2([H:11])[C:6]([H:12])([H:13])[N:7]3[H:14]"
O        0.63293478       0.47159347      -1.31639027
C        0.53657550       0.79439158      -0.03995564
C        1.57956874      -0.14562015       0.49960082
C        0.75377792      -0.90104640      -0.59415505
C       -0.65339622      -0.97820295      -0.13511498
C       -1.50464091       0.28347421       0.06754198
N       -0.59473190       1.43474684       0.43816795
H        1.45111719      -0.52223369       1.50724455
H        2.60934839       0.15412043       0.26968782
H        1.23197140      -1.68695997      -1.19362460
H       -0.95274096      -1.85693193       0.42668510
H       -2.13732953       0.11491182       0.93801338
H       -2.14847579       0.55778554      -0.77942195
H       -0.80397863       2.27997122      -0.08827914
14
Frame=1 idx=011413 GeodesicLength=0.08469043012361649 rxn_smarts="[O:1]=[C:2]1[C:3]([H:8])([H:9])[C:4]([H:10])=[C:5]([H:11])[C:6]([H:12])([H:13])[N:7]1[H:14]>>[O:1]1[C@:2]23[C:3]([H:8])([H:9])[C@@:4]1([H:10])[C@:5]2([H:11])[C:6]([H:12])([H:13])[N:7]3[H:14]"
O        0.64772376       0.50153815      -1.31660326
C        0.53662543       0.79772026      -0.03253289
C        1.58002758      -0.15048581       0.49493097
C        0.75333869      -0.90551639      -0.59597650
C       -0.64744219      -0.97125859      -0.12671575
C       -1.51117307       0.28200279       0.06531441
N       -0.60184576       1.42957735       0.43878233
H        1.46225241      -0.51915228       1.50693324
H        2.61014942       0.13918733       0.25582324
H        1.22590296      -1.69933535      -1.18810326
H       -0.94726887      -1.84833249       0.43777406
H       -2.15333054       0.11485234       0.92935421
H       -2.14563054       0.54894393      -0.79038473
H       -0.80932928       2.28025876      -0.07859607
14
Frame=2 idx=011413 GeodesicLength=0.16932005059579594 rxn_smarts="[O:1]=[C:2]1[C:3]([H:8])([H:9])[C:4]([H:10])=[C:5]([H:11])[C:6]([H:12])([H:13])[N:7]1[H:14]>>[O:1]1[C@:2]23[C:3]([H:8])([H:9])[C@@:4]1([H:10])[C@:5]2([H:11])[C:6]([H:12])([H:13])[N:7]3[H:14]"
O        0.66285605       0.53231509      -1.31617550
C        0.53666956       0.80101596      -0.02506051
C        1.58046541      -0.15534101       0.49005347
C        0.75269492      -0.91018627      -0.59774114
C       -0.64157811      -0.96431825      -0.11829582
C       -1.51766301       0.28042946       0.06294355
N       -0.60893245       1.42433997       0.43927728
H        1.47373052      -0.51599266       1.50629569
H        2.61072264       0.12433997       0.24171527
H        1.21950479      -1.71205765      -1.18219645
H       -0.94192042      -1.83965503       0.44897842
H       -2.16926241       0.11468087       0.92041228
H       -2.14251499       0.53997050      -0.80141654
H       -0.81477250       2.28045907      -0.06879000
14
Frame=3 idx=011413 GeodesicLength=0.2539143658536189 rxn_smarts="[O:1]=[C:2]1[C:3]([H:8])([H:9])[C:4]([H:10])=[C:5]([H:11])[C:6]([H:12])([H:13])[N:7]1[H:14]>>[O:1]1[C@:2]23[C:3]([H:8])([H:9])[C@@:4]1([H:10])[C@:5]2([H:11])[C:6]([H:12])([H:13])[N:7]3[H:14]"
O        0.67834310       0.56397564      -1.31505998
C        0.53670317       0.80427400      -0.01753774
C        1.58088118      -0.16018311       0.48495327
C        0.75184001      -0.91507161      -0.59944302
C       -0.63580662      -0.95738786      -0.10985725
C       -1.52410858       0.27875094       0.06041918
N       -0.61599327       1.41903180       0.43965085
H        1.48556657      -0.51275566       1.50530610
H        2.61106342       0.10958047       0.22732942
H        1.21276850      -1.72514955      -1.17586327
H       -0.93669793      -1.83089483       0.46031118
H       -2.18512945       0.11439559       0.91117074
H       -2.13911738       0.53086577      -0.81252782
H       -0.82031271       2.28056841      -0.05885168
14
Frame=4 idx=011413 GeodesicLength=0.33848958646633975 rxn_smarts="[O:1]=[C:2]1[C:3]([H:8])([H:9])[C:4]([H:10])=[C:5]([H:11])[C:6]([H:12])([H:13])[N:7]1[H:14]>>[O:1]1[C@:2]23[C:3]([H:8])([H:9])[C@@:4]1([H:10])[C@:5]2([H:11])[C:6]([H:12])([H:13])[N:7]3[H:14]"
O        0.69419983       0.59657457      -1.31319894
C        0.53672085       0.80748907      -0.00996436
C        1.58127312      -0.16500947       0.47961297
C        0.75076662      -0.92018936      -0.60107773
C       -0.63013091      -0.95047396      -0.10140109
C       -1.53050712       0.27696412       0.05772988
N       -0.62303016       1.41365003       0.43989965
H        1.49777710      -0.50944305       1.50393394
H        2.61116598       0.09491097       0.21262658
H        1.20568535      -1.73863461      -1.16905857
H       -0.93160338      -1.82204587       0.47178836
H       -2.20093700       0.11399600       0.90160978
H       -2.13542433       0.52162967      -0.82372962
H       -0.82595595       2.28058187      -0.04877087
14
Frame=5 idx=011413 GeodesicLength=0.4230703459593884 rxn_smarts="[O:1]=[C:2]1[C:3]([H:8])([H:9])[C:4]([H:10])=[C:5]([H:11])[C:6]([H:12])([H:13])[N:7]1[H:14]>>[O:1]1[C@:2]23[C:3]([H:8])([H:9])[C@@:4]1([H:10])[C@:5]2([H:11])[C:6]([H:12])([H:13])[N:7]3[H:14]"
O        0.71044245       0.63016872      -1.31053019
C        0.53671691       0.81065419      -0.00234383
C        1.58164125      -0.16981713       0.47401598
C        0.74946700      -0.92556293      -0.60263151
C       -0.62455468      -0.94358399      -0.09292787
C       -1.53685685       0.27506504       0.05486296
N       -0.63004397       1.40819068       0.44002057
H        1.51038042      -0.50605094       1.50215178
H        2.61102382       0.08033611       0.19756674
H        1.19824623      -1.75253776      -1.16174975
H       -0.92664176      -1.81310214       0.48342821
H       -2.21669033       0.11348120       0.89170835
H       -2.13142430       0.51226261      -0.83503436
H       -0.83170620       2.28049636      -0.03853707
14
Frame=6 idx=011413 GeodesicLength=0.5076665221734555 rxn_smarts="[O:1]=[C:2]1[C:3]([H:8])([H:9])[C:4]([H:10])=[C:5]([H:11])[C:6]([H:12])([H:13])[N:7]1[H:14]>>[O:1]1[C@:2]23[C:3]([H:8])([H:9])[C@@:4]1([H:10])[C@:5]2([H:11])[C:6]([H:12])([H:13])[N:7]3[H:14]"
O        0.72708636       0.66482299      -1.30697443
C        0.53668577       0.81376255       0.00531759
C        1.58198347      -0.17460234       0.46813766
C        0.74793392      -0.93121532      -0.60409878
C       -0.61908181      -0.93672546      -0.08443984
C       -1.54315373       0.27305025       0.05180389
N       -0.63703519       1.40264924       0.44000929
H        1.52339448      -0.50257853       1.49992066
H        2.61062636       0.06585982       0.18210011
H        1.19044237      -1.76689006      -1.15387696
H       -0.92181633      -1.80405480       0.49524858
H       -2.23239457       0.11285100       0.88144124
H       -2.12709997       0.50276597      -0.84645530
H       -0.83757114       2.28030471      -0.02813371
14
Frame=7 idx=011413 GeodesicLength=0.5922976377139794 rxn_smarts="[O:1]=[C:2]1[C:3]([H:8])([H:9])[C:4]([H:10])=[C:5]([H:11])[C:6]([H:12])([H:13])[N:7]1[H:14]>>[O:1]1[C@:2]23[C:3]([H:8])([H:9])[C@@:4]1([H:10])[C@:5]2([H:11])[C:6]([H:12])([H:13])[N:7]3[H:14]"
O        0.74415336       0.70060282      -1.30244911
C        0.53662151       0.81680506       0.01301477
C        1.58229921      -0.17936231       0.46195687
C        0.74615776      -0.93717615      -0.60546390
C       -0.61371683      -0.92990730      -0.07593514
C       -1.54939545       0.27091547       0.04853803
N       -0.64400449       1.39702124       0.43986039
H        1.53684025      -0.49902173       1.49720546
H        2.60996259       0.05148822       0.16617708
H        1.18226257      -1.78171588      -1.14540278
H       -0.91713263      -1.79489532       0.50727426
H       -2.24805606       0.11210552       0.87078262
H       -2.12243620       0.49313896      -0.85800753
H       -0.84355559       2.28000141      -0.01755102
14
Frame=8 idx=011413 GeodesicLength=0.6769783776684855 rxn_smarts="[O:1]=[C:2]1[C:3]([H:8])([H:9])[C:4]([H:10])=[C:5]([H:11])[C:6]([H:12])([H:13])[N:7]1[H:14]>>[O:1]1[C@:2]23[C:3]([H:8])([H:9])[C@@:4]1([H:10])[C@:5]2([H:11])[C:6]([H:12])([H:13])[N:7]3[H:14]"
O        0.76166545       0.73758735      -1.29684521
C        0.53651722       0.81977195       0.02073506
C        1.58258627      -0.18409346       0.45544277
C        0.74412953      -0.94347875      -0.60671377
C       -0.60846525      -0.92313918      -0.06741389
C       -1.55557787       0.26865627       0.04504630
N       -0.65095198       1.39129976       0.43956824
H        1.55074235      -0.49537522       1.49395934
H        2.60901658       0.03722813       0.14973314
H        1.17369648      -1.79705330      -1.13626466
H       -0.91259657      -1.78561013       0.51953207
H       -2.26368174       0.11124536       0.85969886
H       -2.11741205       0.48338225      -0.86971020
H       -0.84966843       2.27957898      -0.00676804
14
Frame=9 idx=011413 GeodesicLength=0.7616183570001444 rxn_smarts="[O:1]=[C:2]1[C:3]([H:8])([H:9])[C:4]([H:10])=[C:5]([H:11])[C:6]([H:12])([H:13])[N:7]1[H:14]>>[O:1]1[C@:2]23[C:3]([H:8])([H:9])[C@@:4]1([H:10])[C@:5]2([H:11])[C:6]([H:12])([H:13])[N:7]3[H:14]"
O        0.77958112       0.77581600      -1.29001250
C        0.53636288       0.82266087       0.02844650
C        1.58285224      -0.18878008       0.44852977
C        0.74185293      -0.95016259      -0.60782341
C       -0.60332509      -0.91642424      -0.05889718
C       -1.56169383       0.26627365       0.04128528
N       -0.65787507       1.38546661       0.43916293
H        1.56514548      -0.49160867       1.49009745
H        2.60777574       0.02308426       0.13265689
H        1.16475057      -1.81298347      -1.12629181
H       -0.90821802      -1.77617086       0.53202611
H       -2.27929574       0.11026187       0.84811114
H       -2.11199026       0.47353101      -0.88160845
H       -0.85592295       2.27903564       0.00431726
14
Frame=10 idx=011413 GeodesicLength=0.8463004693634751 rxn_smarts="[O:1]=[C:2]1[C:3]([H:8])([H:9])[C:4]([H:10])=[C:5]([H:11])[C:6]([H:12])([H:13])[N:7]1[H:14]>>[O:1]1[C@:2]23[C:3]([H:8])([H:9])[C@@:4]1([H:10])[C@:5]2([H:11])[C:6]([H:12])([H:13])[N:7]3[H:14]"
O        0.79798435       0.81539290      -1.28185213
C        0.53615442       0.82545310       0.03616099
C        1.58308832      -0.19343093       0.44121586
C        0.73930322      -0.95726386      -0.60878194
C       -0.59830923      -0.90977727      -0.05036145
C       -1.56774286       0.26375918       0.03725428
N       -0.66477893       1.37952758       0.43860218
H        1.58006571      -0.48774217       1.48559905
H        2.60621377       0.00907335       0.11491220
H        1.15539435      -1.82949133      -1.11552365
H       -0.90400051      -1.76657203       0.54481331
H       -2.29488945       0.10916603       0.83601959
H       -2.10616078       0.46355385      -0.89370237
H       -0.86232238       2.27835160       0.01564407
14
Frame=11 idx=011413 GeodesicLength=0.9310227088574763 rxn_smarts="[O:1]=[C:2]1[C:3]([H:8])([H:9])[C:4]([H:10])=[C:5]([H:11])[C:6]([H:12])([H:13])[N:7]1[H:14]>>[O:1]1[C@:2]23[C:3]([H:8])([H:9])[C@@:4]1([H:10])[C@:5]2([H:11])[C:6]([H:12])([H:13])[N:7]3[H:14]"
O        0.81689820       0.85639229      -1.27222890
C        0.53588500       0.82813710       0.04387845
C        1.58329504      -0.19804455       0.43346672
C        0.73646684      -0.96482346      -0.60956429
C       -0.59342335      -0.90320776      -0.04179792
C       -1.57372011       0.26110836       0.03293026
N       -0.67166679       1.37347829       0.43787697
H        1.59553851      -0.48377534       1.48040684
H        2.60430648      -0.00479270       0.09641742
H        1.14561467      -1.84660395      -1.10390459
H       -0.89995120      -1.75679406       0.55793394
H       -2.31047311       0.10796067       0.82338054
H       -2.09989541       0.45344705      -0.90601819
H       -0.86887477       2.27751805       0.02722275
14
Frame=12 idx=011413 GeodesicLength=1.015754778575385 rxn_smarts="[O:1]=[C:2]1[C:3]([H:8])([H:9])[C:4]([H:10])=[C:5]([H:11])[C:6]([H:12])([H:13])[N:7]1[H:14]>>[O:1]1[C@:2]23[C:3]([H:8])([H:9])[C@@:4]1([H:10])[C@:5]2([H:11])[C:6]([H:12])([H:13])[N:7]3[H:14]"
O        0.83634712       0.89887642      -1.26099761
C        0.53554698       0.83070233       0.05159368
C        1.58347358      -0.20261924       0.42524487
C        0.73333088      -0.97288090      -0.61014485
C       -0.58867224      -0.89672433      -0.03320162
C       -1.57962280       0.25831674       0.02828740
N       -0.67854154       1.36731437       0.43697937
H        1.61160364      -0.47970481       1.47446135
H        2.60202808      -0.01849743       0.07708718
H        1.13539725      -1.86435262      -1.09136935
H       -0.89607655      -1.74681624       0.57142475
H       -2.32605626       0.10664655       0.81014820
H       -2.09317111       0.44321090      -0.91858103
H       -0.87558703       2.27652825       0.03906766
14
Frame=13 idx=011413 GeodesicLength=1.100505898694933 rxn_smarts="[O:1]=[C:2]1[C:3]([H:8])([H:9])[C:4]([H:10])=[C:5]([H:11])[C:6]([H:12])([H:13])[N:7]1[H:14]>>[O:1]1[C@:2]23[C:3]([H:8])([H:9])[C@@:4]1([H:10])[C@:5]2([H:11])[C:6]([H:12])([H:13])[N:7]3[H:14]"
O        0.85636209       0.94294115      -1.24796869
C        0.53513261       0.83313398       0.05930756
C        1.58362271      -0.20715369       0.41650171
C        0.72987741      -0.98148828      -0.61049258
C       -0.58406319      -0.89033794      -0.02455765
C       -1.58544388       0.25537890       0.02329429
N       -0.68540779       1.36103047       0.43589634
H        1.62831055      -0.47553054       1.46768149
H        2.59933992      -0.03202224       0.05680909
H        1.12472385      -1.88277640      -1.07783994
H       -0.89238523      -1.73660874       0.58534208
H       -2.34165177       0.10522850       0.79626067
H       -2.08594664       0.43283873      -0.93142676
H       -0.88247065       2.27536610       0.05119240
14
Frame=14 idx=011413 GeodesicLength=1.1852533659731022 rxn_smarts="[O:1]=[C:2]1[C:3]([H:8])([H:9])[C:4]([H:10])=[C:5]([H:11])[C:6]([H:12])([H:13])[N:7]1[H:14]>>[O:1]1[C@:2]23[C:3]([H:8])([H:9])[C@@:4]1([H:10])[C@:5]2([H:11])[C:6]([H:12])([H:13])[N:7]3[H:14]"
O        0.87698008       0.98867130      -1.23291382
C        0.53463358       0.83541799       0.06699732
C        1.58373901      -0.21164569       0.40717946
C        0.72608801      -0.99070627      -0.61057155
C       -0.57960419      -0.88405932      -0.01585752
C       -1.59117631       0.25228920       0.01791650
N       -0.69226638       1.35461919       0.43461274
H        1.64570858      -0.47123984       1.45997725
H        2.59619613      -0.04534614       0.03545857
H        1.11358028      -1.90191708      -1.06322101
H       -0.88888868      -1.72613736       0.59973569
H       -2.35726763       0.10370989       0.78165547
H       -2.07818387       0.42232638      -0.94458916
H       -0.88953862       2.27401775       0.06362005
14
Frame=15 idx=011413 GeodesicLength=1.2699632765334092 rxn_smarts="[O:1]=[C:2]1[C:3]([H:8])([H:9])[C:4]([H:10])=[C:5]([H:11])[C:6]([H:12])([H:13])[N:7]1[H:14]>>[O:1]1[C@:2]23[C:3]([H:8])([H:9])[C@@:4]1([H:10])[C@:5]2([H:11])[C:6]([H:12])([H:13])[N:7]3[H:14]"
O        0.89823873       1.03614611      -1.21557715
C        0.53404222       0.83753981       0.07464288
C        1.58381891      -0.21609305       0.39721666
C        0.72194313      -1.00059878      -0.61033921
C       -0.57530304      -0.87789937      -0.00708892
C       -1.59681165       0.24904219       0.01211743
N       -0.69911871       1.34807461       0.43310948
H        1.66385155      -0.46682282       1.45125105
H        2.59254251      -0.05844108       0.01289740
H        1.10195350      -1.92181682      -1.04741845
H       -0.88559895      -1.71536384       0.61466197
H       -2.37291143       0.10209632       0.76626524
H       -2.06984266       0.41166872      -0.95810399
H       -0.89680411       2.27246799       0.07636559
14
Frame=16 idx=011413 GeodesicLength=1.3546029801097679 rxn_smarts="[O:1]=[C:2]1[C:3]([H:8])([H:9])[C:4]([H:10])=[C:5]([H:11])[C:6]([H:12])([H:13])[N:7]1[H:14]>>[O:1]1[C@:2]23[C:3]([H:8])([H:9])[C@@:4]1([H:10])[C@:5]2([H:11])[C:6]([H:12])([H:13])[N:7]3[H:14]"
O        0.92018811       1.08545633      -1.19563846
C        0.53335005       0.83948376       0.08221138
C        1.58385635      -0.22049305       0.38653986
C        0.71741772      -1.01124045      -0.60975133
C       -0.57116924      -0.87187063       0.00176338
C       -1.60234043       0.24563214       0.00585526
N       -0.70596546       1.34139099       0.43135970
H        1.68280289      -0.46226133       1.44138700
H        2.58831158      -0.07127309      -0.01103729
H        1.08982613      -1.94253001      -1.03032285
H       -0.88252896      -1.70424441       0.63018834
H       -2.38858982       0.10039516       0.75001467
H       -2.06087527       0.40085649      -0.97201378
H       -0.90428364       2.27069809       0.08944412
