12
Frame=0 idx=004781 GeodesicLength=0.0 rxn_smarts="[C:1]([N:2]([C:3](=[O:4])[C:5]([H:10])([H:11])[H:12])[H:9])([H:6])([H:7])[H:8]>>[C:1]([N:2]=[C:3]=[O:4])([H:6])([H:7])[H:8].[C:5]([H:9])([H:10])([H:11])[H:12]"
C       -1.98343300      -0.29677070      -0.39347434
N       -0.65797746       0.08699820       0.07469613
C        0.41512349      -0.41240417      -0.45339033
O        0.88456481      -1.13686195      -1.25420454
C        1.73666510       0.49462065       0.60895836
H       -2.11603570      -0.07153089      -1.45420859
H       -2.71728369       0.27036632       0.17574811
H       -2.17029013      -1.36187422      -0.23777493
H        0.40740923       0.61267815       0.69985526
H        2.28770519       0.97134028      -0.19640701
H        2.25090060      -0.38006663       0.99633597
H        1.66265160       1.22350492       1.43386587
12
Frame=1 idx=004781 GeodesicLength=0.08071013116638792 rxn_smarts="[C:1]([N:2]([C:3](=[O:4])[C:5]([H:10])([H:11])[H:12])[H:9])([H:6])([H:7])[H:8]>>[C:1]([N:2]=[C:3]=[O:4])([H:6])([H:7])[H:8].[C:5]([H:9])([H:10])([H:11])[H:12]"
C       -1.98816456      -0.30668460      -0.38382506
N       -0.65871633       0.12869971       0.01730523
C        0.41360084      -0.39048469      -0.48993178
O        0.88000965      -1.09268860      -1.31282019
C        1.73872359       0.47830573       0.62569848
H       -2.13558166      -0.18861510      -1.45979659
H       -2.71912352       0.30939368       0.13636479
H       -2.16452138      -1.35224731      -0.12055398
H        0.40373158       0.67988988       0.65131400
H        2.31853896       0.99109109      -0.13671775
H        2.25416656      -0.41041914       0.97969332
H        1.65733627       1.15375936       1.49326953
12
Frame=2 idx=004781 GeodesicLength=0.16117726199779564 rxn_smarts="[C:1]([N:2]([C:3](=[O:4])[C:5]([H:10])([H:11])[H:12])[H:9])([H:6])([H:7])[H:8]>>[C:1]([N:2]=[C:3]=[O:4])([H:6])([H:7])[H:8].[C:5]([H:9])([H:10])([H:11])[H:12]"
C       -1.98942634      -0.31336930      -0.37221029
N       -0.65800390       0.16774727      -0.04221388
C        0.41268375      -0.37222328      -0.52790752
O        0.87790590      -1.05046382      -1.37195420
C        1.73696223       0.46126582       0.64055577
H       -2.14999078      -0.30565440      -1.45274752
H       -2.71954049       0.34657797       0.09253588
H       -2.15313495      -1.32825677      -0.00238821
H        0.40268624       0.74066917       0.60301737
H        2.34302930       1.01184871      -0.07416637
H        2.25930361      -0.43715837       0.96016671
H        1.63752542       1.07901700       1.54731227
12
Frame=3 idx=004781 GeodesicLength=0.2416491623519661 rxn_smarts="[C:1]([N:2]([C:3](=[O:4])[C:5]([H:10])([H:11])[H:12])[H:9])([H:6])([H:7])[H:8]>>[C:1]([N:2]=[C:3]=[O:4])([H:6])([H:7])[H:8].[C:5]([H:9])([H:10])([H:11])[H:12]"
C       -1.98834721      -0.31680494      -0.36052674
N       -0.65626422       0.19827863      -0.09802235
C        0.41229473      -0.36125697      -0.56309565
O        0.87752528      -1.01558242      -1.42641819
C        1.73314731       0.44561738       0.65236612
H       -2.15872569      -0.41254489      -1.43525416
H       -2.71847527       0.38008651       0.04695189
H       -2.14212236      -1.29262782       0.10609935
H        0.40309253       0.79198996       0.55949316
H        2.35869798       1.03624392      -0.01252679
H        2.27085403      -0.45609763       0.93737566
H        1.60832289       1.00269826       1.59355771
12
Frame=4 idx=004781 GeodesicLength=0.3223432472088087 rxn_smarts="[C:1]([N:2]([C:3](=[O:4])[C:5]([H:10])([H:11])[H:12])[H:9])([H:6])([H:7])[H:8]>>[C:1]([N:2]=[C:3]=[O:4])([H:6])([H:7])[H:8].[C:5]([H:9])([H:10])([H:11])[H:12]"
C       -1.98560110      -0.31756234      -0.34877521
N       -0.65389684       0.22344551      -0.15194314
C        0.41215280      -0.35436022      -0.59738140
O        0.87793606      -0.98702994      -1.47703709
C        1.72817538       0.43086189       0.66176660
H       -2.16386040      -0.51141176      -1.40873388
H       -2.71694919       0.40919089       0.00023737
H       -2.12933975      -1.24736387       0.20639497
H        0.40413986       0.83581996       0.52057331
H        2.36772445       1.06291756       0.04973985
H        2.28691182      -0.46888563       0.91280726
H        1.57260692       0.92437795       1.63235135
12
Frame=5 idx=004781 GeodesicLength=0.40343060114939844 rxn_smarts="[C:1]([N:2]([C:3](=[O:4])[C:5]([H:10])([H:11])[H:12])[H:9])([H:6])([H:7])[H:8]>>[C:1]([N:2]=[C:3]=[O:4])([H:6])([H:7])[H:8].[C:5]([H:9])([H:10])([H:11])[H:12]"
C       -1.98185511      -0.31652447      -0.33716270
N       -0.65119782       0.24234529      -0.20196493
C        0.41208741      -0.35151884      -0.63000438
O        0.87862435      -0.96256054      -1.52511476
C        1.72298183       0.41725536       0.66891918
H       -2.16529863      -0.60287632      -1.37495204
H       -2.71498827       0.43447322      -0.04798893
H       -2.11773390      -1.19441486       0.29858457
H        0.40536677       0.87356632       0.48620299
H        2.37135511       1.09126662       0.11275486
H        2.30721695      -0.47560411       0.88713445
H        1.53344130       0.84459233       1.66359169
12
Frame=6 idx=004781 GeodesicLength=0.48509531899308633 rxn_smarts="[C:1]([N:2]([C:3](=[O:4])[C:5]([H:10])([H:11])[H:12])[H:9])([H:6])([H:7])[H:8]>>[C:1]([N:2]=[C:3]=[O:4])([H:6])([H:7])[H:8].[C:5]([H:9])([H:10])([H:11])[H:12]"
C       -1.97663384      -0.31347419      -0.32505393
N       -0.64841970       0.25974836      -0.25213362
C        0.41196326      -0.34864069      -0.66420326
O        0.87930521      -0.93809656      -1.57392393
C        1.71712429       0.40316113       0.67447130
H       -2.16216996      -0.69595441      -1.33086575
H       -2.71397069       0.45602238      -0.10274063
H       -2.10345153      -1.12941632       0.39010165
H        0.40596125       0.90616980       0.45662448
H        2.36977130       1.12032893       0.17986240
H        2.32958647      -0.47896500       0.85942626
H        1.49093395       0.75911657       1.68843503
12
Frame=7 idx=004781 GeodesicLength=0.5670876182890336 rxn_smarts="[C:1]([N:2]([C:3](=[O:4])[C:5]([H:10])([H:11])[H:12])[H:9])([H:6])([H:7])[H:8]>>[C:1]([N:2]=[C:3]=[O:4])([H:6])([H:7])[H:8].[C:5]([H:9])([H:10])([H:11])[H:12]"
C       -1.97088192      -0.30912711      -0.31338894
N       -0.64563419       0.27282232      -0.29922276
C        0.41174521      -0.34840529      -0.69717974
O        0.87966061      -0.91746203      -1.62019778
C        1.71165916       0.39012572       0.67825065
H       -2.15648928      -0.78130551      -1.28017323
H       -2.71314120       0.47206862      -0.15781351
H       -2.08968304      -1.05837515       0.47261674
H        0.40595147       0.93489985       0.43102587
H        2.36354169       1.14935712       0.24871510
H        2.35468975      -0.47690802       0.83185849
H        1.44858173       0.67230946       1.70550912
12
Frame=8 idx=004781 GeodesicLength=0.6491564706234462 rxn_smarts="[C:1]([N:2]([C:3](=[O:4])[C:5]([H:10])([H:11])[H:12])[H:9])([H:6])([H:7])[H:8]>>[C:1]([N:2]=[C:3]=[O:4])([H:6])([H:7])[H:8].[C:5]([H:9])([H:10])([H:11])[H:12]"
C       -1.96485495      -0.30410968      -0.30207004
N       -0.64286229       0.28152194      -0.34269059
C        0.41135979      -0.35097936      -0.72861135
O        0.87955441      -0.90001862      -1.66424683
C        1.70685886       0.37847600       0.68046090
H       -2.14903613      -0.85763858      -1.22479440
H       -2.71215663       0.48264314      -0.21112138
H       -2.07721415      -0.98419229       0.54536643
H        0.40558660       0.96121589       0.40802278
H        2.35399885       1.17695196       0.31914996
H        2.38121095      -0.46990810       0.80585210
H        1.40755469       0.58603771       1.71468241
12
Frame=9 idx=004781 GeodesicLength=0.731997595001597 rxn_smarts="[C:1]([N:2]([C:3](=[O:4])[C:5]([H:10])([H:11])[H:12])[H:9])([H:6])([H:7])[H:8]>>[C:1]([N:2]=[C:3]=[O:4])([H:6])([H:7])[H:8].[C:5]([H:9])([H:10])([H:11])[H:12]"
C       -1.95789242      -0.29750668      -0.29070373
N       -0.64037536       0.28966134      -0.38587212
C        0.41061497      -0.35291857      -0.76130608
O        0.87864814      -0.88240532      -1.70892823
C        1.70198918       0.36642843       0.68159166
H       -2.13685213      -0.93406900      -1.15912455
H       -2.71267352       0.48716478      -0.27014961
H       -2.06304072      -0.89899427       0.61505583
H        0.40395836       0.98466232       0.38919317
H        2.33899823       1.20286272       0.39441702
H        2.40898683      -0.45953903       0.77874491
H        1.36763844       0.49465328       1.71708173
12
Frame=10 idx=004781 GeodesicLength=0.8148983527750295 rxn_smarts="[C:1]([N:2]([C:3](=[O:4])[C:5]([H:10])([H:11])[H:12])[H:9])([H:6])([H:7])[H:8]>>[C:1]([N:2]=[C:3]=[O:4])([H:6])([H:7])[H:8].[C:5]([H:9])([H:10])([H:11])[H:12]"
C       -1.95089741      -0.29057400      -0.27964053
N       -0.63802469       0.29436555      -0.42545949
C        0.40949911      -0.35714066      -0.79256399
O        0.87690048      -0.86635664      -1.75226884
C        1.69804500       0.35574828       0.68149728
H       -2.12259625      -1.00245509      -1.08882474
H       -2.71319130       0.48571059      -0.32774191
H       -2.05108535      -0.81112470       0.67544476
H        0.40200529       1.00692054       0.37237886
H        2.32112002       1.22564541       0.47185659
H        2.43732665      -0.44493449       0.75348103
H        1.33089846       0.40419520       1.71184098
12
Frame=11 idx=004781 GeodesicLength=0.8982087050174367 rxn_smarts="[C:1]([N:2]([C:3](=[O:4])[C:5]([H:10])([H:11])[H:12])[H:9])([H:6])([H:7])[H:8]>>[C:1]([N:2]=[C:3]=[O:4])([H:6])([H:7])[H:8].[C:5]([H:9])([H:10])([H:11])[H:12]"
C       -1.94332006      -0.28274535      -0.26877618
N       -0.63590080       0.29793344      -0.46407835
C        0.40804264      -0.36178425      -0.82414799
O        0.87447854      -0.85125615      -1.79526237
C        1.69418743       0.34551965       0.68070475
H       -2.10515350      -1.06569675      -1.01137408
H       -2.71449247       0.47742010      -0.38555209
H       -2.03838407      -0.71746919       0.72879662
H        0.39912217       1.02804614       0.35786527
H        2.29885166       1.24439721       0.55266188
H        2.46545766      -0.42704478       0.72948303
H        1.29711079       0.31267993       1.69967950
12
Frame=12 idx=004781 GeodesicLength=0.9816916803339639 rxn_smarts="[C:1]([N:2]([C:3](=[O:4])[C:5]([H:10])([H:11])[H:12])[H:9])([H:6])([H:7])[H:8]>>[C:1]([N:2]=[C:3]=[O:4])([H:6])([H:7])[H:8].[C:5]([H:9])([H:10])([H:11])[H:12]"
C       -1.93559462      -0.27449349      -0.25800935
N       -0.63401225       0.29965723      -0.50001300
C        0.40604789      -0.36744647      -0.85519063
O        0.87091713      -0.83615405      -1.83797641
C        1.69103902       0.33612110       0.67912829
H       -2.08433636      -1.12284425      -0.92767356
H       -2.71616506       0.46215700      -0.44358178
H       -2.02784667      -0.61950968       0.77425940
H        0.39589227       1.04865743       0.34528715
H        2.27317993       1.25831357       0.63633991
H        2.49354778      -0.40587815       0.70692698
H        1.26733094       0.22141977       1.68050299
12
Frame=13 idx=004781 GeodesicLength=1.065437044165846 rxn_smarts="[C:1]([N:2]([C:3](=[O:4])[C:5]([H:10])([H:11])[H:12])[H:9])([H:6])([H:7])[H:8]>>[C:1]([N:2]=[C:3]=[O:4])([H:6])([H:7])[H:8].[C:5]([H:9])([H:10])([H:11])[H:12]"
C       -1.92738424      -0.26567646      -0.24736245
N       -0.63229696       0.30027133      -0.53473771
C        0.40362815      -0.37385411      -0.88630374
O        0.86665096      -0.82155033      -1.88044423
C        1.68793334       0.32738641       0.67721388
H       -2.06037908      -1.17310692      -0.83791924
H       -2.71810956       0.43969508      -0.49990343
H       -2.01764095      -0.51777327       0.81159774
H        0.39207705       1.06913561       0.33400344
H        2.24339082       1.26643546       0.72264426
H        2.52080057      -0.38173723       0.68636231
H        1.24132990       0.13077442       1.65484918
12
Frame=14 idx=004781 GeodesicLength=1.1493870975209335 rxn_smarts="[C:1]([N:2]([C:3](=[O:4])[C:5]([H:10])([H:11])[H:12])[H:9])([H:6])([H:7])[H:8]>>[C:1]([N:2]=[C:3]=[O:4])([H:6])([H:7])[H:8].[C:5]([H:9])([H:10])([H:11])[H:12]"
C       -1.91879779      -0.25635379      -0.23677668
N       -0.63076113       0.29990561      -0.56780480
C        0.40066223      -0.38092053      -0.91734895
O        0.86139860      -0.80702027      -1.92274023
C        1.68499685       0.31926280       0.67509733
H       -2.03273163      -1.21608830      -0.74215244
H       -2.72016816       0.40963407      -0.55462899
H       -2.00897829      -0.41251688       0.84050849
H        0.38791047       1.08976675       0.32404294
H        2.20954443       1.26799749       0.81110779
H        2.54729899      -0.35469431       0.66775259
H        1.21962542       0.04102737       1.62294296
12
Frame=15 idx=004781 GeodesicLength=1.2334740369304251 rxn_smarts="[C:1]([N:2]([C:3](=[O:4])[C:5]([H:10])([H:11])[H:12])[H:9])([H:6])([H:7])[H:8]>>[C:1]([N:2]=[C:3]=[O:4])([H:6])([H:7])[H:8].[C:5]([H:9])([H:10])([H:11])[H:12]"
C       -1.90976797      -0.24659604      -0.22623852
N       -0.62931006       0.29856462      -0.59942822
C        0.39715793      -0.38895577      -0.94820304
O        0.85527672      -0.79313543      -1.96454815
C        1.68202555       0.31189167       0.67302977
H       -2.00192610      -1.25044131      -0.64202123
H       -2.72190374       0.37258565      -0.60572450
H       -2.00162630      -0.30573194       0.86053752
H        0.38351952       1.11097302       0.31483325
H        2.17159798       1.26244899       0.90089562
H        2.57269920      -0.32472504       0.65165218
H        1.20225724      -0.04687844       1.58521532
12
Frame=16 idx=004781 GeodesicLength=1.317744492341222 rxn_smarts="[C:1]([N:2]([C:3](=[O:4])[C:5]([H:10])([H:11])[H:12])[H:9])([H:6])([H:7])[H:8]>>[C:1]([N:2]=[C:3]=[O:4])([H:6])([H:7])[H:8].[C:5]([H:9])([H:10])([H:11])[H:12]"
C       -1.90020950      -0.23629437      -0.21576148
N       -0.62790499       0.29653559      -0.62989613
C        0.39308581      -0.39788371      -0.97894551
O        0.84830895      -0.78014739      -2.00578373
C        1.67875741       0.30509345       0.67131499
H       -1.96776022      -1.27557264      -0.53827412
H       -2.72317061       0.32883882      -0.65223041
H       -1.99541154      -0.19821972       0.87164415
H        0.37892693       1.13293305       0.30628711
H        2.12919507       1.24927536       0.99113928
H        2.59681973      -0.29179336       0.63834292
H        1.18936294      -0.13276509       1.54216291
