11
Frame=0 idx=005352 GeodesicLength=0.0 rxn_smarts="[C:1]([C:2](=[O:3])[C:4]([C:5]#[N:6])([H:10])[H:11])([H:7])([H:8])[H:9]>>[C:1]([C:2](=[O:3])[C:4]([N+:6]#[C-:5])([H:10])[H:11])([H:7])([H:8])[H:9]"
C       -1.37858166       0.34861541      -0.14168399
C       -0.37355447      -0.61387903       0.41537015
O       -0.65262415      -1.54659798       1.11831659
C        1.08983229      -0.45026780       0.02651753
C        1.46780936       1.22462634       0.38870755
N        1.71554934       1.06999157      -0.76200348
H       -2.37838727      -0.05794751      -0.01060902
H       -1.17821885       0.55644807      -1.19429961
H       -1.29727282       1.29902644       0.38985188
H        1.23291650      -0.89073474      -0.96202597
H        1.75253175      -0.93928072       0.73185835
11
Frame=1 idx=005352 GeodesicLength=0.08928237786505501 rxn_smarts="[C:1]([C:2](=[O:3])[C:4]([C:5]#[N:6])([H:10])[H:11])([H:7])([H:8])[H:9]>>[C:1]([C:2](=[O:3])[C:4]([N+:6]#[C-:5])([H:10])[H:11])([H:7])([H:8])[H:9]"
C       -1.38594888       0.34812908      -0.13288782
C       -0.37562624      -0.61442121       0.41413699
O       -0.65290176      -1.56231343       1.09752451
C        1.08701972      -0.43811394       0.02487440
C        1.42995653       1.26502899       0.34675936
N        1.80701596       1.04522320      -0.75282843
H       -2.38381033      -0.06497566      -0.00719767
H       -1.18641264       0.57105908      -1.18268499
H       -1.31287792       1.29220747       0.41131132
H        1.22829604      -0.90896761      -0.95064900
H        1.74528951      -0.93285597       0.73164133
11
Frame=2 idx=005352 GeodesicLength=0.17637997400855404 rxn_smarts="[C:1]([C:2](=[O:3])[C:4]([C:5]#[N:6])([H:10])[H:11])([H:7])([H:8])[H:9]>>[C:1]([C:2](=[O:3])[C:4]([N+:6]#[C-:5])([H:10])[H:11])([H:7])([H:8])[H:9]"
C       -1.39413416       0.34693168      -0.12423199
C       -0.37750506      -0.61419813       0.41286626
O       -0.65229338      -1.57498816       1.07908305
C        1.08410273      -0.42592869       0.02185847
C        1.39283133       1.30377005       0.29540593
N        1.90176502       1.01997012      -0.72908214
H       -2.38983908      -0.07231335      -0.00183252
H       -1.19711304       0.58234478      -1.17164562
H       -1.32840232       1.28536722       0.43038584
H        1.22327468      -0.92235347      -0.94163672
H        1.73731329      -0.92860204       0.72882944
11
Frame=3 idx=005352 GeodesicLength=0.26129870378470266 rxn_smarts="[C:1]([C:2](=[O:3])[C:4]([C:5]#[N:6])([H:10])[H:11])([H:7])([H:8])[H:9]>>[C:1]([C:2](=[O:3])[C:4]([N+:6]#[C-:5])([H:10])[H:11])([H:7])([H:8])[H:9]"
C       -1.40284036       0.34539375      -0.11543116
C       -0.37905478      -0.61339051       0.41173693
O       -0.65113146      -1.58622348       1.06154472
C        1.08137833      -0.41392670       0.01807092
C        1.35719603       1.34106993       0.23227885
N        1.99722988       0.99531744      -0.68971061
H       -2.39628480      -0.07938428       0.00615841
H       -1.21074701       0.59023249      -1.16153227
H       -1.34286479       1.27930110       0.44734186
H        1.21852217      -0.93157573      -0.93501588
H        1.72859679      -0.92681399       0.72455823
11
Frame=4 idx=005352 GeodesicLength=0.3437349542799508 rxn_smarts="[C:1]([C:2](=[O:3])[C:4]([C:5]#[N:6])([H:10])[H:11])([H:7])([H:8])[H:9]>>[C:1]([C:2](=[O:3])[C:4]([N+:6]#[C-:5])([H:10])[H:11])([H:7])([H:8])[H:9]"
C       -1.41164941       0.34381474      -0.10629908
C       -0.38014983      -0.61223611       0.41057691
O       -0.64975614      -1.59712640       1.04350976
C        1.07918708      -0.40237661       0.01405722
C        1.32371610       1.37601789       0.15487027
N        2.08975292       0.97295739      -0.63304191
H       -2.40297489      -0.08520709       0.01801199
H       -1.22755415       0.59428596      -1.15262494
H       -1.35477347       1.27472003       0.46197270
H        1.21500814      -0.93694761      -0.93050458
H        1.71919364      -0.92790219       0.71947167
11
Frame=5 idx=005352 GeodesicLength=0.4233173092726749 rxn_smarts="[C:1]([C:2](=[O:3])[C:4]([C:5]#[N:6])([H:10])[H:11])([H:7])([H:8])[H:9]>>[C:1]([C:2](=[O:3])[C:4]([N+:6]#[C-:5])([H:10])[H:11])([H:7])([H:8])[H:9]"
C       -1.42025052       0.34217165      -0.09702086
C       -0.38068693      -0.61103790       0.40853748
O       -0.64804668      -1.60661640       1.02572614
C        1.07779757      -0.39175915       0.00950034
C        1.29313769       1.40570100       0.06160676
N        2.17558492       0.95557668      -0.55462031
H       -2.40981188      -0.08832733       0.03574686
H       -1.24821354       0.59277625      -1.14523182
H       -1.36235311       1.27212995       0.47250616
H        1.21333327      -0.93779146      -0.92894917
H        1.70950922      -0.93282329       0.71219843
11
Frame=6 idx=005352 GeodesicLength=0.498756684916722 rxn_smarts="[C:1]([C:2](=[O:3])[C:4]([C:5]#[N:6])([H:10])[H:11])([H:7])([H:8])[H:9]>>[C:1]([C:2](=[O:3])[C:4]([N+:6]#[C-:5])([H:10])[H:11])([H:7])([H:8])[H:9]"
C       -1.42744683       0.34133600      -0.08719978
C       -0.38065301      -0.61039428       0.40583122
O       -0.64679907      -1.61699138       1.00589889
C        1.07732370      -0.38283842       0.00536340
C        1.26833914       1.42786463      -0.04820642
N        2.24517087       0.94715373      -0.45764039
H       -2.41570940      -0.08800299       0.05832771
H       -1.27101411       0.58768956      -1.13886654
H       -1.36369128       1.27207353       0.48033873
H        1.21462543      -0.93700181      -0.92847352
H        1.69985455      -0.94088858       0.70462670
11
Frame=7 idx=005352 GeodesicLength=0.5706310141392533 rxn_smarts="[C:1]([C:2](=[O:3])[C:4]([C:5]#[N:6])([H:10])[H:11])([H:7])([H:8])[H:9]>>[C:1]([C:2](=[O:3])[C:4]([N+:6]#[C-:5])([H:10])[H:11])([H:7])([H:8])[H:9]"
C       -1.43261008       0.34191835      -0.07674735
C       -0.38026647      -0.61148050       0.40114464
O       -0.64673029      -1.62876837       0.98340628
C        1.07812904      -0.37678778       0.00125426
C        1.25138079       1.43866140      -0.17355787
N        2.29078950       0.95238508      -0.34368039
H       -2.42043581      -0.08262090       0.08594640
H       -1.29511633       0.58048314      -1.13291701
H       -1.35701699       1.27479567       0.48605749
H        1.22042432      -0.93775884      -0.92830698
H        1.69145233      -0.95082725       0.69740053
11
Frame=8 idx=005352 GeodesicLength=0.6376278599576428 rxn_smarts="[C:1]([C:2](=[O:3])[C:4]([C:5]#[N:6])([H:10])[H:11])([H:7])([H:8])[H:9]>>[C:1]([C:2](=[O:3])[C:4]([N+:6]#[C-:5])([H:10])[H:11])([H:7])([H:8])[H:9]"
C       -1.43413101       0.34439119      -0.06598785
C       -0.37948643      -0.61489493       0.39443469
O       -0.64778047      -1.64259842       0.95761515
C        1.07942953      -0.37439457      -0.00309722
C        1.24524734       1.43552970      -0.30480619
N        2.30317582       0.97349707      -0.22368140
H       -2.42195820      -0.07200492       0.11612720
H       -1.31747633       0.57423694      -1.12662682
H       -1.34127041       1.27924352       0.49051018
H        1.22963442      -0.94324995      -0.92674420
H        1.68461572      -0.95975564       0.69225647
11
Frame=9 idx=005352 GeodesicLength=0.7048199320364545 rxn_smarts="[C:1]([C:2](=[O:3])[C:4]([C:5]#[N:6])([H:10])[H:11])([H:7])([H:8])[H:9]>>[C:1]([C:2](=[O:3])[C:4]([N+:6]#[C-:5])([H:10])[H:11])([H:7])([H:8])[H:9]"
C       -1.43210766       0.34894069      -0.05475191
C       -0.37876073      -0.62180160       0.38406708
O       -0.65030757      -1.65808575       0.92992641
C        1.08151350      -0.37660560      -0.00902249
C        1.25118703       1.41744825      -0.43763104
N        2.27934333       1.01151948      -0.10285636
H       -2.42057782      -0.05656474       0.14697527
H       -1.33637054       0.57253402      -1.11890139
H       -1.31720427       1.28467880       0.49620585
H        1.24288653      -0.95661550      -0.92406918
H        1.68039820      -0.96544806       0.69005776
11
Frame=10 idx=005352 GeodesicLength=0.7780528436831345 rxn_smarts="[C:1]([C:2](=[O:3])[C:4]([C:5]#[N:6])([H:10])[H:11])([H:7])([H:8])[H:9]>>[C:1]([C:2](=[O:3])[C:4]([N+:6]#[C-:5])([H:10])[H:11])([H:7])([H:8])[H:9]"
C       -1.42656196       0.35541660      -0.04333225
C       -0.37839216      -0.63248839       0.37026146
O       -0.65479730      -1.67699675       0.89927130
C        1.08430480      -0.38322951      -0.01615019
C        1.27114214       1.38754711      -0.56410328
N        2.21979956       1.06401431       0.00751193
H       -2.41639391      -0.03775123       0.17730969
H       -1.35090144       0.57823525      -1.10998916
H       -1.28604622       1.28996122       0.50488572
H        1.25887186      -0.97885275      -0.91932991
H        1.67897463      -0.96585586       0.69366468
11
Frame=11 idx=005352 GeodesicLength=0.8511431324409107 rxn_smarts="[C:1]([C:2](=[O:3])[C:4]([C:5]#[N:6])([H:10])[H:11])([H:7])([H:8])[H:9]>>[C:1]([C:2](=[O:3])[C:4]([N+:6]#[C-:5])([H:10])[H:11])([H:7])([H:8])[H:9]"
C       -1.41822550       0.36307517      -0.03109392
C       -0.37871511      -0.64526638       0.35262612
O       -0.66140368      -1.69728273       0.86129510
C        1.08756501      -0.39198773      -0.02161050
C        1.29936002       1.34719569      -0.67239971
N        2.13566034       1.12050411       0.08628327
H       -2.40968286      -0.01764614       0.20210998
H       -1.35769298       0.59400740      -1.09634618
H       -1.25380081       1.29076949       0.52073331
H        1.27939047      -1.00692670      -0.90767041
H        1.67754510      -0.95644218       0.70607295
11
Frame=12 idx=005352 GeodesicLength=0.9255429676723542 rxn_smarts="[C:1]([C:2](=[O:3])[C:4]([C:5]#[N:6])([H:10])[H:11])([H:7])([H:8])[H:9]>>[C:1]([C:2](=[O:3])[C:4]([N+:6]#[C-:5])([H:10])[H:11])([H:7])([H:8])[H:9]"
C       -1.40931453       0.37012305      -0.01990918
C       -0.37914789      -0.65750533       0.33695104
O       -0.66775358      -1.71591781       0.82819988
C        1.09072196      -0.40155689      -0.02671895
C        1.33454824       1.30862693      -0.75673799
N        2.04344954       1.17363326       0.13962155
H       -2.40258182      -0.00146854       0.21969678
H       -1.35838946       0.61432838      -1.08271038
H       -1.22510245       1.29015721       0.53847443
H        1.29593062      -1.03555124      -0.89643870
H        1.67763937      -0.94486902       0.71957154
11
Frame=13 idx=005352 GeodesicLength=1.0047625312201323 rxn_smarts="[C:1]([C:2](=[O:3])[C:4]([C:5]#[N:6])([H:10])[H:11])([H:7])([H:8])[H:9]>>[C:1]([C:2](=[O:3])[C:4]([N+:6]#[C-:5])([H:10])[H:11])([H:7])([H:8])[H:9]"
C       -1.40032249       0.37681678      -0.00874377
C       -0.37994389      -0.66955696       0.32217372
O       -0.67475706      -1.73463486       0.79527096
C        1.09388034      -0.41116999      -0.03045671
C        1.37658974       1.26989041      -0.82624459
N        1.94514285       1.22421187       0.17150626
H       -2.39580656       0.01217632       0.23269186
H       -1.35447861       0.63912078      -1.06773545
H       -1.19947645       1.28728210       0.55985463
H        1.31142158      -1.06355653      -0.88349738
H        1.67775056      -0.93057994       0.73518048
11
Frame=14 idx=005352 GeodesicLength=1.0860466714534764 rxn_smarts="[C:1]([C:2](=[O:3])[C:4]([C:5]#[N:6])([H:10])[H:11])([H:7])([H:8])[H:9]>>[C:1]([C:2](=[O:3])[C:4]([N+:6]#[C-:5])([H:10])[H:11])([H:7])([H:8])[H:9]"
C       -1.39194622       0.38247738       0.00149132
C       -0.38065157      -0.67955299       0.31007484
O       -0.68049991      -1.74953241       0.76767005
C        1.09642514      -0.42017042      -0.03423852
C        1.42405974       1.23463509      -0.87873902
N        1.84634739       1.26801649       0.18818910
H       -2.38939978       0.02280209       0.24154766
H       -1.34676841       0.66345110      -1.05259450
H       -1.17909574       1.28307592       0.58109626
H        1.32316949      -1.08878235      -0.87237890
H        1.67835987      -0.91641990       0.74788172
11
Frame=15 idx=005352 GeodesicLength=1.1698251203200327 rxn_smarts="[C:1]([C:2](=[O:3])[C:4]([C:5]#[N:6])([H:10])[H:11])([H:7])([H:8])[H:9]>>[C:1]([C:2](=[O:3])[C:4]([N+:6]#[C-:5])([H:10])[H:11])([H:7])([H:8])[H:9]"
C       -1.38452479       0.38741908       0.01155991
C       -0.38166104      -0.68851046       0.30001394
O       -0.68629992      -1.76376776       0.74163347
C        1.09857599      -0.42828036      -0.03701656
C        1.47652139       1.20200072      -0.91919586
N        1.74950159       1.30733661       0.18971868
H       -2.38411435       0.03076410       0.24716829
H       -1.33690204       0.68870946      -1.03696080
H       -1.16270615       1.27757199       0.60411604
H        1.33258504      -1.11177939      -0.86139844
H        1.67902428      -0.90146399       0.76036135
11
Frame=16 idx=005352 GeodesicLength=1.2553878023193352 rxn_smarts="[C:1]([C:2](=[O:3])[C:4]([C:5]#[N:6])([H:10])[H:11])([H:7])([H:8])[H:9]>>[C:1]([C:2](=[O:3])[C:4]([N+:6]#[C-:5])([H:10])[H:11])([H:7])([H:8])[H:9]"
C       -1.37825276       0.39156132       0.02093866
C       -0.38264664      -0.69592852       0.29199426
O       -0.69106188      -1.77547219       0.71960371
C        1.10023710      -0.43565715      -0.03977982
C        1.53355344       1.17280832      -0.94659226
N        1.65486555       1.34080715       0.18009535
H       -2.37970299       0.03687256       0.25090681
H       -1.32601924       0.71250668      -1.02141819
H       -1.15040483       1.27146482       0.62628589
H        1.33926277      -1.13175231      -0.85231321
H        1.68016947      -0.88721067       0.77027881
