14
Frame=0 idx=006266 GeodesicLength=0.0 rxn_smarts="[C:1]([C@@:2]1([H:10])[C:3]([H:11])([H:12])[C@:4]1([C:5](=[O:6])[H:14])[H:13])([H:7])([H:8])[H:9]>>[C:1]([C@@:2]1([H:10])[C:3]([H:11])([H:12])[C@@:4]2([H:13])[C@:5]1([H:14])[O:6]2)([H:7])([H:8])[H:9]"
C       -1.30503088      -1.02784746      -0.07649443
C       -0.27407298       0.00683359      -0.46571346
C       -0.18827721       1.23978901       0.44867028
C        1.22950143       0.85692209       0.52279259
C        1.25767620      -0.51673769      -0.11908326
O        2.10753241      -0.33468062      -1.06198093
H       -1.18139412      -1.33482100       0.96435819
H       -2.31161281      -0.61576206      -0.18574458
H       -1.22045591      -1.91666912      -0.70358263
H       -0.26649540       0.26508191      -1.51967776
H       -0.73384720       1.08864918       1.38240276
H       -0.42638205       2.21655827       0.03163530
H        2.07007720       1.51029834       0.29686672
H        1.24278130      -1.43761440       0.48555121
14
Frame=1 idx=006266 GeodesicLength=0.06399323293640659 rxn_smarts="[C:1]([C@@:2]1([H:10])[C:3]([H:11])([H:12])[C@:4]1([C:5](=[O:6])[H:14])[H:13])([H:7])([H:8])[H:9]>>[C:1]([C@@:2]1([H:10])[C:3]([H:11])([H:12])[C@@:4]2([H:13])[C@:5]1([H:14])[O:6]2)([H:7])([H:8])[H:9]"
C       -1.30847746      -1.02515632      -0.08114224
C       -0.27736998       0.01055939      -0.46817839
C       -0.18917356       1.23728454       0.45133288
C        1.23115525       0.85500033       0.49562725
C        1.26226825      -0.52783614      -0.11153361
O        2.12419897      -0.33570315      -1.04242484
H       -1.18442918      -1.33417770       0.95903866
H       -2.31572051      -0.61479181      -0.18997321
H       -1.22495435      -1.91285208      -0.71007730
H       -0.27923205       0.27168320      -1.52181195
H       -0.71853457       1.07988761       1.39292724
H       -0.43241653       2.21545914       0.04096479
H        2.06401981       1.52064063       0.28052950
H        1.24866591      -1.43999764       0.50472121
14
Frame=2 idx=006266 GeodesicLength=0.12794041758171637 rxn_smarts="[C:1]([C@@:2]1([H:10])[C:3]([H:11])([H:12])[C@:4]1([C:5](=[O:6])[H:14])[H:13])([H:7])([H:8])[H:9]>>[C:1]([C@@:2]1([H:10])[C:3]([H:11])([H:12])[C@@:4]2([H:13])[C@:5]1([H:14])[O:6]2)([H:7])([H:8])[H:9]"
C       -1.31180990      -1.02251984      -0.08574753
C       -0.28086685       0.01437886      -0.47097785
C       -0.18990728       1.23474950       0.45378230
C        1.23230401       0.85270876       0.46826754
C        1.26688856      -0.53861231      -0.10409418
O        2.14071781      -0.33673342      -1.02283984
H       -1.18706003      -1.33345558       0.95376242
H       -2.31979777      -0.61406906      -0.19393766
H       -1.22924413      -1.90911766      -0.71645717
H       -0.29281444       0.27862822      -1.52412095
H       -0.70308757       1.07122106       1.40286109
H       -0.43788663       2.21438929       0.05020702
H        2.05784125       1.53010297       0.26524955
H        1.25472297      -1.44167078       0.52404525
14
Frame=3 idx=006266 GeodesicLength=0.19191553709672815 rxn_smarts="[C:1]([C@@:2]1([H:10])[C:3]([H:11])([H:12])[C@:4]1([C:5](=[O:6])[H:14])[H:13])([H:7])([H:8])[H:9]>>[C:1]([C@@:2]1([H:10])[C:3]([H:11])([H:12])[C@@:4]2([H:13])[C@:5]1([H:14])[O:6]2)([H:7])([H:8])[H:9]"
C       -1.31504749      -1.01995837      -0.09030875
C       -0.28458679       0.01829874      -0.47412296
C       -0.19048259       1.23220829       0.45598448
C        1.23297608       0.85005985       0.44065107
C        1.27155060      -0.54907088      -0.09676765
O        2.15712031      -0.33774088      -1.00321921
H       -1.18929492      -1.33268465       0.94852596
H       -2.32388340      -0.61361961      -0.19763205
H       -1.23333385      -1.90549804      -0.72271103
H       -0.30730710       0.28593885      -1.52658645
H       -0.68749882       1.06265769       1.41218698
H       -0.44281363       2.21340786       0.05933407
H        2.05162177       1.53862684       0.25114104
H        1.26097983      -1.44262569       0.54352449
14
Frame=4 idx=006266 GeodesicLength=0.25584240657994384 rxn_smarts="[C:1]([C@@:2]1([H:10])[C:3]([H:11])([H:12])[C@:4]1([C:5](=[O:6])[H:14])[H:13])([H:7])([H:8])[H:9]>>[C:1]([C@@:2]1([H:10])[C:3]([H:11])([H:12])[C@@:4]2([H:13])[C@:5]1([H:14])[O:6]2)([H:7])([H:8])[H:9]"
C       -1.31820345      -1.01747992      -0.09481862
C       -0.28852812       0.02229952      -0.47761694
C       -0.19088321       1.22964829       0.45792925
C        1.23318889       0.84704132       0.41281711
C        1.27627245      -0.55922569      -0.08955837
O        2.17342295      -0.33867673      -0.98357137
H       -1.19114297      -1.33186462       0.94334148
H       -2.32798425      -0.61344443      -0.20103117
H       -1.23726371      -1.90200370      -0.72884773
H       -0.32271096       0.29359885      -1.52919519
H       -0.67180292       1.05423226       1.42089713
H       -0.44714546       2.21247804       0.06830281
H        2.04536595       1.54629164       0.23825076
H        1.26741480      -1.44289483       0.56310085
14
Frame=5 idx=006266 GeodesicLength=0.31982520552516935 rxn_smarts="[C:1]([C@@:2]1([H:10])[C:3]([H:11])([H:12])[C@:4]1([C:5](=[O:6])[H:14])[H:13])([H:7])([H:8])[H:9]>>[C:1]([C@@:2]1([H:10])[C:3]([H:11])([H:12])[C@@:4]2([H:13])[C@:5]1([H:14])[O:6]2)([H:7])([H:8])[H:9]"
C       -1.32126223      -1.01508006      -0.09926975
C       -0.29271956       0.02639303      -0.48148288
C       -0.19111258       1.22707898       0.45955277
C        1.23294140       0.84366268       0.38462287
C        1.28103775      -0.56905408      -0.08247512
O        2.18960149      -0.33951090      -0.96389983
H       -1.19256116      -1.33099327       0.93820751
H       -2.33208889      -0.61355869      -0.20411669
H       -1.24100713      -1.89861981      -0.73484557
H       -0.33912367       0.30162103      -1.53193058
H       -0.65594778       1.04592837       1.42895276
H       -0.45091705       2.21162817       0.07705758
H        2.03909800       1.55289464       0.22683194
H        1.27406142      -1.44239009       0.58279500
14
Frame=6 idx=006266 GeodesicLength=0.3837324132658321 rxn_smarts="[C:1]([C@@:2]1([H:10])[C:3]([H:11])([H:12])[C@:4]1([C:5](=[O:6])[H:14])[H:13])([H:7])([H:8])[H:9]>>[C:1]([C@@:2]1([H:10])[C:3]([H:11])([H:12])[C@@:4]2([H:13])[C@:5]1([H:14])[O:6]2)([H:7])([H:8])[H:9]"
C       -1.32423661      -1.01276323      -0.10366759
C       -0.29715590       0.03055783      -0.48571219
C       -0.19114937       1.22447163       0.46086853
C        1.23224129       0.83990625       0.35616435
C        1.28585994      -0.57857173      -0.07550061
O        2.20565102      -0.34019269      -0.94418558
H       -1.19357019      -1.33006144       0.93312600
H       -2.33619547      -0.61396059      -0.20689717
H       -1.24460175      -1.89535451      -0.74072114
H       -0.35652816       0.30999411      -1.53476427
H       -0.63996578       1.03776889       1.43635663
H       -0.45406574       2.21079499       0.08558070
H        2.03283844       1.55857866       0.21679600
H        1.28087827      -1.44116816       0.60255635
14
Frame=7 idx=006266 GeodesicLength=0.44764792137389486 rxn_smarts="[C:1]([C@@:2]1([H:10])[C:3]([H:11])([H:12])[C@:4]1([C:5](=[O:6])[H:14])[H:13])([H:7])([H:8])[H:9]>>[C:1]([C@@:2]1([H:10])[C:3]([H:11])([H:12])[C@@:4]2([H:13])[C@:5]1([H:14])[O:6]2)([H:7])([H:8])[H:9]"
C       -1.32715468      -1.01055241      -0.10800687
C       -0.30185432       0.03479418      -0.49032910
C       -0.19098582       1.22185774       0.46183407
C        1.23114978       0.83578600       0.32730185
C        1.29076458      -0.58778146      -0.06865377
O        2.22162822      -0.34071842      -0.92445059
H       -1.19419295      -1.32909818       0.92809759
H       -2.34035458      -0.61467674      -0.20934551
H       -1.24806924      -1.89224646      -0.74647025
H       -0.37497742       0.31872009      -1.53768108
H       -0.62383036       1.02977046       1.44311068
H       -0.45660917       2.21004423       0.09383956
H        2.02659593       1.56328237       0.20836519
H        1.28789003      -1.43918140       0.62238822
14
Frame=8 idx=006266 GeodesicLength=0.5116171284292366 rxn_smarts="[C:1]([C@@:2]1([H:10])[C:3]([H:11])([H:12])[C@:4]1([C:5](=[O:6])[H:14])[H:13])([H:7])([H:8])[H:9]>>[C:1]([C@@:2]1([H:10])[C:3]([H:11])([H:12])[C@@:4]2([H:13])[C@:5]1([H:14])[O:6]2)([H:7])([H:8])[H:9]"
C       -1.32999011      -1.00842844      -0.11228503
C       -0.30683805       0.03910824      -0.49536048
C       -0.19060891       1.21921921       0.46238922
C        1.22964853       0.83132791       0.29788040
C        1.29573841      -0.59665451      -0.06193657
O        2.23749686      -0.34107299      -0.90470486
H       -1.19437448      -1.32808023       0.92311601
H       -2.34452986      -0.61569727      -0.21144455
H       -1.25139111      -1.88926291      -0.75207836
H       -0.39455377       0.32781215      -1.54065931
H       -0.60744863       1.02190469       1.44916898
H       -0.45857096       2.20934395       0.10178541
H        2.02031180       1.56680816       0.20179561
H        1.29511028      -1.43632796       0.64233352
14
Frame=9 idx=006266 GeodesicLength=0.5755559091015837 rxn_smarts="[C:1]([C@@:2]1([H:10])[C:3]([H:11])([H:12])[C@:4]1([C:5](=[O:6])[H:14])[H:13])([H:7])([H:8])[H:9]>>[C:1]([C@@:2]1([H:10])[C:3]([H:11])([H:12])[C@@:4]2([H:13])[C@:5]1([H:14])[O:6]2)([H:7])([H:8])[H:9]"
C       -1.33275188      -1.00640811      -0.11649652
C       -0.31211148       0.04349138      -0.50081769
C       -0.18999382       1.21656833       0.46251193
C        1.22777098       0.82655460       0.26789049
C        1.30079730      -0.60517363      -0.05535887
O        2.25325213      -0.34118400      -0.88497481
H       -1.19412376      -1.32700208       0.91819622
H       -2.34872799      -0.61704991      -0.21317597
H       -1.25458568      -1.88643604      -0.75754640
H       -0.41527151       0.33725127      -1.54367917
H       -0.59083433       1.01422279       1.45452050
H       -0.45990582       2.20869623       0.10937218
H        2.01396010       1.56906825       0.19721387
H        1.30252577      -1.43259907       0.66234423
14
Frame=10 idx=006266 GeodesicLength=0.6394471681651442 rxn_smarts="[C:1]([C@@:2]1([H:10])[C:3]([H:11])([H:12])[C@:4]1([C:5](=[O:6])[H:14])[H:13])([H:7])([H:8])[H:9]>>[C:1]([C@@:2]1([H:10])[C:3]([H:11])([H:12])[C@@:4]2([H:13])[C@:5]1([H:14])[O:6]2)([H:7])([H:8])[H:9]"
C       -1.33544874      -1.00449290      -0.12064543
C       -0.31768091       0.04793873      -0.50669101
C       -0.18913166       1.21388749       0.46219650
C        1.22552171       0.82139904       0.23736719
C        1.30594532      -0.61335705      -0.04888894
O        2.26888072      -0.34102331      -0.86523454
H       -1.19345659      -1.32587499       0.91332936
H       -2.35295384      -0.61872911      -0.21454898
H       -1.25765890      -1.88376188      -0.76287675
H       -0.43713380       0.34704834      -1.54668409
H       -0.57402016       1.00671916       1.45914956
H       -0.46057742       2.20809008       0.11657778
H        2.00759051       1.57019366       0.19456417
H        1.31012377      -1.42803724       0.68238519
14
Frame=11 idx=006266 GeodesicLength=0.7033627338462365 rxn_smarts="[C:1]([C@@:2]1([H:10])[C:3]([H:11])([H:12])[C@:4]1([C:5](=[O:6])[H:14])[H:13])([H:7])([H:8])[H:9]>>[C:1]([C@@:2]1([H:10])[C:3]([H:11])([H:12])[C@@:4]2([H:13])[C@:5]1([H:14])[O:6]2)([H:7])([H:8])[H:9]"
C       -1.33805658      -1.00266823      -0.12471875
C       -0.32355194       0.05246299      -0.51302319
C       -0.18797303       1.21119518       0.46136428
C        1.22297031       0.81593721       0.20609842
C        1.31121065      -0.62114047      -0.04255269
O        2.28438314      -0.34055621      -0.84555861
H       -1.19232331      -1.32466269       0.90852802
H       -2.35718774      -0.62073799      -0.21552112
H       -1.26059501      -1.88123490      -0.76804601
H       -0.46020691       0.35720637      -1.54966096
H       -0.55689753       0.99942177       1.46301641
H       -0.46057822       2.20753542       0.12332644
H        2.00086443       1.56973311       0.19426841
H        1.31794174      -1.42249155       0.70247934
14
Frame=12 idx=006266 GeodesicLength=0.7672549608271668 rxn_smarts="[C:1]([C@@:2]1([H:10])[C:3]([H:11])([H:12])[C@:4]1([C:5](=[O:6])[H:14])[H:13])([H:7])([H:8])[H:9]>>[C:1]([C@@:2]1([H:10])[C:3]([H:11])([H:12])[C@@:4]2([H:13])[C@:5]1([H:14])[O:6]2)([H:7])([H:8])[H:9]"
C       -1.34057564      -1.00092722      -0.12874374
C       -0.32971254       0.05706395      -0.51977761
C       -0.18650395       1.20845853       0.46005734
C        1.22012230       0.81008470       0.17420360
C        1.31659138      -0.62854763      -0.03626282
O        2.29971961      -0.33977155      -0.82588596
H       -1.19075880      -1.32338391       0.90375408
H       -2.36141511      -0.62305526      -0.21614297
H       -1.26338113      -1.87883187      -0.77309367
H       -0.48443850       0.36775162      -1.55251371
H       -0.53951467       0.99230339       1.46613674
H       -0.45986452       2.20700648       0.12965970
H        1.99378648       1.56787264       0.19598135
H        1.32594510      -1.41602387       0.72262766
14
Frame=13 idx=006266 GeodesicLength=0.8311300220707555 rxn_smarts="[C:1]([C@@:2]1([H:10])[C:3]([H:11])([H:12])[C@:4]1([C:5](=[O:6])[H:14])[H:13])([H:7])([H:8])[H:9]>>[C:1]([C@@:2]1([H:10])[C:3]([H:11])([H:12])[C@@:4]2([H:13])[C@:5]1([H:14])[O:6]2)([H:7])([H:8])[H:9]"
C       -1.34299821      -0.99925848      -0.13276224
C       -0.33612445       0.06176112      -0.52692561
C       -0.18467417       1.20566195       0.45833311
C        1.21706476       0.80384015       0.14176146
C        1.32211636      -0.63556563      -0.02991015
O        2.31489596      -0.33866890      -0.80615942
H       -1.18879893      -1.32206935       0.89896065
H       -2.36561963      -0.62565824      -0.21646552
H       -1.26600171      -1.87652040      -0.77810450
H       -0.50975760       0.37875758      -1.55515269
H       -0.52186100       0.98532425       1.46857033
H       -0.45837903       2.20649839       0.13565650
H        1.98602336       1.56450362       0.19926621
H        1.33411429      -1.40860606       0.74293189
14
Frame=14 idx=006266 GeodesicLength=0.8949799405099996 rxn_smarts="[C:1]([C@@:2]1([H:10])[C:3]([H:11])([H:12])[C@:4]1([C:5](=[O:6])[H:14])[H:13])([H:7])([H:8])[H:9]>>[C:1]([C@@:2]1([H:10])[C:3]([H:11])([H:12])[C@@:4]2([H:13])[C@:5]1([H:14])[O:6]2)([H:7])([H:8])[H:9]"
C       -1.34531683      -0.99764357      -0.13683988
C       -0.34273662       0.06656687      -0.53439701
C       -0.18244927       1.20275375       0.45631474
C        1.21384728       0.79711190       0.10900176
C        1.32779111      -0.64222827      -0.02332733
O        2.32988159      -0.33726610      -0.78625915
H       -1.18651457      -1.32076002       0.89406893
H       -2.36977352      -0.62850244      -0.21659600
H       -1.26842407      -1.87424146      -0.78319810
H       -0.53603201       0.39029927      -1.55743713
H       -0.50398205       0.97841584       1.47041421
H       -0.45605828       2.20596615       0.14146704
H        1.97737560       1.55981771       0.20329147
H        1.34239165      -1.40028962       0.76349644
14
Frame=15 idx=006266 GeodesicLength=0.9588695193000337 rxn_smarts="[C:1]([C@@:2]1([H:10])[C:3]([H:11])([H:12])[C@:4]1([C:5](=[O:6])[H:14])[H:13])([H:7])([H:8])[H:9]>>[C:1]([C@@:2]1([H:10])[C:3]([H:11])([H:12])[C@@:4]2([H:13])[C@:5]1([H:14])[O:6]2)([H:7])([H:8])[H:9]"
C       -1.34751883      -0.99606052      -0.14101595
C       -0.34950443       0.07150866      -0.54211902
C       -0.17981667       1.19970351       0.45408648
C        1.21053526       0.78978726       0.07620740
C        1.33363278      -0.64857232      -0.01637122
O        2.34462353      -0.33554061      -0.76609790
H       -1.18394571      -1.31948863       0.88903206
H       -2.37385460      -0.63155389      -0.21662772
H       -1.27060838      -1.87194161      -0.78843384
H       -0.56314192       0.40247969      -1.55923099
H       -0.48598594       0.97152034       1.47172813
H       -0.45282901       2.20540165       0.14714986
H        1.96764767       1.55396428       0.20734444
H        1.35076627      -1.39120781       0.78434827
14
Frame=16 idx=006266 GeodesicLength=1.0227483426783208 rxn_smarts="[C:1]([C@@:2]1([H:10])[C:3]([H:11])([H:12])[C@:4]1([C:5](=[O:6])[H:14])[H:13])([H:7])([H:8])[H:9]>>[C:1]([C@@:2]1([H:10])[C:3]([H:11])([H:12])[C@@:4]2([H:13])[C@:5]1([H:14])[O:6]2)([H:7])([H:8])[H:9]"
C       -1.34958217      -0.99447497      -0.14537096
C       -0.35634306       0.07659252      -0.54997066
C       -0.17677017       1.19643179       0.45185378
C        1.20714489       0.78171202       0.04381159
C        1.33961724      -0.65466706      -0.00883699
O        2.35903786      -0.33349629      -0.74553387
H       -1.18119206      -1.31828931       0.88375647
H       -2.37779227      -0.63474434      -0.21671262
H       -1.27249793      -1.86952175      -0.79397527
H       -0.59082116       0.41535501      -1.56036070
H       -0.46801285       0.96455330       1.47268586
H       -0.44861256       2.20470685       0.15292540
H        1.95669160       1.54733345       0.21013844
H        1.35913265      -1.38149124       0.80558953
