14
Frame=0 idx=008246 GeodesicLength=0.0 rxn_smarts="[C:1]([C@:2]12[N:3]([H:11])[C@@:4]1([H:12])[C:5]([H:13])([H:14])[C:6]2=[O:7])([H:8])([H:9])[H:10]>>[C:1]([C@:2]1([C:6]([C:5]([H:12])([H:13])[H:14])=[O:7])[N:3]([H:11])[C:4]1)([H:8])([H:9])[H:10]"
C       -1.97888857      -0.16280674       0.00129105
C       -0.49201073      -0.16534701       0.11856531
N        0.17547049      -1.05541158       1.07288943
C        0.33742833       0.25832242       1.30270925
C        1.73715258       0.48563401      -0.40051356
C        0.39695584       0.29498417      -0.98246832
O        0.01231177       0.71465272      -2.05234864
H       -2.31048622       0.79059446      -0.41003946
H       -2.44089950      -0.31750153       0.97524284
H       -2.30562413      -0.94974991      -0.67996064
H        0.91826263      -1.69488907       0.81872497
H        1.30485215       0.87729265       1.16423621
H        2.32856889      -0.36297466      -0.07676195
H        2.31690642       1.28720005      -0.85156643
14
Frame=1 idx=008246 GeodesicLength=0.06613044014004249 rxn_smarts="[C:1]([C@:2]12[N:3]([H:11])[C@@:4]1([H:12])[C:5]([H:13])([H:14])[C:6]2=[O:7])([H:8])([H:9])[H:10]>>[C:1]([C@:2]1([C:6]([C:5]([H:12])([H:13])[H:14])=[O:7])[N:3]([H:11])[C:4]1)([H:8])([H:9])[H:10]"
C       -1.97913574      -0.15984597       0.00198804
C       -0.49205373      -0.17092988       0.11668996
N        0.17257075      -1.06291051       1.06911892
C        0.34219483       0.24909246       1.30177935
C        1.73461222       0.49231631      -0.38885023
C        0.39898938       0.28717663      -0.98453209
O        0.01753643       0.69865076      -2.05785667
H       -2.30696932       0.79443785      -0.41032716
H       -2.43966614      -0.31027008       0.97737660
H       -2.31166227      -0.94619840      -0.67723894
H        0.90951336      -1.70975347       0.81719005
H        1.31140579       0.89597010       1.16233890
H        2.33698503      -0.35704316      -0.08623898
H        2.30567942       1.29930735      -0.84143776
14
Frame=2 idx=008246 GeodesicLength=0.13225416392662975 rxn_smarts="[C:1]([C@:2]12[N:3]([H:11])[C@@:4]1([H:12])[C:5]([H:13])([H:14])[C:6]2=[O:7])([H:8])([H:9])[H:10]>>[C:1]([C@:2]1([C:6]([C:5]([H:12])([H:13])[H:14])=[O:7])[N:3]([H:11])[C:4]1)([H:8])([H:9])[H:10]"
C       -1.97928138      -0.15683708       0.00270702
C       -0.49205231      -0.17659961       0.11484895
N        0.16963232      -1.07062724       1.06530147
C        0.34709435       0.23956098       1.30090196
C        1.73198843       0.49877417      -0.37719852
C        0.40113787       0.27927785      -0.98651108
O        0.02291197       0.68269480      -2.06316228
H       -2.30326254       0.79836921      -0.41053101
H       -2.43830095      -0.30303155       0.97951738
H       -2.31765239      -0.94248628      -0.67454268
H        0.90052117      -1.72490696       0.81557409
H        1.31751004       0.91526292       1.16023356
H        2.34550704      -0.35052654      -0.09566568
H        2.29424638       1.31107533      -0.83147317
14
Frame=3 idx=008246 GeodesicLength=0.19837250220105862 rxn_smarts="[C:1]([C@:2]12[N:3]([H:11])[C@@:4]1([H:12])[C:5]([H:13])([H:14])[C:6]2=[O:7])([H:8])([H:9])[H:10]>>[C:1]([C@:2]1([C:6]([C:5]([H:12])([H:13])[H:14])=[O:7])[N:3]([H:11])[C:4]1)([H:8])([H:9])[H:10]"
C       -1.97932153      -0.15378038       0.00344994
C       -0.49200448      -0.18235357       0.11304396
N        0.16665210      -1.07855865       1.06144305
C        0.35212987       0.22972936       1.30007735
C        1.72928583       0.50501792      -0.36555099
C        0.40340442       0.27128684      -0.98840616
O        0.02843705       0.66678854      -2.06826903
H       -2.29936295       0.80238827      -0.41064957
H       -2.43679977      -0.29578811       0.98166893
H       -2.32358805      -0.93861429      -0.67187150
H        0.89127108      -1.74035273       0.81388257
H        1.32315721       0.93515573       1.15790017
H        2.35412566      -0.34342723      -0.10504598
H        2.28261356       1.32250830      -0.82167275
14
Frame=4 idx=008246 GeodesicLength=0.2644856291887747 rxn_smarts="[C:1]([C@:2]12[N:3]([H:11])[C@@:4]1([H:12])[C:5]([H:13])([H:14])[C:6]2=[O:7])([H:8])([H:9])[H:10]>>[C:1]([C@:2]1([C:6]([C:5]([H:12])([H:13])[H:14])=[O:7])[N:3]([H:11])[C:4]1)([H:8])([H:9])[H:10]"
C       -1.97925352      -0.15067573       0.00421799
C       -0.49190911      -0.18818974       0.11127529
N        0.16362721      -1.08669710       1.05754362
C        0.35730268       0.21959695       1.29929933
C        1.72650816       0.51105701      -0.35389977
C        0.40579173       0.26320036      -0.99021208
O        0.03410955       0.65092875      -2.07316888
H       -2.29526775       0.80649032      -0.41068008
H       -2.43515966      -0.28854080       0.98382902
H       -2.32946583      -0.93457821      -0.66922187
H        0.88174945      -1.75608362       0.81211709
H        1.32834740       0.95562192       1.15531328
H        2.36283449      -0.33573765      -0.11437788
H        2.27078519       1.33360752      -0.81203504
14
Frame=5 idx=008246 GeodesicLength=0.3305781516052935 rxn_smarts="[C:1]([C@:2]12[N:3]([H:11])[C@@:4]1([H:12])[C:5]([H:13])([H:14])[C:6]2=[O:7])([H:8])([H:9])[H:10]>>[C:1]([C@:2]1([C:6]([C:5]([H:12])([H:13])[H:14])=[O:7])[N:3]([H:11])[C:4]1)([H:8])([H:9])[H:10]"
C       -1.97907401      -0.14754151       0.00500611
C       -0.49176502      -0.19408900       0.10954828
N        0.16055189      -1.09501490       1.05362896
C        0.36261128       0.20919766       1.29857095
C        1.72366555       0.51688383      -0.34224515
C        0.40829732       0.25504069      -0.99193189
O        0.03991389       0.63520684      -2.07784677
H       -2.29099965       0.81065602      -0.41062196
H       -2.43338262      -0.28132667       0.98599297
H       -2.33525339      -0.93040513      -0.66661057
H        0.87193893      -1.77208656       0.81032060
H        1.33309638       0.97664486       1.15244743
H        2.37159698      -0.32750156      -0.12368116
H        2.25880245       1.34433544      -0.80257782
14
Frame=6 idx=008246 GeodesicLength=0.39666561979488413 rxn_smarts="[C:1]([C@:2]12[N:3]([H:11])[C@@:4]1([H:12])[C:5]([H:13])([H:14])[C:6]2=[O:7])([H:8])([H:9])[H:10]>>[C:1]([C@:2]1([C:6]([C:5]([H:12])([H:13])[H:14])=[O:7])[N:3]([H:11])[C:4]1)([H:8])([H:9])[H:10]"
C       -1.97877837      -0.14436565       0.00582019
C       -0.49157110      -0.20006056       0.10786092
N        0.15742367      -1.10351937       1.04968372
C        0.36805620       0.19851010       1.29788549
C        1.72075520       0.52252192      -0.33057231
C        0.41092549       0.24679350      -0.99355736
O        0.04585982       0.61954143      -2.08231803
H       -2.28653244       0.81489279      -0.41047551
H       -2.43145945      -0.27411930       0.98816447
H       -2.34096625      -0.92607659      -0.66402116
H        0.86182182      -1.78836045       0.80846597
H        1.33741237       0.99818714       1.14928912
H        2.38041568      -0.31867828      -0.13295222
H        2.24663737       1.35473333      -0.79327331
14
Frame=7 idx=008246 GeodesicLength=0.4627446688139385 rxn_smarts="[C:1]([C@:2]12[N:3]([H:11])[C@@:4]1([H:12])[C:5]([H:13])([H:14])[C:6]2=[O:7])([H:8])([H:9])[H:10]>>[C:1]([C@:2]1([C:6]([C:5]([H:12])([H:13])[H:14])=[O:7])[N:3]([H:11])[C:4]1)([H:8])([H:9])[H:10]"
C       -1.97836790      -0.14114677       0.00666147
C       -0.49132671      -0.20610288       0.10621451
N        0.15424358      -1.11221445       1.04571844
C        0.37363078       0.18753375       1.29725113
C        1.71778242       0.52798219      -0.31887789
C        0.41368091       0.23846399      -0.99509331
O        0.05195038       0.60393715      -2.08659828
H       -2.28187278       0.81920697      -0.41024337
H       -2.42939519      -0.26691945       0.99035198
H       -2.34659857      -0.92159464      -0.66145586
H        0.85139527      -1.80491533       0.80656629
H        1.34130258       1.02022546       1.14582410
H        2.38928130      -0.30926792      -0.14219113
H        2.23429391       1.36481194      -0.78412808
14
Frame=8 idx=008246 GeodesicLength=0.5288202479566478 rxn_smarts="[C:1]([C@:2]12[N:3]([H:11])[C@@:4]1([H:12])[C:5]([H:13])([H:14])[C:6]2=[O:7])([H:8])([H:9])[H:10]>>[C:1]([C@:2]1([C:6]([C:5]([H:12])([H:13])[H:14])=[O:7])[N:3]([H:11])[C:4]1)([H:8])([H:9])[H:10]"
C       -1.97783594      -0.13788839       0.00752821
C       -0.49103062      -0.21221189       0.10460853
N        0.15100822      -1.12108724       1.04172904
C        0.37933501       0.17627163       1.29666120
C        1.71474687       0.53327170      -0.30715172
C        0.41656026       0.23005602      -0.99653036
O        0.05817775       0.58839119      -2.09067493
H       -2.27701362       0.82358761      -0.40992339
H       -2.42717998      -0.25973230       0.99254766
H       -2.35214394      -0.91696021      -0.65891504
H        0.84064039      -1.82173558       0.80462219
H        1.34479287       1.04273432       1.14202802
H        2.39816705      -0.29926352      -0.15139372
H        2.22177569       1.37456666      -0.77513571
14
Frame=9 idx=008246 GeodesicLength=0.5948854862693584 rxn_smarts="[C:1]([C@:2]12[N:3]([H:11])[C@@:4]1([H:12])[C:5]([H:13])([H:14])[C:6]2=[O:7])([H:8])([H:9])[H:10]>>[C:1]([C@:2]1([C:6]([C:5]([H:12])([H:13])[H:14])=[O:7])[N:3]([H:11])[C:4]1)([H:8])([H:9])[H:10]"
C       -1.97718038      -0.13457583       0.00842702
C       -0.49068134      -0.21839826       0.10304244
N        0.14771948      -1.13015869       1.03770974
C        0.38516426       0.16469858       1.29612033
C        1.71164477       0.53841425      -0.29538451
C        0.41957313       0.22155860      -0.99787149
O        0.06456406       0.57283258      -2.09458281
H       -2.27193692       0.82805434      -0.40952014
H       -2.42481068      -0.25252586       0.99476685
H       -2.35761298      -0.91215992      -0.65638335
H        0.82954854      -1.83884071       0.80261425
H        1.34788694       1.06568219       1.13789498
H        2.40707533      -0.28862614      -0.16055364
H        2.20904581       1.38404487      -0.76627971
14
Frame=10 idx=008246 GeodesicLength=0.6609491014615495 rxn_smarts="[C:1]([C@:2]12[N:3]([H:11])[C@@:4]1([H:12])[C:5]([H:13])([H:14])[C:6]2=[O:7])([H:8])([H:9])[H:10]>>[C:1]([C@:2]1([C:6]([C:5]([H:12])([H:13])[H:14])=[O:7])[N:3]([H:11])[C:4]1)([H:8])([H:9])[H:10]"
C       -1.97640197      -0.13122601       0.00935194
C       -0.49028110      -0.22464751       0.10151847
N        0.14437172      -1.13940404       1.03367125
C        0.39111022       0.15283684       1.29562740
C        1.70848290       0.54340660      -0.28357300
C        0.42271295       0.21299321      -0.99910987
O        0.07108930       0.55732764      -2.09829659
H       -2.26666244       0.83258499      -0.40903067
H       -2.42229287      -0.24533840       0.99699734
H       -2.36298586      -0.90721008      -0.65387790
H        0.81810773      -1.85620563       0.80057174
H        1.35063424       1.08905355       1.13339847
H        2.41596938      -0.27737839      -0.16966804
H        2.19614581       1.39320722      -0.75758055
14
Frame=11 idx=008246 GeodesicLength=0.7270069144185703 rxn_smarts="[C:1]([C@:2]12[N:3]([H:11])[C@@:4]1([H:12])[C:5]([H:13])([H:14])[C:6]2=[O:7])([H:8])([H:9])[H:10]>>[C:1]([C@:2]1([C:6]([C:5]([H:12])([H:13])[H:14])=[O:7])[N:3]([H:11])[C:4]1)([H:8])([H:9])[H:10]"
C       -1.97549602      -0.12782542       0.01030873
C       -0.48982757      -0.23097340       0.10003418
N        0.14096836      -1.14884325       1.02959868
C        0.39717229       0.14065585       1.29518165
C        1.70525363       0.54827121      -0.27170278
C        0.42598716       0.20434311      -1.00024421
O        0.07777022       0.54180269      -2.10183837
H       -2.26116616       0.83719529      -0.40845334
H       -2.41961803      -0.23813747       0.99924851
H       -2.36827716      -0.90208974      -0.65138785
H        0.80631106      -1.87384300       0.79847053
H        1.35304042       1.11282917       1.12852739
H        2.42484514      -0.26547445      -0.17872047
H        2.18303665       1.40208940      -0.74902266
14
Frame=12 idx=008246 GeodesicLength=0.7930601116821174 rxn_smarts="[C:1]([C@:2]12[N:3]([H:11])[C@@:4]1([H:12])[C:5]([H:13])([H:14])[C:6]2=[O:7])([H:8])([H:9])[H:10]>>[C:1]([C@:2]1([C:6]([C:5]([H:12])([H:13])[H:14])=[O:7])[N:3]([H:11])[C:4]1)([H:8])([H:9])[H:10]"
C       -1.97446154      -0.12438947       0.01129361
C       -0.48932360      -0.23736125       0.09859289
N        0.13750043      -1.15845583       1.02550050
C        0.40333882       0.12817417       1.29478194
C        1.70196029       0.55300882      -0.25977133
C        0.42939019       0.19563310      -1.00126712
O        0.08459518       0.52631154      -2.10518995
H       -2.25546250       0.84186530      -0.40778767
H       -2.41679035      -0.23095983       1.00151165
H       -2.37346416      -0.89681909      -0.64892238
H        0.79413906      -1.89173021       0.79632934
H        1.35516353       1.13699503       1.12325490
H        2.43365930      -0.25293248      -0.18770406
H        2.16975535       1.41066019      -0.74062234
14
Frame=13 idx=008246 GeodesicLength=0.8591053507525424 rxn_smarts="[C:1]([C@:2]12[N:3]([H:11])[C@@:4]1([H:12])[C:5]([H:13])([H:14])[C:6]2=[O:7])([H:8])([H:9])[H:10]>>[C:1]([C@:2]1([C:6]([C:5]([H:12])([H:13])[H:14])=[O:7])[N:3]([H:11])[C:4]1)([H:8])([H:9])[H:10]"
C       -1.97330291      -0.12091324       0.01230660
C       -0.48876941      -0.24381464       0.09719333
N        0.13397531      -1.16825312       1.02137701
C        0.40960618       0.11537847       1.29443792
C        1.69860108       0.55763206      -0.24776940
C        0.43292383       0.18686198      -1.00218378
O        0.09156249       0.51084238      -2.10837048
H       -2.24955825       0.84660534      -0.40703435
H       -2.41381404      -0.22380295       1.00379441
H       -2.37855160      -0.89139151      -0.64648898
H        0.78159869      -1.90987602       0.79414798
H        1.35703317       1.16154618       1.11756983
H        2.44239958      -0.23974078      -0.19659381
H        2.15629588       1.41892585      -0.73238626
14
Frame=14 idx=008246 GeodesicLength=0.9251467076351523 rxn_smarts="[C:1]([C@:2]12[N:3]([H:11])[C@@:4]1([H:12])[C:5]([H:13])([H:14])[C:6]2=[O:7])([H:8])([H:9])[H:10]>>[C:1]([C@:2]1([C:6]([C:5]([H:12])([H:13])[H:14])=[O:7])[N:3]([H:11])[C:4]1)([H:8])([H:9])[H:10]"
C       -1.97200794      -0.11739843       0.01335222
C       -0.48816509      -0.25034015       0.09583186
N        0.13037812      -1.17823603       1.01720293
C        0.41596784       0.10224886       1.29412758
C        1.69516553       0.56215769      -0.23568722
C        0.43659137       0.17802345      -1.00297801
O        0.09868193       0.49537068      -2.11135191
H       -2.24342039       0.85140599      -0.40617902
H       -2.41067435      -0.21667200       1.00608744
H       -2.38354082      -0.88579577      -0.64407307
H        0.76865942      -1.92826298       0.79190860
H        1.35868105       1.18647514       1.11142708
H        2.45102982      -0.22586171      -0.20535128
H        2.14265348       1.42688527      -0.72431721
14
Frame=15 idx=008246 GeodesicLength=0.9911907404479336 rxn_smarts="[C:1]([C@:2]12[N:3]([H:11])[C@@:4]1([H:12])[C:5]([H:13])([H:14])[C:6]2=[O:7])([H:8])([H:9])[H:10]>>[C:1]([C@:2]1([C:6]([C:5]([H:12])([H:13])[H:14])=[O:7])[N:3]([H:11])[C:4]1)([H:8])([H:9])[H:10]"
C       -1.97057650      -0.11383031       0.01443632
C       -0.48750752      -0.25694860       0.09451077
N        0.12672140      -1.18843871       1.01297452
C        0.42242821       0.08874888       1.29387020
C        1.69164687       0.56661125      -0.22350577
C        0.44039976       0.16911180      -1.00365570
O        0.10596772       0.47983521      -2.11417704
H       -2.23704276       0.85629277      -0.40522413
H       -2.40736868      -0.20953844       1.00841280
H       -2.38843897      -0.88001589      -0.64167585
H        0.75532291      -1.94692846       0.78958080
H        1.36010590       1.21180813       1.10481932
H        2.45953938      -0.21127185      -0.21395204
H        2.12880227       1.43456422      -0.71641421
14
Frame=16 idx=008246 GeodesicLength=1.057244024878309 rxn_smarts="[C:1]([C@:2]12[N:3]([H:11])[C@@:4]1([H:12])[C:5]([H:13])([H:14])[C:6]2=[O:7])([H:8])([H:9])[H:10]>>[C:1]([C@:2]1([C:6]([C:5]([H:12])([H:13])[H:14])=[O:7])[N:3]([H:11])[C:4]1)([H:8])([H:9])[H:10]"
C       -1.96899450      -0.11018932       0.01556843
C       -0.48679146      -0.26366296       0.09322663
N        0.12300737      -1.19889796       1.00866395
C        0.42899208       0.07482613       1.29366085
C        1.68802351       0.57102395      -0.21120502
C        0.44436057       0.16009959      -1.00421023
O        0.11344448       0.46414230      -2.11685492
H       -2.23037808       0.86129390      -0.40414848
H       -2.40387520      -0.20237467       1.01078050
H       -2.39325986      -0.87400851      -0.63929117
H        0.74157899      -1.96589853       0.78712413
H        1.36128822       1.23756745       1.09771112
H        2.46790984      -0.19591010      -0.22234744
H        2.11469403       1.44198873      -0.70867836
