16
Frame=0 idx=005425 GeodesicLength=0.0 rxn_smarts="[C:1]([C:2]([C:3]([O:4][H:13])([H:11])[H:12])([C:5]([O:6][H:16])([H:14])[H:15])[H:10])([H:7])([H:8])[H:9]>>[C:1]([C@:2]([C:3]([O:4][H:13])([H:11])[H:12])([C:5][H:15])[H:10])([H:7])([H:8])[H:9].[O:6]([H:14])[H:16]"
C       -1.66721119      -0.88692667       0.13160262
C       -0.52743264       0.10597528      -0.11800177
C        0.64378243      -0.59641993      -0.79095705
O        1.51538583       0.40975937      -1.31706736
C       -0.26086578       0.74041714       1.22316908
O        1.31578686       1.62257776       1.08928093
H       -2.05490183      -1.27414126      -0.81212715
H       -1.32687508      -1.73304723       0.73422621
H       -2.48821851      -0.40530348       0.66378245
H       -0.88498290       0.86180460      -0.82729668
H        0.28780569      -1.23263077      -1.61012589
H        1.17612172      -1.22415998      -0.06596789
H        2.31739863      -0.00050709      -1.64348059
H        0.37970184       2.05242824       1.26781026
H        0.07914688      -0.01137223       1.94150980
H        1.49535806       1.57154622       0.13364302
16
Frame=1 idx=005425 GeodesicLength=0.0648929897107076 rxn_smarts="[C:1]([C:2]([C:3]([O:4][H:13])([H:11])[H:12])([C:5]([O:6][H:16])([H:14])[H:15])[H:10])([H:7])([H:8])[H:9]>>[C:1]([C@:2]([C:3]([O:4][H:13])([H:11])[H:12])([C:5][H:15])[H:10])([H:7])([H:8])[H:9].[O:6]([H:14])[H:16]"
C       -1.66596253      -0.88397613       0.13400144
C       -0.52403070       0.10549712      -0.11653542
C        0.64232491      -0.59908201      -0.79540132
O        1.52563234       0.40433815      -1.30734402
C       -0.24481925       0.73415486       1.22566530
O        1.29737203       1.63300599       1.08650714
H       -2.05349589      -1.27355142      -0.80889915
H       -1.32866939      -1.72947410       0.73926761
H       -2.48618381      -0.39877985       0.66408589
H       -0.88166572       0.86540369      -0.82146921
H        0.28277521      -1.22218084      -1.62307984
H        1.16646792      -1.24133379      -0.07714493
H        2.32513550      -0.00984498      -1.63484435
H        0.34785865       2.06592589       1.26309919
H        0.10372932      -0.02045818       1.93732220
H        1.49353143       1.57035562       0.13476949
16
Frame=2 idx=005425 GeodesicLength=0.12976033184025865 rxn_smarts="[C:1]([C:2]([C:3]([O:4][H:13])([H:11])[H:12])([C:5]([O:6][H:16])([H:14])[H:15])[H:10])([H:7])([H:8])[H:9]>>[C:1]([C@:2]([C:3]([O:4][H:13])([H:11])[H:12])([C:5][H:15])[H:10])([H:7])([H:8])[H:9].[O:6]([H:14])[H:16]"
C       -1.66464077      -0.88099002       0.13649762
C       -0.52068564       0.10513424      -0.11519225
C        0.64082969      -0.60159820      -0.79990301
O        1.53591881       0.39877272      -1.29745567
C       -0.22889120       0.72831027       1.22779249
O        1.27915258       1.64318304       1.08340007
H       -2.05194513      -1.27323081      -0.80546916
H       -1.33025987      -1.72562129       0.74464698
H       -2.48412654      -0.39219347       0.66434912
H       -0.87845681       0.86893063      -0.81589516
H        0.27785609      -1.21139210      -1.63598290
H        1.15652161      -1.25817884      -0.08847647
H        2.33286783      -0.01935225      -1.62604928
H        0.31556083       2.07800736       1.25910888
H        0.12844516      -0.02895305       1.93265730
H        1.49185338       1.56917177       0.13597144
16
Frame=3 idx=005425 GeodesicLength=0.19460854398873453 rxn_smarts="[C:1]([C:2]([C:3]([O:4][H:13])([H:11])[H:12])([C:5]([O:6][H:16])([H:14])[H:15])[H:10])([H:7])([H:8])[H:9]>>[C:1]([C@:2]([C:3]([O:4][H:13])([H:11])[H:12])([C:5][H:15])[H:10])([H:7])([H:8])[H:9].[O:6]([H:14])[H:16]"
C       -1.66324826      -0.87797044       0.13908168
C       -0.51739869       0.10488732      -0.11397257
C        0.63929827      -0.60397044      -0.80445760
O        1.54623418       0.39305112      -1.28741181
C       -0.21308824       0.72288443       1.22955649
O        1.26112402       1.65311017       1.07994751
H       -2.05024548      -1.27317985      -0.80184732
H       -1.33164922      -1.72148979       0.75035444
H       -2.48205451      -0.38555097       0.66455636
H       -0.87535643       0.87239240      -0.81057408
H        0.27305780      -1.20027914      -1.64882126
H        1.14629094      -1.27468283      -0.09994995
H        2.34058071      -0.02904105      -1.61711221
H        0.28282340       2.08870871       1.25589549
H        0.15328642      -0.03684964       1.92751729
H        1.49034510       1.56798000       0.13723756
16
Frame=4 idx=005425 GeodesicLength=0.25944429757538523 rxn_smarts="[C:1]([C:2]([C:3]([O:4][H:13])([H:11])[H:12])([C:5]([O:6][H:16])([H:14])[H:15])[H:10])([H:7])([H:8])[H:9]>>[C:1]([C@:2]([C:3]([O:4][H:13])([H:11])[H:12])([C:5][H:15])[H:10])([H:7])([H:8])[H:9].[O:6]([H:14])[H:16]"
C       -1.66179586      -0.87492308       0.14174489
C       -0.51417363       0.10475698      -0.11287600
C        0.63773626      -0.60620337      -0.80906384
O        1.55657459       0.38716420      -1.27722721
C       -0.19741978       0.71788379       1.23096636
O        1.24328769       1.66279759       1.07614058
H       -2.04840144      -1.27340725      -0.79804405
H       -1.33284842      -1.71708435       0.75637957
H       -2.47998866      -0.37886014       0.66469490
H       -0.87236804       0.87579619      -0.80550294
H        0.26839453      -1.18886802      -1.66158509
H        1.13579190      -1.29083331      -0.11155491
H        2.34826812      -0.03892089      -1.60806439
H        0.24966428       2.09806843       1.25352242
H        0.17823914      -0.04413653       1.92190701
H        1.48903933       1.56676977       0.13856272
16
Frame=5 idx=005425 GeodesicLength=0.324266356785562 rxn_smarts="[C:1]([C:2]([C:3]([O:4][H:13])([H:11])[H:12])([C:5]([O:6][H:16])([H:14])[H:15])[H:10])([H:7])([H:8])[H:9]>>[C:1]([C@:2]([C:3]([O:4][H:13])([H:11])[H:12])([C:5][H:15])[H:10])([H:7])([H:8])[H:9].[O:6]([H:14])[H:16]"
C       -1.66026730      -0.87184073       0.14447923
C       -0.51100584       0.10474455      -0.11190229
C        0.63613745      -0.60829197      -0.81371031
O        1.56691848       0.38109841      -1.26689530
C       -0.18188533       0.71329887       1.23202183
O        1.22561693       1.67224506       1.07195572
H       -2.04638817      -1.27389523      -0.79406352
H       -1.33384316      -1.71239479       0.76271460
H       -2.47790883      -0.37212343       0.66474502
H       -0.86948375       0.87914772      -0.80068308
H        0.26386136      -1.17714276      -1.67425676
H        1.12501573      -1.30662548      -0.12327660
H        2.35589941      -0.04900445      -1.59889376
H        0.21608586       2.10608882       1.25200193
H        0.20330694      -0.05081205       1.91582323
H        1.48794021       1.56550744       0.13994007
16
Frame=6 idx=005425 GeodesicLength=0.38911104671414626 rxn_smarts="[C:1]([C:2]([C:3]([O:4][H:13])([H:11])[H:12])([C:5]([O:6][H:16])([H:14])[H:15])[H:10])([H:7])([H:8])[H:9]>>[C:1]([C@:2]([C:3]([O:4][H:13])([H:11])[H:12])([C:5][H:15])[H:10])([H:7])([H:8])[H:9].[O:6]([H:14])[H:16]"
C       -1.65866535      -0.86872054       0.14727998
C       -0.50789589       0.10485031      -0.11105586
C        0.63449842      -0.61023927      -0.81840306
O        1.57726135       0.37483653      -1.25642148
C       -0.16648205       0.70912131       1.23272695
O        1.20808730       1.68147796       1.06735957
H       -2.04420759      -1.27464373      -0.78990606
H       -1.33463781      -1.70741048       0.76936028
H       -2.47581652      -0.36533755       0.66470095
H       -0.86670407       0.88245431      -0.79611415
H        0.25946693      -1.16511042      -1.68684346
H        1.11395512      -1.32205904      -0.13511696
H        2.36348205      -0.05931143      -1.58956586
H        0.18207786       2.11278486       1.25139606
H        0.22851592      -0.05688278       1.90924694
H        1.48706433       1.56418996       0.14135614
16
Frame=7 idx=005425 GeodesicLength=0.4539695651173563 rxn_smarts="[C:1]([C:2]([C:3]([O:4][H:13])([H:11])[H:12])([C:5]([O:6][H:16])([H:14])[H:15])[H:10])([H:7])([H:8])[H:9]>>[C:1]([C@:2]([C:3]([O:4][H:13])([H:11])[H:12])([C:5][H:15])[H:10])([H:7])([H:8])[H:9].[O:6]([H:14])[H:16]"
C       -1.65700928      -0.86557444       0.15014323
C       -0.50485071       0.10507469      -0.11033264
C        0.63282630      -0.61205178      -0.82314764
O        1.58761543       0.36837001      -1.24581302
C       -0.15121655       0.70536401       1.23309595
O        1.19069799       1.69053597       1.06234284
H       -2.04187517      -1.27566971      -0.78557845
H       -1.33524819      -1.70214649       0.77630490
H       -2.47374497      -0.35851495       0.66455962
H       -0.86403903       0.88572486      -0.79178688
H        0.25521354      -1.15278196      -1.69935384
H        1.10262196      -1.33714494      -0.14708618
H        2.37103566      -0.06985610      -1.58009535
H        0.14765378       2.11818634       1.25174266
H        0.25386606      -0.06232716       1.90218309
H        1.48645320       1.56281167       0.14282173
16
Frame=8 idx=005425 GeodesicLength=0.5188500604076609 rxn_smarts="[C:1]([C:2]([C:3]([O:4][H:13])([H:11])[H:12])([C:5]([O:6][H:16])([H:14])[H:15])[H:10])([H:7])([H:8])[H:9]>>[C:1]([C@:2]([C:3]([O:4][H:13])([H:11])[H:12])([C:5][H:15])[H:10])([H:7])([H:8])[H:9].[O:6]([H:14])[H:16]"
C       -1.65529250      -0.86239927       0.15306155
C       -0.50187033       0.10541934      -0.10973447
C        0.63111924      -0.61372626      -0.82793527
O        1.59795839       0.36169350      -1.23507517
C       -0.13609501       0.70202944       1.23312711
O        1.17343282       1.69941669       1.05688072
H       -2.03937457      -1.27696717      -0.78108482
H       -1.33566763      -1.69659319       0.78354267
H       -2.47168941      -0.35165833       0.66430112
H       -0.86148795       0.88896286      -0.78770467
H        0.25111023      -1.14016518      -1.71176934
H        1.09102050      -1.35186448      -0.15916331
H        2.37853044      -0.08064070      -1.57049150
H        0.11283313       2.12228410       1.25307077
H        0.27934178      -0.06713370       1.89462932
H        1.48613087       1.56134235       0.14434530
16
Frame=9 idx=005425 GeodesicLength=0.5837556397597441 rxn_smarts="[C:1]([C:2]([C:3]([O:4][H:13])([H:11])[H:12])([C:5]([O:6][H:16])([H:14])[H:15])[H:10])([H:7])([H:8])[H:9]>>[C:1]([C@:2]([C:3]([O:4][H:13])([H:11])[H:12])([C:5][H:15])[H:10])([H:7])([H:8])[H:9].[O:6]([H:14])[H:16]"
C       -1.65351993      -0.85919786       0.15602753
C       -0.49895851       0.10588593      -0.10926254
C        0.62938034      -0.61526299      -0.83276156
O        1.60827596       0.35480687      -1.22422170
C       -0.12112832       0.69912795       1.23282391
O        1.15628864       1.70812401       1.05095573
H       -2.03670205      -1.27854151      -0.77643132
H       -1.33590106      -1.69074790       0.79106667
H       -2.46966208      -0.34477532       0.66391108
H       -0.85905449       0.89217282      -0.78386873
H        0.24717030      -1.12728340      -1.72407707
H        1.07916528      -1.36619928      -0.17132960
H        2.38594939      -0.09166141      -1.56078001
H        0.07764701       2.12507714       1.25541331
H        0.30491601      -0.07128499       1.88659117
H        1.48613350       1.55975992       0.14594312
16
Frame=10 idx=005425 GeodesicLength=0.64869167722247 rxn_smarts="[C:1]([C:2]([C:3]([O:4][H:13])([H:11])[H:12])([C:5]([O:6][H:16])([H:14])[H:15])[H:10])([H:7])([H:8])[H:9]>>[C:1]([C@:2]([C:3]([O:4][H:13])([H:11])[H:12])([C:5][H:15])[H:10])([H:7])([H:8])[H:9].[O:6]([H:14])[H:16]"
C       -1.65168758      -0.85596901       0.15903431
C       -0.49611725       0.10647634      -0.10891597
C        0.62760900      -0.61665868      -0.83761845
O        1.61854810       0.34770597      -1.21325360
C       -0.10632338       0.69666513       1.23218668
O        1.13925244       1.71666026       1.04454341
H       -2.03384700      -1.28038570      -0.77162075
H       -1.33594145      -1.68460617       0.79886561
H       -2.46766172      -0.33787281       0.66337600
H       -0.85674307       0.89535958      -0.78027710
H        0.24339691      -1.11413742      -1.73626096
H        1.06706470      -1.38013810      -0.18357229
H        2.39327112      -0.10291897      -1.55096248
H        0.04212149       2.12655034       1.25877084
H        0.33057378      -0.07476536       1.87806892
H        1.48648389       1.55803459       0.14763584
16
Frame=11 idx=005425 GeodesicLength=0.7136450016331304 rxn_smarts="[C:1]([C:2]([C:3]([O:4][H:13])([H:11])[H:12])([C:5]([O:6][H:16])([H:14])[H:15])[H:10])([H:7])([H:8])[H:9]>>[C:1]([C@:2]([C:3]([O:4][H:13])([H:11])[H:12])([C:5][H:15])[H:10])([H:7])([H:8])[H:9].[O:6]([H:14])[H:16]"
C       -1.64980265      -0.85271742       0.16206295
C       -0.49335405       0.10719368      -0.10869767
C        0.62581649      -0.61791351      -0.84248232
O        1.62872859       0.34041839      -1.20221857
C       -0.09171320       0.69466581       1.23121538
O        1.12236766       1.72497103       1.03765164
H       -2.03080073      -1.28250417      -0.76667416
H       -1.33579843      -1.67816760       0.80692052
H       -2.46570931      -0.33096727       0.66266394
H       -0.85455827       0.89852510      -0.77693863
H        0.23982715      -1.10081652      -1.74826330
H        1.05477743      -1.39361282      -0.19581355
H        2.40043145      -0.11435978      -1.54115755
H        0.00635798       2.12670276       1.26317105
H        0.35619894      -0.07755060       1.86910409
H        1.48723094       1.55613294       0.14945618
16
Frame=12 idx=005425 GeodesicLength=0.7786147246578972 rxn_smarts="[C:1]([C:2]([C:3]([O:4][H:13])([H:11])[H:12])([C:5]([O:6][H:16])([H:14])[H:15])[H:10])([H:7])([H:8])[H:9]>>[C:1]([C@:2]([C:3]([O:4][H:13])([H:11])[H:12])([C:5][H:15])[H:10])([H:7])([H:8])[H:9].[O:6]([H:14])[H:16]"
C       -1.64787236      -0.84944760       0.16510767
C       -0.49067337       0.10803844      -0.10860542
C        0.62400580      -0.61902843      -0.84734944
O        1.63880730       0.33294757      -1.19112709
C       -0.07730773       0.69313972       1.22991844
O        1.10563962       1.73306269       1.03026447
H       -2.02756405      -1.28489987      -0.76159656
H       -1.33547935      -1.67143449       0.81522045
H       -2.46381892      -0.32406966       0.66176634
H       -0.85250538       0.90167367      -0.77384965
H        0.23646475      -1.08733576      -1.76007908
H        1.04231869      -1.40661881      -0.20804051
H        2.40742566      -0.12597442      -1.53137667
H       -0.02959816       2.12552920       1.26861072
H        0.38176297      -0.07962703       1.85971130
H        1.48839453       1.55404478       0.15142503
16
Frame=13 idx=005425 GeodesicLength=0.8436044846455648 rxn_smarts="[C:1]([C:2]([C:3]([O:4][H:13])([H:11])[H:12])([C:5]([O:6][H:16])([H:14])[H:15])[H:10])([H:7])([H:8])[H:9]>>[C:1]([C@:2]([C:3]([O:4][H:13])([H:11])[H:12])([C:5][H:15])[H:10])([H:7])([H:8])[H:9].[O:6]([H:14])[H:16]"
C       -1.64589945      -0.84616075       0.16816053
C       -0.48807974       0.10901120      -0.10863887
C        0.62217780      -0.62000282      -0.85221150
O        1.64876275       0.32530273      -1.17999281
C       -0.06311832       0.69209314       1.22829902
O        1.08908295       1.74092133       1.02236647
H       -2.02413096      -1.28757223      -0.75639234
H       -1.33498789      -1.66440324       0.82375516
H       -2.46199839      -0.31718791       0.66066691
H       -0.85059055       0.90480878      -0.77100861
H        0.23331659      -1.07371911      -1.77169398
H        1.02970677      -1.41914173      -0.22022703
H        2.41423763      -0.13774436      -1.52162885
H       -0.06568452       2.12301678       1.27508470
H        0.40722485      -0.08098872       1.84990525
H        1.48998049       1.55176690       0.15355593
16
Frame=14 idx=005425 GeodesicLength=0.9086093671799154 rxn_smarts="[C:1]([C:2]([C:3]([O:4][H:13])([H:11])[H:12])([C:5]([O:6][H:16])([H:14])[H:15])[H:10])([H:7])([H:8])[H:9]>>[C:1]([C@:2]([C:3]([O:4][H:13])([H:11])[H:12])([C:5][H:15])[H:10])([H:7])([H:8])[H:9].[O:6]([H:14])[H:16]"
C       -1.64390295      -0.84286607       0.17121603
C       -0.48558112       0.11011130      -0.10879554
C        0.62033979      -0.62084197      -0.85706830
O        1.65859129       0.31749693      -1.16883838
C       -0.04915916       0.69153971       1.22636960
O        1.07272940       1.74854394       1.01395569
H       -2.02051184      -1.29053636      -0.75106772
H       -1.33434682      -1.65707988       0.83251520
H       -2.46027882      -0.31033414       0.65935793
H       -0.84882207       0.90793467      -0.76840945
H        0.23039455      -1.06000481      -1.78310745
H        1.01696712      -1.43117546      -0.23235632
H        2.42087561      -0.14964958      -1.51193776
H       -0.10182953       2.11916980       1.28259700
H        0.43253522      -0.08162724       1.83971025
H        1.49199935       1.54931914       0.15585922
16
Frame=15 idx=005425 GeodesicLength=0.9736517357741682 rxn_smarts="[C:1]([C:2]([C:3]([O:4][H:13])([H:11])[H:12])([C:5]([O:6][H:16])([H:14])[H:15])[H:10])([H:7])([H:8])[H:9]>>[C:1]([C@:2]([C:3]([O:4][H:13])([H:11])[H:12])([C:5][H:15])[H:10])([H:7])([H:8])[H:9].[O:6]([H:14])[H:16]"
C       -1.64184837      -0.83954634       0.17426208
C       -0.48317335       0.11133985      -0.10907530
C        0.61847858      -0.62153126      -0.86189246
O        1.66823586       0.30953459      -1.15765152
C       -0.03543255       0.69146460       1.22411776
O        1.05658292       1.75587379       1.00500557
H       -2.01666244      -1.29375176      -0.74562152
H       -1.33352000      -1.64944009       0.84148462
H       -2.45861399      -0.30350886       0.65780682
H       -0.84720021       0.91104995      -0.76605441
H        0.22768538      -1.04617332      -1.79428014
H        1.00410230      -1.44269650      -0.24438552
H        2.42727976      -0.16167380      -1.50225888
H       -0.13796046       2.11393192       1.29108381
H        0.45765734      -0.08155676       1.82913422
H        1.49438922       1.54668397       0.15832486
16
Frame=16 idx=005425 GeodesicLength=1.0387265795484903 rxn_smarts="[C:1]([C:2]([C:3]([O:4][H:13])([H:11])[H:12])([C:5]([O:6][H:16])([H:14])[H:15])[H:10])([H:7])([H:8])[H:9]>>[C:1]([C@:2]([C:3]([O:4][H:13])([H:11])[H:12])([C:5][H:15])[H:10])([H:7])([H:8])[H:9].[O:6]([H:14])[H:16]"
C       -1.63977307      -0.83621954       0.17730425
C       -0.48086724       0.11269415      -0.10947502
C        0.61659996      -0.62208031      -0.86670823
O        1.67772569       0.30142447      -1.14645098
C       -0.02194217       0.69187688       1.22156385
O        1.04068764       1.76293204       0.99552000
H       -2.01261200      -1.29726109      -0.74004720
H       -1.33255288      -1.64149636       0.85067048
H       -2.45705685      -0.29672391       0.65602383
H       -0.84573524       0.91416504      -0.76392758
H        0.22519859      -1.03224196      -1.80525666
H        0.99110983      -1.45373378      -0.25634441
H        2.43352124      -0.17382226      -1.49253829
H       -0.17400900       2.10731909       1.30056328
H        0.48257442      -0.08078421       1.81818433
H        1.49713108       1.54395175       0.16091834
