13
Frame=0 idx=007477 GeodesicLength=0.0 rxn_smarts="[C:1]([O:2][c:3]1[c:4]([H:11])[n:5][c:6]([H:12])[n:7]1[H:13])([H:8])([H:9])[H:10]>>[C:1]([O:2][C@@:3]1([H:12])[C:4]([H:11])=[N+:5]=[C-:6][N:7]1[H:13])([H:8])([H:9])[H:10]"
C       -1.89166564      -0.29525440      -0.20090676
O       -0.86073467      -0.34895119       0.77671711
C        0.35499725       0.03083358       0.34168591
C        0.90467192       1.32530054      -0.15649586
N        2.08854949       0.96446410      -0.48539114
C        1.95317071      -0.45785309      -0.30747886
N        1.50913288      -0.53363473       1.06480113
H       -1.96814391       0.70374828      -0.63745330
H       -2.81799902      -0.53924033       0.31311284
H       -1.70520606      -1.02652966      -0.99237978
H        0.47346859       2.31820366      -0.22496235
H        0.68669365      -0.64091331      -0.78010566
H        1.27306486      -1.50017341       1.28885678
13
Frame=1 idx=007477 GeodesicLength=0.08713214872526844 rxn_smarts="[C:1]([O:2][c:3]1[c:4]([H:11])[n:5][c:6]([H:12])[n:7]1[H:13])([H:8])([H:9])[H:10]>>[C:1]([O:2][C@@:3]1([H:12])[C:4]([H:11])=[N+:5]=[C-:6][N:7]1[H:13])([H:8])([H:9])[H:10]"
C       -1.90023588      -0.28359832      -0.19759881
O       -0.86157248      -0.36562701       0.76852512
C        0.35269074       0.01813119       0.33079783
C        0.89575399       1.31513634      -0.15859974
N        2.09257997       0.97264391      -0.47194884
C        1.98771050      -0.44857941      -0.28796827
N        1.50327535      -0.53082042       1.06410612
H       -1.98306064       0.72805476      -0.60309162
H       -2.82234612      -0.54130007       0.31761100
H       -1.72339919      -0.99174623      -1.01219587
H        0.44781278       2.29773280      -0.25817724
H        0.72353532      -0.67180997      -0.79159677
H        1.28725567      -1.49821759       1.30013710
13
Frame=2 idx=007477 GeodesicLength=0.17410263040378482 rxn_smarts="[C:1]([O:2][c:3]1[c:4]([H:11])[n:5][c:6]([H:12])[n:7]1[H:13])([H:8])([H:9])[H:10]>>[C:1]([O:2][C@@:3]1([H:12])[C:4]([H:11])=[N+:5]=[C-:6][N:7]1[H:13])([H:8])([H:9])[H:10]"
C       -1.90903455      -0.27177838      -0.19396334
O       -0.86258028      -0.38254693       0.75952329
C        0.35029619       0.00493712       0.31903187
C        0.88656389       1.30459343      -0.16138749
N        2.09613903       0.98108374      -0.45830014
C        2.02209430      -0.43826350      -0.26738769
N        1.49698481      -0.52837583       1.06281820
H       -1.99796171       0.75207314      -0.56694490
H       -2.82681675      -0.54395968       0.32187652
H       -1.74171114      -0.95532693      -1.03171946
H        0.42284270       2.27612543      -0.29226846
H        0.76227413      -0.70271467      -0.80288238
H        1.30090938      -1.49584692       1.31160398
13
Frame=3 idx=007477 GeodesicLength=0.26099637151569854 rxn_smarts="[C:1]([O:2][c:3]1[c:4]([H:11])[n:5][c:6]([H:12])[n:7]1[H:13])([H:8])([H:9])[H:10]>>[C:1]([O:2][C@@:3]1([H:12])[C:4]([H:11])=[N+:5]=[C-:6][N:7]1[H:13])([H:8])([H:9])[H:10]"
C       -1.91803959      -0.25981201      -0.18999859
O       -0.86375644      -0.39975512       0.74964783
C        0.34782311      -0.00881164       0.30633413
C        0.87705535       1.29364833      -0.16486672
N        2.09915349       0.98983248      -0.44438920
C        2.05626835      -0.42682279      -0.24566257
N        1.49025575      -0.52632869       1.06087078
H       -2.01266528       0.77565132      -0.52901071
H       -2.83142192      -0.54701242       0.32590312
H       -1.76029921      -0.91725257      -1.05079861
H        0.39855277       2.25329890      -0.32727502
H        0.80306095      -0.73357432      -0.81396664
H        1.31401264      -1.49306145       1.32321220
13
Frame=4 idx=007477 GeodesicLength=0.34786541521601255 rxn_smarts="[C:1]([O:2][c:3]1[c:4]([H:11])[n:5][c:6]([H:12])[n:7]1[H:13])([H:8])([H:9])[H:10]>>[C:1]([O:2][C@@:3]1([H:12])[C:4]([H:11])=[N+:5]=[C-:6][N:7]1[H:13])([H:8])([H:9])[H:10]"
C       -1.92723663      -0.24770481      -0.18569322
O       -0.86510171      -0.41731365       0.73881848
C        0.34528083      -0.02318477       0.29263671
C        0.86717768       1.28226720      -0.16907023
N        2.10152250       0.99894118      -0.43018089
C        2.09016397      -0.41415829      -0.22269883
N        1.48307979      -0.52470579       1.05819414
H       -2.02697955       0.79863671      -0.48927032
H       -2.83615928      -0.55028888       0.32965034
H       -1.77932076      -0.87743889      -1.06923886
H        0.37496638       2.22912982      -0.36323638
H        0.84606810      -0.76433002      -0.82484164
H        1.32653869      -1.48984980       1.33493070
13
Frame=5 idx=007477 GeodesicLength=0.43486957273346477 rxn_smarts="[C:1]([O:2][c:3]1[c:4]([H:11])[n:5][c:6]([H:12])[n:7]1[H:13])([H:8])([H:9])[H:10]>>[C:1]([O:2][C@@:3]1([H:12])[C:4]([H:11])=[N+:5]=[C-:6][N:7]1[H:13])([H:8])([H:9])[H:10]"
C       -1.93658984      -0.23542436      -0.18104481
O       -0.86660241      -0.43530507       0.72693943
C        0.34267970      -0.03822206       0.27789047
C        0.85688274       1.27043761      -0.17401513
N        2.10317012       1.00845221      -0.41563940
C        2.12370481      -0.40017553      -0.19840478
N        1.47546819      -0.52354523       1.05473638
H       -2.04073157       0.82083141      -0.44769776
H       -2.84101493      -0.55359913       0.33308263
H       -1.79891126      -0.83574294      -1.08684646
H        0.35204366       2.20342744      -0.40022770
H        0.89145095      -0.79492687      -0.83551285
H        1.33844985      -1.48620748       1.34673996
13
Frame=6 idx=007477 GeodesicLength=0.5219591855898076 rxn_smarts="[C:1]([O:2][c:3]1[c:4]([H:11])[n:5][c:6]([H:12])[n:7]1[H:13])([H:8])([H:9])[H:10]>>[C:1]([O:2][C@@:3]1([H:12])[C:4]([H:11])=[N+:5]=[C-:6][N:7]1[H:13])([H:8])([H:9])[H:10]"
C       -1.94609440      -0.22294562      -0.17600932
O       -0.86826133      -0.45382107       0.71387672
C        0.34003277      -0.05401430       0.26198668
C        0.84613573       1.25810409      -0.17973625
N        2.10398416       1.01842462      -0.40070681
C        2.15677358      -0.38475037      -0.17265931
N        1.46740057      -0.52291880       1.05041108
H       -2.05367918       0.84210424      -0.40426636
H       -2.84601757      -0.55674254       0.33623288
H       -1.81918079      -0.79214034      -1.10342733
H        0.32978294       2.17609593      -0.43836239
H        0.93945432      -0.82524381      -0.84593206
H        1.34966919      -1.48215204       1.35859248
13
Frame=7 idx=007477 GeodesicLength=0.6091984493996445 rxn_smarts="[C:1]([O:2][c:3]1[c:4]([H:11])[n:5][c:6]([H:12])[n:7]1[H:13])([H:8])([H:9])[H:10]>>[C:1]([O:2][C@@:3]1([H:12])[C:4]([H:11])=[N+:5]=[C-:6][N:7]1[H:13])([H:8])([H:9])[H:10]"
C       -1.95571641      -0.21027689      -0.17057536
O       -0.87007926      -0.47288722       0.69951618
C        0.33735400      -0.07060591       0.24481764
C        0.83492304       1.24522012      -0.18631062
N        2.10388681       1.02886087      -0.38539177
C        2.18922444      -0.36781052      -0.14537907
N        1.45887102      -0.52288361       1.04512629
H       -2.06563031       0.86238332      -0.35912275
H       -2.85119008      -0.55954438       0.33923090
H       -1.84020010      -0.74674312      -1.11880155
H        0.30820248       2.14714793      -0.47751198
H        0.99025874      -0.85518293      -0.85606435
H        1.36009563      -1.47767766       1.37046645
13
Frame=8 idx=007477 GeodesicLength=0.6965244505322118 rxn_smarts="[C:1]([O:2][c:3]1[c:4]([H:11])[n:5][c:6]([H:12])[n:7]1[H:13])([H:8])([H:9])[H:10]>>[C:1]([O:2][C@@:3]1([H:12])[C:4]([H:11])=[N+:5]=[C-:6][N:7]1[H:13])([H:8])([H:9])[H:10]"
C       -1.96544000      -0.19739245      -0.16467790
O       -0.87206264      -0.49261223       0.68368285
C        0.33465745      -0.08809105       0.22625502
C        0.82320410       1.23170790      -0.19383353
N        2.10274207       1.03979174      -0.36967690
C        2.22088162      -0.34924310      -0.11643092
N        1.44985596      -0.52350622       1.03878377
H       -2.07634666       0.88156779      -0.31216908
H       -2.85654490      -0.56189807       0.34211090
H       -1.86202551      -0.69938937      -1.13280005
H        0.28732130       2.11643542      -0.51781393
H        1.04413621      -0.88459487      -0.86578460
H        1.36962100      -1.47277547       1.38235436
13
Frame=9 idx=007477 GeodesicLength=0.7830441254274528 rxn_smarts="[C:1]([O:2][c:3]1[c:4]([H:11])[n:5][c:6]([H:12])[n:7]1[H:13])([H:8])([H:9])[H:10]>>[C:1]([O:2][C@@:3]1([H:12])[C:4]([H:11])=[N+:5]=[C-:6][N:7]1[H:13])([H:8])([H:9])[H:10]"
C       -1.97524518      -0.18431080      -0.15825653
O       -0.87419774      -0.51286502       0.66625445
C        0.33201280      -0.10672383       0.20579209
C        0.81108014       1.21738208      -0.20257017
N        2.10056227       1.05122446      -0.35344567
C        2.25159489      -0.32897236      -0.08588290
N        1.44025033      -0.52503460       1.03114305
H       -2.08552561       0.89974896      -0.26463423
H       -2.86213960      -0.56308956       0.34560641
H       -1.88485463      -0.65155062      -1.14503620
H        0.26715096       2.08476387      -0.55814791
H        1.10132036      -0.91309670      -0.87487754
H        1.37799099      -1.46747588       1.39405515
13
Frame=10 idx=007477 GeodesicLength=0.8696037176228238 rxn_smarts="[C:1]([O:2][c:3]1[c:4]([H:11])[n:5][c:6]([H:12])[n:7]1[H:13])([H:8])([H:9])[H:10]>>[C:1]([O:2][C@@:3]1([H:12])[C:4]([H:11])=[N+:5]=[C-:6][N:7]1[H:13])([H:8])([H:9])[H:10]"
C       -1.98501464      -0.17100998      -0.15128227
O       -0.87649391      -0.53394226       0.64698514
C        0.32940678      -0.12643728       0.18364253
C        0.79842256       1.20222733      -0.21257164
N        2.09704497       1.06309351      -0.33688812
C        2.28104276      -0.30695226      -0.05344267
N        1.43012511      -0.52734690       1.02220937
H       -2.09298681       0.91661217      -0.21520386
H       -2.86783189      -0.56363964       0.34916861
H       -1.90851325      -0.60158989      -1.15563310
H        0.24775034       2.05135889      -0.59956351
H        1.16191216      -0.94077979      -0.88326519
H        1.38513581      -1.46159388       1.40584469
13
Frame=11 idx=007477 GeodesicLength=0.9563088177357328 rxn_smarts="[C:1]([O:2][c:3]1[c:4]([H:11])[n:5][c:6]([H:12])[n:7]1[H:13])([H:8])([H:9])[H:10]>>[C:1]([O:2][C@@:3]1([H:12])[C:4]([H:11])=[N+:5]=[C-:6][N:7]1[H:13])([H:8])([H:9])[H:10]"
C       -1.99464663      -0.15752633      -0.14371857
O       -0.87896214      -0.55575172       0.62580121
C        0.32686367      -0.14722916       0.15970860
C        0.78527942       1.18619413      -0.22394731
N        2.09211355       1.07527659      -0.32012794
C        2.30891630      -0.28322065      -0.01908327
N        1.41949968      -0.53053316       1.01182298
H       -2.09850994       0.93210185      -0.16414203
H       -2.87355528      -0.56347372       0.35297190
H       -1.93286691      -0.54978901      -1.16444585
H        0.22915968       2.01648433      -0.64171715
H        1.22587276      -0.96748730      -0.89084352
H        1.39083584      -1.45504585       1.41772096
13
Frame=12 idx=007477 GeodesicLength=1.043053693415553 rxn_smarts="[C:1]([O:2][c:3]1[c:4]([H:11])[n:5][c:6]([H:12])[n:7]1[H:13])([H:8])([H:9])[H:10]>>[C:1]([O:2][C@@:3]1([H:12])[C:4]([H:11])=[N+:5]=[C-:6][N:7]1[H:13])([H:8])([H:9])[H:10]"
C       -2.00403223      -0.14387617      -0.13550015
O       -0.88161732      -0.57835098       0.60249239
C        0.32441024      -0.16914843       0.13386714
C        0.77168705       1.16919216      -0.23685809
N        2.08562421       1.08769878      -0.30325427
C        2.33484594      -0.25776003       0.01725822
N        1.40838083      -0.53469763       0.99982493
H       -2.10178902       0.94605086      -0.11135132
H       -2.87924291      -0.56256697       0.35708293
H       -1.95778046      -0.49603113      -1.17129117
H        0.21140724       1.98020901      -0.68462518
H        1.29329132      -0.99299682      -0.89737014
H        1.39481510      -1.44772265       1.42972470
13
Frame=13 idx=007477 GeodesicLength=1.129391282542345 rxn_smarts="[C:1]([O:2][c:3]1[c:4]([H:11])[n:5][c:6]([H:12])[n:7]1[H:13])([H:8])([H:9])[H:10]>>[C:1]([O:2][C@@:3]1([H:12])[C:4]([H:11])=[N+:5]=[C-:6][N:7]1[H:13])([H:8])([H:9])[H:10]"
C       -2.01301798      -0.13022169      -0.12664388
O       -0.88448562      -0.60134480       0.57724698
C        0.32206555      -0.19219265       0.10598554
C        0.75784747       1.15115657      -0.25134041
N        2.07758678       1.10020256      -0.28629155
C        2.35844041      -0.23073206       0.05533041
N        1.39682312      -0.54019835       0.98589362
H       -2.10256369       0.95853266      -0.05817322
H       -2.88477414      -0.56048735       0.36211156
H       -1.98315505      -0.44174436      -1.17587160
H        0.19453907       1.94350318      -0.72723419
H        1.36396308      -1.01684940      -0.90272266
H        1.39673100      -1.43962429       1.44170939
13
Frame=14 idx=007477 GeodesicLength=1.2158263857270146 rxn_smarts="[C:1]([O:2][c:3]1[c:4]([H:11])[n:5][c:6]([H:12])[n:7]1[H:13])([H:8])([H:9])[H:10]>>[C:1]([O:2][C@@:3]1([H:12])[C:4]([H:11])=[N+:5]=[C-:6][N:7]1[H:13])([H:8])([H:9])[H:10]"
C       -2.02145496      -0.11656120      -0.11707058
O       -0.88758053      -0.62492213       0.54977377
C        0.31983789      -0.21627425       0.07614941
C        0.74374510       1.13210280      -0.26753658
N        2.06782161       1.11262552      -0.26954001
C        2.37926503      -0.20222946       0.09529290
N        1.38493448      -0.54694668       0.96994090
H       -2.10059664       0.96915157      -0.00360657
H       -2.89001665      -0.55771343       0.36764252
H       -2.00861820      -0.38575242      -1.17814290
H        0.17859277       1.90597745      -0.77014275
H        1.43779164      -1.03905308      -0.90671272
H        1.39627847      -1.43040469       1.45395261
13
Frame=15 idx=007477 GeodesicLength=1.3022747598127475 rxn_smarts="[C:1]([O:2][c:3]1[c:4]([H:11])[n:5][c:6]([H:12])[n:7]1[H:13])([H:8])([H:9])[H:10]>>[C:1]([O:2][C@@:3]1([H:12])[C:4]([H:11])=[N+:5]=[C-:6][N:7]1[H:13])([H:8])([H:9])[H:10]"
C       -2.02916816      -0.10302703      -0.10678813
O       -0.89092063      -0.64875962       0.52025736
C        0.31772626      -0.24125047       0.04442077
C        0.72955619       1.11209239      -0.28536134
N        2.05635652       1.12475510      -0.25311904
C        2.39689521      -0.17251272       0.13691983
N        1.37288807      -0.55517942       0.95170762
H       -2.09573079       0.97783393       0.05170714
H       -2.89482003      -0.55417152       0.37389191
H       -2.03385043      -0.32875647      -1.17794939
H        0.16359360       1.86817717      -0.81284925
H        1.51437040      -1.05930102      -0.90928507
H        1.39310379      -1.41990031       1.46644758
13
Frame=16 idx=007477 GeodesicLength=1.3886188174958138 rxn_smarts="[C:1]([O:2][c:3]1[c:4]([H:11])[n:5][c:6]([H:12])[n:7]1[H:13])([H:8])([H:9])[H:10]>>[C:1]([O:2][C@@:3]1([H:12])[C:4]([H:11])=[N+:5]=[C-:6][N:7]1[H:13])([H:8])([H:9])[H:10]"
C       -2.03599201      -0.08971332      -0.09577356
O       -0.89452748      -0.67271920       0.48875674
C        0.31572177      -0.26704662       0.01082606
C        0.71542878       1.09114083      -0.30481006
N        2.04320018       1.13641237      -0.23712098
C        2.41091833      -0.14183786       0.18002176
N        1.36086861      -0.56512377       0.93093478
H       -2.08778459       0.98446038       0.10762548
H       -2.89902456      -0.54996742       0.38092965
H       -2.05855262      -0.27093857      -1.17515427
H        0.14954348       1.83040658      -0.85523035
H        1.59346008      -1.07729244      -0.91033768
H        1.38674004      -1.40778096       1.47933243
