17
Frame=0 idx=009549 GeodesicLength=0.0 rxn_smarts="[C:1]([O:2][C@@:3]1([H:11])[C@@:4]2([H:12])[C:5]([H:13])([H:14])[C:6]([H:15])([H:16])[C@@:7]12[H:17])([H:8])([H:9])[H:10]>>[C:1]([O:2][C@@:3]([C:4]1([H:12])[C:5]([H:13])([H:14])[C:6]1([H:15])[H:16])([C:7][H:17])[H:11])([H:8])([H:9])[H:10]"
C        2.47038362      -0.06601427       0.65042669
O        1.11885485      -0.36519115       0.90814218
C        0.42719496      -0.75346590      -0.24672909
C       -1.04444496      -0.54727536      -0.16157346
C       -1.72370556       0.28120880       0.86987023
C       -1.59757836       1.00373888      -0.41769534
C        0.22993427       0.25373305      -1.29210891
H        2.90208098       0.30223213       1.58003895
H        2.55978624       0.70177991      -0.12463204
H        3.02214081      -0.96081872       0.33260728
H        0.67269116      -1.77874482      -0.54032104
H       -1.65022754      -1.27765216      -0.67697560
H       -2.70287941      -0.07678248       1.16010155
H       -1.09950957       0.62619657       1.68359061
H       -2.44588920       0.99428080      -1.08868394
H       -1.01994149       1.90807119      -0.43188733
H       -0.11889080      -0.24529639      -2.20417076
17
Frame=1 idx=009549 GeodesicLength=0.046138827049401435 rxn_smarts="[C:1]([O:2][C@@:3]1([H:11])[C@@:4]2([H:12])[C:5]([H:13])([H:14])[C:6]([H:15])([H:16])[C@@:7]12[H:17])([H:8])([H:9])[H:10]>>[C:1]([O:2][C@@:3]([C:4]1([H:12])[C:5]([H:13])([H:14])[C:6]1([H:15])[H:16])([C:7][H:17])[H:11])([H:8])([H:9])[H:10]"
C        2.46634366      -0.05893906       0.64772273
O        1.11614081      -0.36185682       0.90790045
C        0.42584964      -0.75897743      -0.24420591
C       -1.04788498      -0.55841237      -0.16447961
C       -1.72209591       0.27711754       0.86608068
C       -1.58304850       1.00868689      -0.41684032
C        0.21529547       0.24259291      -1.29189938
H        2.89817172       0.31271723       1.57592454
H        2.55183142       0.70771535      -0.12903397
H        3.02080122      -0.95247625       0.33106940
H        0.67708736      -1.78323635      -0.53599271
H       -1.65362829      -1.29304409      -0.67383660
H       -2.70810760      -0.06879413       1.14852589
H       -1.10215396       0.61087542       1.68783424
H       -2.43379421       1.01929580      -1.08515244
H       -1.00198192       1.91198351      -0.41412503
H       -0.11882594      -0.25524817      -2.20949194
17
Frame=2 idx=009549 GeodesicLength=0.09235701477089958 rxn_smarts="[C:1]([O:2][C@@:3]1([H:11])[C@@:4]2([H:12])[C:5]([H:13])([H:14])[C:6]([H:15])([H:16])[C@@:7]12[H:17])([H:8])([H:9])[H:10]>>[C:1]([O:2][C@@:3]([C:4]1([H:12])[C:5]([H:13])([H:14])[C:6]1([H:15])[H:16])([C:7][H:17])[H:11])([H:8])([H:9])[H:10]"
C        2.46216601      -0.05183061       0.64497549
O        1.11331852      -0.35855880       0.90761117
C        0.42443372      -0.76442456      -0.24171796
C       -1.05139354      -0.56951891      -0.16739368
C       -1.72053121       0.27308661       0.86222913
C       -1.56842096       1.01356127      -0.41590912
C        0.20068762       0.23137748      -1.29170817
H        2.89411071       0.32313781       1.57179970
H        2.54369800       0.71377787      -0.13337274
H        3.01935164      -0.94402773       0.32934885
H        0.68141851      -1.78762297      -0.53173308
H       -1.65692681      -1.30873718      -0.67033209
H       -2.71316052      -0.06066070       1.13687881
H       -1.10503445       0.59559839       1.69191924
H       -2.42125837       1.04435250      -1.08135821
H       -0.98372911       1.91538447      -0.39646310
H       -0.11872974      -0.26489492      -2.21477425
17
Frame=3 idx=009549 GeodesicLength=0.13868913246346978 rxn_smarts="[C:1]([O:2][C@@:3]1([H:11])[C@@:4]2([H:12])[C:5]([H:13])([H:14])[C:6]([H:15])([H:16])[C@@:7]12[H:17])([H:8])([H:9])[H:10]>>[C:1]([O:2][C@@:3]([C:4]1([H:12])[C:5]([H:13])([H:14])[C:6]1([H:15])[H:16])([C:7][H:17])[H:11])([H:8])([H:9])[H:10]"
C        2.45782285      -0.04465398       0.64217470
O        1.11038515      -0.35533510       0.90726856
C        0.42293454      -0.76984017      -0.23926603
C       -1.05497794      -0.58060866      -0.17031723
C       -1.71900227       0.26911133       0.85830455
C       -1.55363656       1.01836507      -0.41488863
C        0.18609822       0.22003507      -1.29153635
H        2.88986720       0.33352654       1.56765408
H        2.53531030       0.72002528      -0.13762595
H        3.01779407      -0.93539274       0.32739803
H        0.68566118      -1.79193438      -0.52752711
H       -1.66014688      -1.32472097      -0.66644650
H       -2.71804662      -0.05235389       1.12510729
H       -1.10814600       0.58031788       1.69585485
H       -2.40820539       1.06950063      -1.07729731
H       -0.96508990       1.91824819      -0.37884223
H       -0.11862195      -0.27429010      -2.22001472
17
Frame=4 idx=009549 GeodesicLength=0.18510123798857897 rxn_smarts="[C:1]([O:2][C@@:3]1([H:11])[C@@:4]2([H:12])[C:5]([H:13])([H:14])[C:6]([H:15])([H:16])[C@@:7]12[H:17])([H:8])([H:9])[H:10]>>[C:1]([O:2][C@@:3]([C:4]1([H:12])[C:5]([H:13])([H:14])[C:6]1([H:15])[H:16])([C:7][H:17])[H:11])([H:8])([H:9])[H:10]"
C        2.45333932      -0.03745301       0.63933391
O        1.10734276      -0.35213902       0.90688146
C        0.42135924      -0.77517474      -0.23685223
C       -1.05863149      -0.59166795      -0.17324013
C       -1.71750914       0.26520235       0.85430482
C       -1.53876136       1.02307583      -0.41379779
C        0.17151544       0.20865043      -1.29136057
H        2.88547512       0.34385577       1.56349592
H        2.52675619       0.72636402      -0.14183182
H        3.01610686      -0.92667425       0.32529496
H        0.68983170      -1.79611264      -0.52341160
H       -1.66324311      -1.34100823      -0.66216543
H       -2.72273829      -0.04391096       1.11325258
H       -1.11147556       0.56509641       1.69960125
H       -2.39470488       1.09464214      -1.07297350
H       -0.94617854       1.92059305      -0.36133175
H       -0.11848424      -0.28333921      -2.22520007
17
Frame=5 idx=009549 GeodesicLength=0.23163640878513822 rxn_smarts="[C:1]([O:2][C@@:3]1([H:11])[C@@:4]2([H:12])[C:5]([H:13])([H:14])[C:6]([H:15])([H:16])[C@@:7]12[H:17])([H:8])([H:9])[H:10]>>[C:1]([O:2][C@@:3]([C:4]1([H:12])[C:5]([H:13])([H:14])[C:6]1([H:15])[H:16])([C:7][H:17])[H:11])([H:8])([H:9])[H:10]"
C        2.44870242      -0.03020488       0.63643763
O        1.10419235      -0.34900758       0.90644445
C        0.41970751      -0.78046337      -0.23447857
C       -1.06236159      -0.60271829      -0.17615959
C       -1.71606975       0.26135273       0.85023661
C       -1.52375430       1.02771256      -0.41262748
C        0.15693663       0.19718419      -1.29118929
H        2.88090996       0.35417255       1.55930155
H        2.51798666       0.73282704      -0.14599836
H        3.01431219      -0.91782439       0.32301407
H        0.69393687      -1.80019708      -0.51937655
H       -1.66622566      -1.35760018      -0.65746693
H       -2.72727652      -0.03531772       1.10128376
H       -1.11505751       0.54989777       1.70319927
H       -2.38069272       1.11984430      -1.06839970
H       -0.92693035       1.92242455      -0.34387840
H       -0.11831619      -0.29208220      -2.23034247
17
Frame=6 idx=009549 GeodesicLength=0.2783126279421597 rxn_smarts="[C:1]([O:2][C@@:3]1([H:11])[C@@:4]2([H:12])[C:5]([H:13])([H:14])[C:6]([H:15])([H:16])[C@@:7]12[H:17])([H:8])([H:9])[H:10]>>[C:1]([O:2][C@@:3]([C:4]1([H:12])[C:5]([H:13])([H:14])[C:6]1([H:15])[H:16])([C:7][H:17])[H:11])([H:8])([H:9])[H:10]"
C        2.44387634      -0.02286742       0.63347913
O        1.10092587      -0.34598833       0.90596863
C        0.41796481      -0.78574819      -0.23213923
C       -1.06617710      -0.61377406      -0.17907261
C       -1.71467368       0.25756832       0.84608547
C       -1.50855280       1.03227146      -0.41136300
C        0.14235729       0.18558414      -1.29103628
H        2.87614293       0.36447553       1.55508306
H        2.50889752       0.73952815      -0.15007100
H        3.01240901      -0.90874439       0.32045043
H        0.69795181      -1.80423565      -0.51540422
H       -1.66912080      -1.37450205      -0.65234642
H       -2.73166281      -0.02651659       1.08916180
H       -1.11888753       0.53467687       1.70663195
H       -2.36608619       1.14515433      -1.06354653
H       -0.90723385       1.92370244      -0.32644559
H       -0.11813083      -0.30058458      -2.23543560
17
Frame=7 idx=009549 GeodesicLength=0.3252004102314875 rxn_smarts="[C:1]([O:2][C@@:3]1([H:11])[C@@:4]2([H:12])[C:5]([H:13])([H:14])[C:6]([H:15])([H:16])[C@@:7]12[H:17])([H:8])([H:9])[H:10]>>[C:1]([O:2][C@@:3]([C:4]1([H:12])[C:5]([H:13])([H:14])[C:6]1([H:15])[H:16])([C:7][H:17])[H:11])([H:8])([H:9])[H:10]"
C        2.43882592      -0.01539949       0.63044583
O        1.09753715      -0.34313679       0.90546008
C        0.41611952      -0.79107667      -0.22983359
C       -1.07009192      -0.62485986      -0.18196897
C       -1.71332136       0.25384772       0.84185452
C       -1.49308651       1.03676229      -0.41000241
C        0.12776824       0.17378902      -1.29090664
H        2.87115033       0.37476470       1.55084469
H        2.49937717       0.74657947      -0.15400083
H        3.01040203      -0.89933040       0.31749345
H        0.70186227      -1.80828131      -0.51148423
H       -1.67194540      -1.39170861      -0.64676057
H       -2.73592281      -0.01747457       1.07684429
H       -1.12297639       0.51939473       1.70994348
H       -2.35077749       1.17063739      -1.05844813
H       -0.88698044       1.92440306      -0.30898293
H       -0.11794033      -0.30891066      -2.24049803
17
Frame=8 idx=009549 GeodesicLength=0.3723033887817521 rxn_smarts="[C:1]([O:2][C@@:3]1([H:11])[C@@:4]2([H:12])[C:5]([H:13])([H:14])[C:6]([H:15])([H:16])[C@@:7]12[H:17])([H:8])([H:9])[H:10]>>[C:1]([O:2][C@@:3]([C:4]1([H:12])[C:5]([H:13])([H:14])[C:6]1([H:15])[H:16])([C:7][H:17])[H:11])([H:8])([H:9])[H:10]"
C        2.43351190      -0.00776845       0.62733411
O        1.09402106      -0.34052587       0.90493163
C        0.41415898      -0.79649247      -0.22755225
C       -1.07411317      -0.63598439      -0.18485393
C       -1.71199814       0.25020734       0.83751475
C       -1.47729685       1.04116944      -0.40852974
C        0.11317351       0.16176549      -1.29081189
H        2.86589956       0.38500055       1.54660322
H        2.48929852       0.75410570      -0.15769932
H        3.00829464      -0.88947293       0.31400950
H        0.70564764      -1.81237470      -0.50759261
H       -1.67470714      -1.40924723      -0.64069707
H       -2.74004815      -0.00810133       1.06429220
H       -1.12729691       0.50402307       1.71306626
H       -2.33470805       1.19631395      -1.05304655
H       -0.86608440       1.92449396      -0.29148446
H       -0.11775302      -0.31711213      -2.24548386
17
Frame=9 idx=009549 GeodesicLength=0.41964830818815024 rxn_smarts="[C:1]([O:2][C@@:3]1([H:11])[C@@:4]2([H:12])[C:5]([H:13])([H:14])[C:6]([H:15])([H:16])[C@@:7]12[H:17])([H:8])([H:9])[H:10]>>[C:1]([O:2][C@@:3]([C:4]1([H:12])[C:5]([H:13])([H:14])[C:6]1([H:15])[H:16])([C:7][H:17])[H:11])([H:8])([H:9])[H:10]"
C        2.42796247      -0.00001985       0.62414923
O        1.09038695      -0.33809550       0.90436511
C        0.41210083      -0.80193878      -0.22531804
C       -1.07823267      -0.64714522      -0.18770966
C       -1.71071184       0.24663854       0.83308556
C       -1.46124749       1.04548244      -0.40696739
C        0.09854072       0.14957540      -1.29070891
H        2.86040232       0.39524872       1.54232660
H        2.47878028       0.76192589      -0.16127476
H        3.00606449      -0.87929741       0.31017734
H        0.70934529      -1.81644455      -0.50379396
H       -1.67738154      -1.42707139      -0.63411897
H       -2.74401016       0.00150538       1.05153576
H       -1.13188418       0.48862608       1.71604068
H       -2.31789731       1.22212510      -1.04739334
H       -0.84466247       1.92396406      -0.27396258
H       -0.11755570      -0.32507892      -2.25043268
17
Frame=10 idx=009549 GeodesicLength=0.4672574661473452 rxn_smarts="[C:1]([O:2][C@@:3]1([H:11])[C@@:4]2([H:12])[C:5]([H:13])([H:14])[C:6]([H:15])([H:16])[C@@:7]12[H:17])([H:8])([H:9])[H:10]>>[C:1]([O:2][C@@:3]([C:4]1([H:12])[C:5]([H:13])([H:14])[C:6]1([H:15])[H:16])([C:7][H:17])[H:11])([H:8])([H:9])[H:10]"
C        2.42213926       0.00788649       0.62088586
O        1.08662694      -0.33592081       0.90378749
C        0.40992860      -0.80746871      -0.22311918
C       -1.08246160      -0.65835618      -0.19053101
C       -1.70945319       0.24315889       0.82855961
C       -1.44486868       1.04969385      -0.40530398
C        0.08387932       0.13718716      -1.29062611
H        2.85463230       0.40547452       1.53804427
H        2.46769619       0.77019245      -0.16464101
H        3.00371380      -0.86869305       0.30583800
H        0.71292568      -1.82055382      -0.50006900
H       -1.67998517      -1.44523726      -0.62703720
H       -2.74782085       0.01142961       1.03855190
H       -1.13672879       0.47318014       1.71884499
H       -2.30026129       1.24809309      -1.04144548
H       -0.82260908       1.92279798      -0.25642945
H       -0.11735342      -0.33286438      -2.25530970
17
Frame=11 idx=009549 GeodesicLength=0.5151961482079512 rxn_smarts="[C:1]([O:2][C@@:3]1([H:11])[C@@:4]2([H:12])[C:5]([H:13])([H:14])[C:6]([H:15])([H:16])[C@@:7]12[H:17])([H:8])([H:9])[H:10]>>[C:1]([O:2][C@@:3]([C:4]1([H:12])[C:5]([H:13])([H:14])[C:6]1([H:15])[H:16])([C:7][H:17])[H:11])([H:8])([H:9])[H:10]"
C        2.41600584       0.01597843       0.61753123
O        1.08274239      -0.33406748       0.90319842
C        0.40763681      -0.81312876      -0.22096305
C       -1.08681119      -0.66964047      -0.19332510
C       -1.70821356       0.23976872       0.82391436
C       -1.42809396       1.05380446      -0.40353833
C        0.06918416       0.12455259      -1.29055389
H        2.84856102       0.41567613       1.53375153
H        2.45593377       0.77898640      -0.16775143
H        3.00124159      -0.85756781       0.30089998
H        0.71638153      -1.82475030      -0.49641757
H       -1.68251075      -1.46368360      -0.61933419
H       -2.75148666       0.02171192       1.02527437
H       -1.14182735       0.45765503       1.72147332
H       -2.28173459       1.27425675      -1.03524325
H       -0.79987619       1.92096951      -0.23878678
H       -0.11713285      -0.34052151      -2.26012962
17
Frame=12 idx=009549 GeodesicLength=0.5634522428631203 rxn_smarts="[C:1]([O:2][C@@:3]1([H:11])[C@@:4]2([H:12])[C:5]([H:13])([H:14])[C:6]([H:15])([H:16])[C@@:7]12[H:17])([H:8])([H:9])[H:10]>>[C:1]([O:2][C@@:3]([C:4]1([H:12])[C:5]([H:13])([H:14])[C:6]1([H:15])[H:16])([C:7][H:17])[H:11])([H:8])([H:9])[H:10]"
C        2.40957791       0.02422315       0.61409812
O        1.07873931      -0.33250657       0.90260597
C        0.40523292      -0.81887832      -0.21885018
C       -1.09127307      -0.68098954      -0.19606675
C       -1.70699345       0.23648158       0.81916062
C       -1.41098215       1.05778270      -0.40168933
C        0.05443887       0.11173504      -1.29046950
H        2.84221459       0.42582527       1.52945560
H        2.44354544       0.78823686      -0.17061917
H        2.99862630      -0.84598623       0.29541659
H        0.71972859      -1.82898014      -0.49287594
H       -1.68494554      -1.48243577      -0.61105273
H       -2.75496396       0.03232193       1.01175739
H       -1.14718800       0.44213310       1.72390627
H       -2.26233193       1.30052779      -1.02876684
H       -0.77653994       1.91846611      -0.22113747
H       -0.11688591      -0.34795698      -2.26487264
17
Frame=13 idx=009549 GeodesicLength=0.6120071331606625 rxn_smarts="[C:1]([O:2][C@@:3]1([H:11])[C@@:4]2([H:12])[C:5]([H:13])([H:14])[C:6]([H:15])([H:16])[C@@:7]12[H:17])([H:8])([H:9])[H:10]>>[C:1]([O:2][C@@:3]([C:4]1([H:12])[C:5]([H:13])([H:14])[C:6]1([H:15])[H:16])([C:7][H:17])[H:11])([H:8])([H:9])[H:10]"
C        2.40287939       0.03257854       0.61059841
O        1.07462917      -0.33121453       0.90201186
C        0.40272856      -0.82468172      -0.21678810
C       -1.09583800      -0.69239565      -0.19874571
C       -1.70578731       0.23330916       0.81429790
C       -1.39358937       1.06161003      -0.39978130
C        0.03963392       0.09879770      -1.29034901
H        2.83562510       0.43588528       1.52516320
H        2.43059747       0.79786270      -0.17325881
H        2.99585352      -0.83402472       0.28944481
H        0.72298315      -1.83319824      -0.48948183
H       -1.68726183      -1.50147311      -0.60216950
H       -2.75822464       0.04322157       0.99803329
H       -1.15279744       0.42669504       1.72611746
H       -2.24211797       1.32679871      -1.02203633
H       -0.75272914       1.91531288      -0.20353238
H       -0.11658457      -0.35508364      -2.26952398
17
Frame=14 idx=009549 GeodesicLength=0.6608418641469438 rxn_smarts="[C:1]([O:2][C@@:3]1([H:11])[C@@:4]2([H:12])[C:5]([H:13])([H:14])[C:6]([H:15])([H:16])[C@@:7]12[H:17])([H:8])([H:9])[H:10]>>[C:1]([O:2][C@@:3]([C:4]1([H:12])[C:5]([H:13])([H:14])[C:6]1([H:15])[H:16])([C:7][H:17])[H:11])([H:8])([H:9])[H:10]"
C        2.39593365       0.04100571       0.60704351
O        1.07042348      -0.33017027       0.90141826
C        0.40013385      -0.83050756      -0.21478290
C       -1.10049737      -0.70385295      -0.20135056
C       -1.70458997       0.23026081       0.80932843
C       -1.37596863       1.06527046      -0.39783728
C        0.02475996       0.08579691      -1.29017215
H        2.82882455       0.44582131       1.52088122
H        2.41715157       0.80779069      -0.17568213
H        2.99291173      -0.82175323       0.28303623
H        0.72615802      -1.83736553      -0.48626795
H       -1.68943224      -1.52077244      -0.59267122
H       -2.76124494       0.05437284       0.98413471
H       -1.15864075       0.41141503       1.72808749
H       -2.22115704       1.35297009      -1.01507493
H       -0.72856230       1.91153899      -0.18602337
H       -0.11620356      -0.36182085      -2.27406736
17
Frame=15 idx=009549 GeodesicLength=0.7099358101566382 rxn_smarts="[C:1]([O:2][C@@:3]1([H:11])[C@@:4]2([H:12])[C:5]([H:13])([H:14])[C:6]([H:15])([H:16])[C@@:7]12[H:17])([H:8])([H:9])[H:10]>>[C:1]([O:2][C@@:3]([C:4]1([H:12])[C:5]([H:13])([H:14])[C:6]1([H:15])[H:16])([C:7][H:17])[H:11])([H:8])([H:9])[H:10]"
C        2.38876379       0.04946847       0.60344415
O        1.06613340      -0.32935341       0.90082676
C        0.39745823      -0.83632784      -0.21283970
C       -1.10524267      -0.71535711      -0.20386957
C       -1.70339638       0.22734347       0.80425516
C       -1.35817077       1.06875027      -0.39587955
C        0.00980866       0.07278176      -1.28992078
H        2.82184474       0.45559962       1.51661616
H        2.40326675       0.81795399      -0.17789889
H        2.98979189      -0.80923654       0.27623814
H        0.72926398      -1.84144760      -0.48326217
H       -1.69143257      -1.54030458      -0.58255061
H       -2.76400492       0.06573716       0.97009332
H       -1.16470128       0.39636180       1.72980111
H       -2.19951480       1.37894867      -1.00790779
H       -0.70415032       1.90717625      -0.16865966
H       -0.11571775      -0.36809438      -2.27848608
17
Frame=16 idx=009549 GeodesicLength=0.7592668419671195 rxn_smarts="[C:1]([O:2][C@@:3]1([H:11])[C@@:4]2([H:12])[C:5]([H:13])([H:14])[C:6]([H:15])([H:16])[C@@:7]12[H:17])([H:8])([H:9])[H:10]>>[C:1]([O:2][C@@:3]([C:4]1([H:12])[C:5]([H:13])([H:14])[C:6]1([H:15])[H:16])([C:7][H:17])[H:11])([H:8])([H:9])[H:10]"
C        2.38139340       0.05793346       0.59981056
O        1.06177043      -0.32874457       0.90023886
C        0.39471037      -0.84211788      -0.21096258
C       -1.11006578      -0.72690501      -0.20629083
C       -1.70220156       0.22456214       0.79908189
C       -1.34024433       1.07203785      -0.39392942
C       -0.00522770       0.05979496      -1.28957905
H        2.81471836       0.46518821       1.51237449
H        2.38899980       0.82829231      -0.17991702
H        2.98648803      -0.79653462       0.26909390
H        0.73230948      -1.84541512      -0.48048747
H       -1.69324368      -1.56003610      -0.57180797
H       -2.76648834       0.07727605       0.95593978
H       -1.17096084       0.38159875       1.73124703
H       -2.17725819       1.40464645      -1.00056173
H       -0.67959701       1.90225886      -0.15148782
H       -0.11510246      -0.37383574      -2.28276263
