11
Frame=0 idx=005095 GeodesicLength=0.0 rxn_smarts="[N:1]#[C:2][C:3]([C@@:4]1([H:9])[C:5]([H:10])([H:11])[O:6]1)([H:7])[H:8]>>[H:7][H:9].[N:1]#[C:2]/[C:3](=[C:4]1\[C:5]([H:10])([H:11])[O:6]1)[H:8]"
N        2.79560231       0.89562131      -0.32940774
C        1.92948024       0.13308622      -0.35662542
C        0.85870072      -0.78310599      -0.35346531
C       -0.43579193      -0.30693759       0.00256029
C       -1.10070316       0.97296701       0.06024445
O       -1.61587621      -0.16664516      -0.66919759
H       -0.03387059      -1.09449187       0.96167258
H        0.94392526      -1.73565825      -0.85567624
H       -0.96405985      -0.94104475       1.16566980
H       -1.67716398       1.25804430       0.93228037
H       -0.70024282       1.76816473      -0.55805522
11
Frame=1 idx=005095 GeodesicLength=0.09650827651715413 rxn_smarts="[N:1]#[C:2][C:3]([C@@:4]1([H:9])[C:5]([H:10])([H:11])[O:6]1)([H:7])[H:8]>>[H:7][H:9].[N:1]#[C:2]/[C:3](=[C:4]1\[C:5]([H:10])([H:11])[O:6]1)[H:8]"
N        2.80221274       0.88865095      -0.32291308
C        1.93430880       0.12827962      -0.34455116
C        0.85626857      -0.78243652      -0.34693565
C       -0.43539575      -0.30001232       0.00917415
C       -1.10511383       0.97735109       0.05150847
O       -1.61475842      -0.17163228      -0.66700089
H       -0.01650277      -1.11294891       0.98471454
H        0.92838731      -1.71383989      -0.89004655
H       -0.95854377      -0.94959702       1.17928679
H       -1.68165691       1.26763769       0.92197761
H       -0.70920599       1.76854760      -0.57521424
11
Frame=2 idx=005095 GeodesicLength=0.19282448847146466 rxn_smarts="[N:1]#[C:2][C:3]([C@@:4]1([H:9])[C:5]([H:10])([H:11])[O:6]1)([H:7])[H:8]>>[H:7][H:9].[N:1]#[C:2]/[C:3](=[C:4]1\[C:5]([H:10])([H:11])[O:6]1)[H:8]"
N        2.80862655       0.88131220      -0.31600335
C        1.93879768       0.12330231      -0.33265702
C        0.85345086      -0.78187598      -0.34075724
C       -0.43526348      -0.29278028       0.01531601
C       -1.10962495       0.98191626       0.04253422
O       -1.61413994      -0.17632303      -0.66464280
H        0.00152516      -1.13278809       1.00736270
H        0.91300509      -1.69085209      -0.92286387
H       -0.95225772      -0.95827714       1.19277813
H       -1.68576888       1.27747617       0.91171344
H       -0.71835037       1.76888966      -0.59278023
11
Frame=3 idx=005095 GeodesicLength=0.28904137169917854 rxn_smarts="[N:1]#[C:2][C:3]([C@@:4]1([H:9])[C:5]([H:10])([H:11])[O:6]1)([H:7])[H:8]>>[H:7][H:9].[N:1]#[C:2]/[C:3](=[C:4]1\[C:5]([H:10])([H:11])[O:6]1)[H:8]"
N        2.81486195       0.87357809      -0.30865110
C        1.94294145       0.11815879      -0.32090781
C        0.85024495      -0.78138822      -0.33485058
C       -0.43540372      -0.28518969       0.02098427
C       -1.11427965       0.98669910       0.03329075
O       -1.61404521      -0.18072143      -0.66209400
H        0.02025904      -1.15421382       1.02955866
H        0.89778141      -1.66673592      -0.95415182
H       -0.94508312      -0.96701844       1.20618367
H       -1.68952923       1.28762457       0.90145117
H       -0.72774786       1.76920697      -0.61081321
11
Frame=4 idx=005095 GeodesicLength=0.38533464691131714 rxn_smarts="[N:1]#[C:2][C:3]([C@@:4]1([H:9])[C:5]([H:10])([H:11])[O:6]1)([H:7])[H:8]>>[H:7][H:9].[N:1]#[C:2]/[C:3](=[C:4]1\[C:5]([H:10])([H:11])[O:6]1)[H:8]"
N        2.82093819       0.86546054      -0.30083024
C        1.94672623       0.11287104      -0.30927536
C        0.84663398      -0.78094035      -0.32916762
C       -0.43582985      -0.27718431       0.02616156
C       -1.11912053       0.99174209       0.02375239
O       -1.61451019      -0.18480971      -0.65935177
H        0.03976907      -1.17742518       1.05126477
H        0.88272954      -1.64162528      -0.98389995
H       -0.93691758      -0.97576455       1.21952899
H       -1.69296967       1.29814032       0.89116944
H       -0.73744919       1.76953538      -0.62935221
11
Frame=5 idx=005095 GeodesicLength=0.4817349247243166 rxn_smarts="[N:1]#[C:2][C:3]([C@@:4]1([H:9])[C:5]([H:10])([H:11])[O:6]1)([H:7])[H:8]>>[H:7][H:9].[N:1]#[C:2]/[C:3](=[C:4]1\[C:5]([H:10])([H:11])[O:6]1)[H:8]"
N        2.82684379       0.85695315      -0.29256219
C        1.95014795       0.10743889      -0.29768577
C        0.84261077      -0.78050134      -0.32363391
C       -0.43654675      -0.26870612       0.03086434
C       -1.12418197       0.99709057       0.01389199
O       -1.61554097      -0.18857437      -0.65638313
H        0.06009906      -1.20266295       1.07238268
H        0.86786396      -1.61556921      -1.01209317
H       -0.92764974      -0.98445460       1.23284639
H       -1.69613559       1.30910267       0.88081958
H       -0.74751051       1.76988333      -0.64844681
11
Frame=6 idx=005095 GeodesicLength=0.5784291828275316 rxn_smarts="[N:1]#[C:2][C:3]([C@@:4]1([H:9])[C:5]([H:10])([H:11])[O:6]1)([H:7])[H:8]>>[H:7][H:9].[N:1]#[C:2]/[C:3](=[C:4]1\[C:5]([H:10])([H:11])[O:6]1)[H:8]"
N        2.83259573       0.84806551      -0.28380874
C        1.95318853       0.10188396      -0.28609441
C        0.83814472      -0.78004365      -0.31820648
C       -0.43757213      -0.25968370       0.03506519
C       -1.12951792       1.00279465       0.00367472
O       -1.61717854      -0.19199251      -0.65317106
H        0.08132504      -1.23018083       1.09284378
H        0.85319414      -1.58869138      -1.03868293
H       -0.91713370      -0.99302125       1.24616079
H       -1.69904657       1.32057788       0.87037288
H       -0.75799930       1.77029132      -0.66815375
11
Frame=7 idx=005095 GeodesicLength=0.6753274654260328 rxn_smarts="[N:1]#[C:2][C:3]([C@@:4]1([H:9])[C:5]([H:10])([H:11])[O:6]1)([H:7])[H:8]>>[H:7][H:9].[N:1]#[C:2]/[C:3](=[C:4]1\[C:5]([H:10])([H:11])[O:6]1)[H:8]"
N        2.83818620       0.83868473      -0.27446446
C        1.95582554       0.09621142      -0.27439592
C        0.83321111      -0.77952417      -0.31280719
C       -0.43891916      -0.25000450       0.03876097
C       -1.13520860       1.00892377      -0.00696004
O       -1.61946550      -0.19506749      -0.64957744
H        0.10347646      -1.26034244       1.11238772
H        0.83874799      -1.56099102      -1.06361323
H       -0.90504055      -1.00134143       1.25952634
H       -1.70171596       1.33270611       0.85976111
H       -0.76909753       1.77074502      -0.68861786
11
Frame=8 idx=005095 GeodesicLength=0.7722794586376768 rxn_smarts="[N:1]#[C:2][C:3]([C@@:4]1([H:9])[C:5]([H:10])([H:11])[O:6]1)([H:7])[H:8]>>[H:7][H:9].[N:1]#[C:2]/[C:3](=[C:4]1\[C:5]([H:10])([H:11])[O:6]1)[H:8]"
N        2.84366748       0.82875674      -0.26444493
C        1.95804711       0.09044900      -0.26255211
C        0.82779048      -0.77890173      -0.30734796
C       -0.44059856      -0.23956106       0.04196125
C       -1.14133298       1.01554371      -0.01805165
O       -1.62241847      -0.19777413      -0.64549020
H        0.12655215      -1.29339031       1.13082565
H        0.82453046      -1.53259454      -1.08680707
H       -0.89109356      -1.00937349       1.27291371
H       -1.70417125       1.34559813       0.84891073
H       -0.78097285       1.77124769      -0.70991742
11
Frame=9 idx=005095 GeodesicLength=0.8688117452333508 rxn_smarts="[N:1]#[C:2][C:3]([C@@:4]1([H:9])[C:5]([H:10])([H:11])[O:6]1)([H:7])[H:8]>>[H:7][H:9].[N:1]#[C:2]/[C:3](=[C:4]1\[C:5]([H:10])([H:11])[O:6]1)[H:8]"
N        2.84908716       0.81818176      -0.25297783
C        1.95977575       0.08461626      -0.25040490
C        0.82178410      -0.77817868      -0.30184022
C       -0.44261495      -0.22831561       0.04463657
C       -1.14797327       1.02262550      -0.02974817
O       -1.62632287      -0.20027679      -0.64053570
H        0.15053691      -1.32963856       1.14773471
H        0.81034356      -1.50336746      -1.10872564
H       -0.87451092      -1.01669257       1.28662109
H       -1.70622377       1.35954723       0.83776781
H       -0.79388170       1.77149892      -0.73252771
11
Frame=10 idx=005095 GeodesicLength=0.9653932350644585 rxn_smarts="[N:1]#[C:2][C:3]([C@@:4]1([H:9])[C:5]([H:10])([H:11])[O:6]1)([H:7])[H:8]>>[H:7][H:9].[N:1]#[C:2]/[C:3](=[C:4]1\[C:5]([H:10])([H:11])[O:6]1)[H:8]"
N        2.85443580       0.80702106      -0.24071227
C        1.96105125       0.07870921      -0.23801156
C        0.81522963      -0.77730309      -0.29610241
C       -0.44497029      -0.21614640       0.04683803
C       -1.15514857       1.03027738      -0.04196955
O       -1.63094589      -0.20238591      -0.63497811
H        0.17550976      -1.36909859       1.16325196
H        0.79634633      -1.47361738      -1.12880993
H       -0.85564704      -1.02367574       1.30033318
H       -1.70813775       1.37443854       0.82628208
H       -0.80772323       1.77178092      -0.75612141
11
Frame=11 idx=005095 GeodesicLength=1.0617529517968292 rxn_smarts="[N:1]#[C:2][C:3]([C@@:4]1([H:9])[C:5]([H:10])([H:11])[O:6]1)([H:7])[H:8]>>[H:7][H:9].[N:1]#[C:2]/[C:3](=[C:4]1\[C:5]([H:10])([H:11])[O:6]1)[H:8]"
N        2.85971385       0.79514333      -0.22747552
C        1.96184353       0.07273776      -0.22531285
C        0.80809169      -0.77624312      -0.29002439
C       -0.44767224      -0.20293713       0.04857027
C       -1.16294236       1.03854606      -0.05476396
O       -1.63630824      -0.20408067      -0.62864629
H        0.20142471      -1.41188884       1.17713268
H        0.78251955      -1.44339407      -1.14699333
H       -0.83405909      -1.03031621       1.31396741
H       -1.70993244       1.39041721       0.81437312
H       -0.82267895       1.77201569      -0.78082715
11
Frame=12 idx=005095 GeodesicLength=1.1579561116750643 rxn_smarts="[N:1]#[C:2][C:3]([C@@:4]1([H:9])[C:5]([H:10])([H:11])[O:6]1)([H:7])[H:8]>>[H:7][H:9].[N:1]#[C:2]/[C:3](=[C:4]1\[C:5]([H:10])([H:11])[O:6]1)[H:8]"
N        2.86489107       0.78259815      -0.21338267
C        1.96213695       0.06670171      -0.21228087
C        0.80034861      -0.77498162      -0.28348743
C       -0.45071956      -0.18862986       0.04988169
C       -1.17136240       1.04746699      -0.06812481
O       -1.64236366      -0.20529230      -0.62155917
H        0.22833562      -1.45795564       1.18936806
H        0.76885129      -1.41286720      -1.16315367
H       -0.80972446      -1.03679225       1.32735458
H       -1.71168162       1.40753825       0.80198262
H       -0.83871184       1.77221378      -0.80659833
11
Frame=13 idx=005095 GeodesicLength=1.2541194160542994 rxn_smarts="[N:1]#[C:2][C:3]([C@@:4]1([H:9])[C:5]([H:10])([H:11])[O:6]1)([H:7])[H:8]>>[H:7][H:9].[N:1]#[C:2]/[C:3](=[C:4]1\[C:5]([H:10])([H:11])[O:6]1)[H:8]"
N        2.86991765       0.76943713      -0.19854964
C        1.96191351       0.06062671      -0.19891858
C        0.79197047      -0.77350032      -0.27638455
C       -0.45411392      -0.17318072       0.05080203
C       -1.18040289       1.05707239      -0.08203456
O       -1.64907127      -0.20594669      -0.61379606
H        0.25633521      -1.50715519       1.20000356
H        0.75532429      -1.38227971      -1.17715773
H       -0.78267128      -1.04331984       1.34030619
H       -1.71346259       1.42582117       0.78908855
H       -0.85573916       1.77242508      -0.83335921
11
Frame=14 idx=005095 GeodesicLength=1.3501703989994678 rxn_smarts="[N:1]#[C:2][C:3]([C@@:4]1([H:9])[C:5]([H:10])([H:11])[O:6]1)([H:7])[H:8]>>[H:7][H:9].[N:1]#[C:2]/[C:3](=[C:4]1\[C:5]([H:10])([H:11])[O:6]1)[H:8]"
N        2.87474068       0.75572281      -0.18316111
C        1.96116650       0.05452913      -0.18521923
C        0.78294743      -0.77177954      -0.26857201
C       -0.45785535      -0.15656512       0.05144665
C       -1.19003799       1.06738341      -0.09646491
O       -1.65633179      -0.20594964      -0.60535415
H        0.28550101      -1.55925873       1.20904230
H        0.74191490      -1.35181549      -1.18886133
H       -0.75303031      -1.05021822       1.35255629
H       -1.71534466       1.44532540       0.77560138
H       -0.87367042       1.77262600      -0.86101387
11
Frame=15 idx=005095 GeodesicLength=1.4461840144542382 rxn_smarts="[N:1]#[C:2][C:3]([C@@:4]1([H:9])[C:5]([H:10])([H:11])[O:6]1)([H:7])[H:8]>>[H:7][H:9].[N:1]#[C:2]/[C:3](=[C:4]1\[C:5]([H:10])([H:11])[O:6]1)[H:8]"
N        2.87927415       0.74157826      -0.16743692
C        1.95988152       0.04843834      -0.17120396
C        0.77326497      -0.76980556      -0.25993341
C       -0.46194580      -0.13879758       0.05191127
C       -1.20020425       1.07840846      -0.11136909
O       -1.66405909      -0.20520520      -0.59633051
H        0.31598749      -1.61395737       1.21659043
H        0.72858890      -1.32172737      -1.19814385
H       -0.72108542      -1.05782910       1.36385540
H       -1.71739138       1.46605929       0.76148253
H       -0.89231109       1.77283783      -0.88942189
11
Frame=16 idx=005095 GeodesicLength=1.542183343223034 rxn_smarts="[N:1]#[C:2][C:3]([C@@:4]1([H:9])[C:5]([H:10])([H:11])[O:6]1)([H:7])[H:8]>>[H:7][H:9].[N:1]#[C:2]/[C:3](=[C:4]1\[C:5]([H:10])([H:11])[O:6]1)[H:8]"
N        2.88342464       0.72714543      -0.15160261
C        1.95804502       0.04238212      -0.15688995
C        0.76290837      -0.76757133      -0.25034746
C       -0.46639167      -0.11991810       0.05231371
C       -1.21081388       1.09014656      -0.12669859
O       -1.67216306      -0.20362166      -0.58678964
H        0.34797158      -1.67090316       1.22273752
H        0.71530455      -1.29223619      -1.20490594
H       -0.68719964      -1.06651752       1.37395153
H       -1.71963552       1.48804257       0.74667909
H       -0.91145039       1.77305128      -0.91844765
