12
Frame=0 idx=003819 GeodesicLength=0.0 rxn_smarts="[C:1]([C@@:2]1([H:10])[N:3]([H:11])[C@:4]1([C:5]#[N:6])[H:12])([H:7])([H:8])[H:9]>>[C:1]([C@@:2]([N:3]([C:4][H:12])[H:11])([C:5]#[N:6])[H:10])([H:7])([H:8])[H:9]"
C       -1.08918237       0.87169894      -0.29794641
C       -0.18459165      -0.15999016       0.35085586
N       -0.08088155      -1.39795409      -0.41723701
C        1.30465959      -1.30135619      -0.16054245
C        1.25760737       0.49661036       0.37443731
N        1.97210028       1.36442232       0.65422947
H       -0.74014536       1.12555292      -1.29904411
H       -2.09636378       0.45676035      -0.36234247
H       -1.10026529       1.78027688       0.30210646
H       -0.44422563      -0.37935257       1.38339148
H       -0.25044420      -1.16951306      -1.39252737
H        1.45173254      -1.68715570       0.86461927
12
Frame=1 idx=003819 GeodesicLength=0.06039386737856074 rxn_smarts="[C:1]([C@@:2]1([H:10])[N:3]([H:11])[C@:4]1([C:5]#[N:6])[H:12])([H:7])([H:8])[H:9]>>[C:1]([C@@:2]([N:3]([C:4][H:12])[H:11])([C:5]#[N:6])[H:10])([H:7])([H:8])[H:9]"
C       -1.09588418       0.87060710      -0.29099310
C       -0.18503966      -0.16100039       0.34834887
N       -0.07637301      -1.39069148      -0.43177270
C        1.29861945      -1.31545784      -0.13467151
C        1.27051183       0.50398664       0.35876058
N        1.98794888       1.37415211       0.62128913
H       -0.74785153       1.13515475      -1.28971738
H       -2.10135383       0.45207152      -0.35792445
H       -1.11233682       1.77466653       0.31591041
H       -0.44725749      -0.38509210       1.37938018
H       -0.21913346      -1.15535729      -1.40959193
H        1.42814982      -1.70303955       0.89098190
12
Frame=2 idx=003819 GeodesicLength=0.12077568765201162 rxn_smarts="[C:1]([C@@:2]1([H:10])[N:3]([H:11])[C@:4]1([C:5]#[N:6])[H:12])([H:7])([H:8])[H:9]>>[C:1]([C@@:2]([N:3]([C:4][H:12])[H:11])([C:5]#[N:6])[H:10])([H:7])([H:8])[H:9]"
C       -1.10244373       0.86944382      -0.28406468
C       -0.18577696      -0.16205602       0.34628701
N       -0.07122720      -1.38324504      -0.44589666
C        1.29191417      -1.32850876      -0.10927762
C        1.28341106       0.51120575       0.34334798
N        2.00374490       1.38361523       0.58787636
H       -0.75505227       1.14441749      -1.28024103
H       -2.10619321       0.44738790      -0.35389586
H       -1.12423174       1.76896380       0.32956526
H       -0.45100671      -0.39109386       1.37562024
H       -0.18755370      -1.14126283      -1.42547061
H        1.40441540      -1.71886749       0.91614959
12
Frame=3 idx=003819 GeodesicLength=0.18114733079937972 rxn_smarts="[C:1]([C@@:2]1([H:10])[N:3]([H:11])[C@:4]1([C:5]#[N:6])[H:12])([H:7])([H:8])[H:9]>>[C:1]([C@@:2]([N:3]([C:4][H:12])[H:11])([C:5]#[N:6])[H:10])([H:7])([H:8])[H:9]"
C       -1.10886346       0.86820061      -0.27715723
C       -0.18678927      -0.16314981       0.34467093
N       -0.06545311      -1.37556874      -0.45958033
C        1.28458948      -1.34054711      -0.08432660
C        1.29631153       0.51828489       0.32824188
N        2.01948862       1.39281064       0.55382933
H       -0.76173638       1.15337312      -1.27061133
H       -2.11085569       0.44269198      -0.35028346
H       -1.13602135       1.76312798       0.34311837
H       -0.45547816      -0.39736914       1.37210263
H       -0.15570351      -1.12714049      -1.44017736
H        1.38051128      -1.73471393       0.94017317
12
Frame=4 idx=003819 GeodesicLength=0.2414829070803976 rxn_smarts="[C:1]([C@@:2]1([H:10])[N:3]([H:11])[C@:4]1([C:5]#[N:6])[H:12])([H:7])([H:8])[H:9]>>[C:1]([C@@:2]([N:3]([C:4][H:12])[H:11])([C:5]#[N:6])[H:10])([H:7])([H:8])[H:9]"
C       -1.11512455       0.86689734      -0.27028383
C       -0.18806834      -0.16427573       0.34348623
N       -0.05910259      -1.36770556      -0.47275996
C        1.27672281      -1.35157463      -0.05989155
C        1.30920272       0.52529583       0.31340575
N        2.03510924       1.40177823       0.51935543
H       -0.76789399       1.16201368      -1.26083552
H       -2.11534855       0.43802286      -0.34704342
H       -1.14764702       1.75721208       0.35648754
H       -0.46066143      -0.40392004       1.36879059
H       -0.12371783      -1.11314374      -1.45368008
H        1.35652953      -1.75060032       0.96296882
12
Frame=5 idx=003819 GeodesicLength=0.30189812569696145 rxn_smarts="[C:1]([C@@:2]1([H:10])[N:3]([H:11])[C@:4]1([C:5]#[N:6])[H:12])([H:7])([H:8])[H:9]>>[C:1]([C@@:2]([N:3]([C:4][H:12])[H:11])([C:5]#[N:6])[H:10])([H:7])([H:8])[H:9]"
C       -1.12126671       0.86554486      -0.26344479
C       -0.18961397      -0.16543185       0.34274676
N       -0.05215777      -1.35964213      -0.48541503
C        1.26836840      -1.36163476      -0.03592541
C        1.32212620       0.53224997       0.29894013
N        2.05069192       1.41053373       0.48424937
H       -0.77354076       1.17039130      -1.25092328
H       -2.11969463       0.43337656      -0.34423528
H       -1.15922370       1.75121213       0.36973309
H       -0.46657858      -0.41076725       1.36568839
H       -0.09157201      -1.09919801      -1.46598953
H        1.33246160      -1.76663456       0.98457556
12
Frame=6 idx=003819 GeodesicLength=0.36240088681437105 rxn_smarts="[C:1]([C@@:2]1([H:10])[N:3]([H:11])[C@:4]1([C:5]#[N:6])[H:12])([H:7])([H:8])[H:9]>>[C:1]([C@@:2]([N:3]([C:4][H:12])[H:11])([C:5]#[N:6])[H:10])([H:7])([H:8])[H:9]"
C       -1.12730679       0.86416539      -0.25662392
C       -0.19141391      -0.16660294       0.34245659
N       -0.04462147      -1.35135709      -0.49755299
C        1.25960507      -1.37080602      -0.01236328
C        1.33508474       0.53917986       0.28492089
N        2.06619318       1.41907663       0.44824975
H       -0.77865506       1.17859917      -1.24081150
H       -2.12389925       0.42875117      -0.34190293
H       -1.17083119       1.74512837       0.38291394
H       -0.47323705      -0.41793670       1.36278012
H       -0.05921678      -1.08526152      -1.47716591
H        1.30829852      -1.78293634       1.00509924
12
Frame=7 idx=003819 GeodesicLength=0.42294249417794233 rxn_smarts="[C:1]([C@@:2]1([H:10])[N:3]([H:11])[C@:4]1([C:5]#[N:6])[H:12])([H:7])([H:8])[H:9]>>[C:1]([C@@:2]([N:3]([C:4][H:12])[H:11])([C:5]#[N:6])[H:10])([H:7])([H:8])[H:9]"
C       -1.13320308       0.86276998      -0.24976573
C       -0.19344223      -0.16783531       0.34258802
N       -0.03652212      -1.34289401      -0.50919697
C        1.25051714      -1.37912216       0.01095718
C        1.34809275       0.54608829       0.27138977
N        2.08152167       1.42751528       0.41106031
H       -0.78318102       1.18675538      -1.23041390
H       -2.12792945       0.42419365      -0.34003871
H       -1.18245871       1.73887211       0.39615846
H       -0.48069816      -0.42549882       1.35997304
H       -0.02655168      -1.07139065      -1.48725334
H        1.28385488      -1.79945374       1.02454188
12
Frame=8 idx=003819 GeodesicLength=0.4835117958122976 rxn_smarts="[C:1]([C@@:2]1([H:10])[N:3]([H:11])[C@:4]1([C:5]#[N:6])[H:12])([H:7])([H:8])[H:9]>>[C:1]([C@@:2]([N:3]([C:4][H:12])[H:11])([C:5]#[N:6])[H:10])([H:7])([H:8])[H:9]"
C       -1.13896814       0.86130474      -0.24294515
C       -0.19573272      -0.16905374       0.34317913
N       -0.02784055      -1.33408787      -0.52017456
C        1.24100826      -1.38648952       0.03381833
C        1.36111093       0.55306357       0.25832782
N        2.09674357       1.43557001       0.37294337
H       -0.78712370       1.19468278      -1.21983482
H       -2.13172208       0.41961132      -0.33865385
H       -1.19416327       1.73246033       0.40927834
H       -0.48890967      -0.43338937       1.35732955
H        0.00622777      -1.05741125      -1.49608649
H        1.25936959      -1.81626099       1.04281834
12
Frame=9 idx=003819 GeodesicLength=0.5442108470066876 rxn_smarts="[C:1]([C@@:2]1([H:10])[N:3]([H:11])[C@:4]1([C:5]#[N:6])[H:12])([H:7])([H:8])[H:9]>>[C:1]([C@@:2]([N:3]([C:4][H:12])[H:11])([C:5]#[N:6])[H:10])([H:7])([H:8])[H:9]"
C       -1.14464167       0.85986126      -0.23612332
C       -0.19824422      -0.17029166       0.34421505
N       -0.01858526      -1.32511499      -0.53055794
C        1.23126547      -1.39304529       0.05636625
C        1.37421645       0.56013458       0.24580683
N        2.11180646       1.44343121       0.33371872
H       -0.79052536       1.20257713      -1.20901142
H       -2.13538751       0.41512028      -0.33777414
H       -1.20598337       1.72596601       0.42239188
H       -0.49787546      -0.44165065       1.35480464
H        0.03921522      -1.04356115      -1.50378886
H        1.23473926      -1.83342673       1.05995230
12
Frame=10 idx=003819 GeodesicLength=0.6050491351261026 rxn_smarts="[C:1]([C@@:2]1([H:10])[N:3]([H:11])[C@:4]1([C:5]#[N:6])[H:12])([H:7])([H:8])[H:9]>>[C:1]([C@@:2]([N:3]([C:4][H:12])[H:11])([C:5]#[N:6])[H:10])([H:7])([H:8])[H:9]"
C       -1.15021603       0.85841084      -0.22927763
C       -0.20099205      -0.17155012       0.34564077
N       -0.00881793      -1.31586642      -0.54034737
C        1.22131558      -1.39887134       0.07879965
C        1.38743870       0.56731282       0.23387329
N        2.12671563       1.45095944       0.29307008
H       -0.79336644       1.21049970      -1.19784919
H       -2.13886414       0.41067699      -0.33743725
H       -1.21797212       1.71927556       0.43559006
H       -0.50769169      -0.45036188       1.35224459
H        0.07243028      -1.02961084      -1.51041796
H        1.21002019      -1.85087473       1.07611095
12
Frame=11 idx=003819 GeodesicLength=0.6659572876789251 rxn_smarts="[C:1]([C@@:2]1([H:10])[N:3]([H:11])[C@:4]1([C:5]#[N:6])[H:12])([H:7])([H:8])[H:9]>>[C:1]([C@@:2]([N:3]([C:4][H:12])[H:11])([C:5]#[N:6])[H:10])([H:7])([H:8])[H:9]"
C       -1.15569643       0.85697853      -0.22243037
C       -0.20393418      -0.17278149       0.34756798
N        0.00156740      -1.30637391      -0.54947307
C        1.21115960      -1.40384119       0.10089007
C        1.40074672       0.57469556       0.22254255
N        2.14133196       1.45805437       0.25114383
H       -0.79561569       1.21838875      -1.18643083
H       -2.14218240       0.40630665      -0.33764067
H       -1.23016504       1.71247924       0.44876245
H       -0.51823699      -0.45942521       1.34985916
H        0.10588751      -1.01572198      -1.51585666
H        1.18513754      -1.86875933       1.09106555
12
Frame=12 idx=003819 GeodesicLength=0.7270285112319752 rxn_smarts="[C:1]([C@@:2]1([H:10])[N:3]([H:11])[C@:4]1([C:5]#[N:6])[H:12])([H:7])([H:8])[H:9]>>[C:1]([C@@:2]([N:3]([C:4][H:12])[H:11])([C:5]#[N:6])[H:10])([H:7])([H:8])[H:9]"
C       -1.16107259       0.85555535      -0.21557435
C       -0.20712888      -0.17403551       0.34984904
N        0.01240342      -1.29658383      -0.55787148
C        1.20081791      -1.40812073       0.12289882
C        1.41417688       0.58229277       0.21177399
N        2.15574752       1.46466134       0.20787574
H       -0.79732309       1.22635123      -1.17465036
H       -2.14524578       0.40200726      -0.33840078
H       -1.24255594       1.70549224       0.46197063
H       -0.52962063      -0.46898596       1.34729273
H        0.13945626      -1.00176717      -1.52014552
H        1.16034490      -1.88686698       1.10498153
12
Frame=13 idx=003819 GeodesicLength=0.7881916976868146 rxn_smarts="[C:1]([C@@:2]1([H:10])[N:3]([H:11])[C@:4]1([C:5]#[N:6])[H:12])([H:7])([H:8])[H:9]>>[C:1]([C@@:2]([N:3]([C:4][H:12])[H:11])([C:5]#[N:6])[H:10])([H:7])([H:8])[H:9]"
C       -1.16637439       0.85416653      -0.20872828
C       -0.21052015      -0.17525447       0.35255422
N        0.02375530      -1.28658261      -0.56552043
C        1.19036775      -1.41162158       0.14464725
C        1.42777500       0.59015396       0.20144483
N        2.16985755       1.47068105       0.16363033
H       -0.79853274       1.23429055      -1.16261963
H       -2.14815210       0.39783461      -0.33965510
H       -1.25515110       1.69840541       0.47512971
H       -0.54173120      -0.47888872       1.34472069
H        0.17311210      -0.98795351      -1.52326488
H        1.13559397      -1.90523120       1.11766129
12
Frame=14 idx=003819 GeodesicLength=0.8494274935188981 rxn_smarts="[C:1]([C@@:2]1([H:10])[N:3]([H:11])[C@:4]1([C:5]#[N:6])[H:12])([H:7])([H:8])[H:9]>>[C:1]([C@@:2]([N:3]([C:4][H:12])[H:11])([C:5]#[N:6])[H:10])([H:7])([H:8])[H:9]"
C       -1.17159949       0.85281303      -0.20192238
C       -0.21409818      -0.17642911       0.35564103
N        0.03552316      -1.27636395      -0.57238880
C        1.17980934      -1.41438770       0.16612223
C        1.44154443       0.59832718       0.19136794
N        2.18366116       1.47603857       0.11878955
H       -0.79931830       1.24217223      -1.15039919
H       -2.15089547       0.39379084      -0.34135404
H       -1.26789511       1.69125378       0.48815637
H       -0.55449152      -0.48912779       1.34209294
H        0.20667630      -0.97432054      -1.52525215
H        1.11108368      -1.92376654       1.12914652
12
Frame=15 idx=003819 GeodesicLength=0.9106815348588997 rxn_smarts="[C:1]([C@@:2]1([H:10])[N:3]([H:11])[C@:4]1([C:5]#[N:6])[H:12])([H:7])([H:8])[H:9]>>[C:1]([C@@:2]([N:3]([C:4][H:12])[H:11])([C:5]#[N:6])[H:10])([H:7])([H:8])[H:9]"
C       -1.17674359       0.85150013      -0.19517153
C       -0.21785575      -0.17755283       0.35906939
N        0.04762889      -1.26598032      -0.57844592
C        1.16917980      -1.41644201       0.18729765
C        1.45550193       0.60681640       0.18134763
N        2.19714071       1.48073690       0.07375786
H       -0.79974190       1.24994247      -1.13803771
H       -2.15347954       0.38990660      -0.34342267
H       -1.28072190       1.68408261       0.50098709
H       -0.56784562      -0.49965578       1.33935500
H        0.23999610      -0.96098541      -1.52614672
H        1.08694087      -1.94236877       1.13940991
12
Frame=16 idx=003819 GeodesicLength=0.9719291214602402 rxn_smarts="[C:1]([C@@:2]1([H:10])[N:3]([H:11])[C@:4]1([C:5]#[N:6])[H:12])([H:7])([H:8])[H:9]>>[C:1]([C@@:2]([N:3]([C:4][H:12])[H:11])([C:5]#[N:6])[H:10])([H:7])([H:8])[H:9]"
C       -1.18181390       0.85023758      -0.18849439
C       -0.22179073      -0.17862710       0.36280595
N        0.05999172      -1.25547949      -0.58367307
C        1.15850408      -1.41782185       0.20815139
C        1.46966802       0.61560457       0.17118629
N        2.21031596       1.48481706       0.02892903
H       -0.79986954       1.25756061      -1.12560154
H       -2.15592971       0.38621679      -0.34579042
H       -1.29357625       1.67694245       0.51356172
H       -0.58173589      -0.51044303       1.33647491
H        0.27292632      -0.94805449      -1.52600707
H        1.06330992      -1.96095309       1.14845719
