11
Frame=0 idx=001108 GeodesicLength=0.0 rxn_smarts="[C:1](/[C:2](=[N:3]/[H:10])[O:4][C:5](=[O:6])[H:11])([H:7])([H:8])[H:9]>>[C:1]([C:2]([N:3]([C:5](=[O:6])[H:11])[H:10])=[O:4])([H:7])([H:8])[H:9]"
C       -1.31954407      -0.42362127       0.98449251
C       -0.15218822      -0.13483754       0.10982285
N        0.09045482       0.89362889      -0.62838818
O        0.82407484      -0.96519282       0.00195826
C        1.65809361       0.10077690      -0.99987513
O        1.89036265      -0.23982887      -2.10462138
H       -0.97489387      -0.57620833       2.00738151
H       -1.78875918      -1.34927537       0.65050216
H       -2.04815577       0.38388042       0.95887261
H       -0.49380838       1.71159748      -0.69920078
H        2.31436358       0.59908046      -0.28094445
11
Frame=1 idx=001108 GeodesicLength=0.05575328643563605 rxn_smarts="[C:1](/[C:2](=[N:3]/[H:10])[O:4][C:5](=[O:6])[H:11])([H:7])([H:8])[H:9]>>[C:1]([C:2]([N:3]([C:5](=[O:6])[H:11])[H:10])=[O:4])([H:7])([H:8])[H:9]"
C       -1.32747694      -0.43116288       0.97999435
C       -0.12617517      -0.11069628       0.16454825
N        0.10353313       0.91706872      -0.57947127
O        0.85515679      -0.93688769       0.06256301
C        1.65804634       0.10344225      -1.00846740
O        1.84032991      -0.28853911      -2.10634871
H       -1.01952330      -0.62963131       2.00673133
H       -1.79113113      -1.33755490       0.59005461
H       -2.04964425       0.38249799       0.96504621
H       -0.50067597       1.70807633      -0.72786194
H        2.35756058       0.62338688      -0.34678843
11
Frame=2 idx=001108 GeodesicLength=0.11165440052331692 rxn_smarts="[C:1](/[C:2](=[N:3]/[H:10])[O:4][C:5](=[O:6])[H:11])([H:7])([H:8])[H:9]>>[C:1]([C:2]([N:3]([C:5](=[O:6])[H:11])[H:10])=[O:4])([H:7])([H:8])[H:9]"
C       -1.33353518      -0.43850598       0.97403091
C       -0.10223624      -0.08572627       0.21873905
N        0.11578128       0.94232337      -0.52949056
O        0.88537742      -0.90640729       0.12312884
C        1.65482377       0.10604364      -1.01551485
O        1.78817599      -0.33768723      -2.10145824
H       -1.06100257      -0.68308891       2.00080580
H       -1.78854689      -1.32373551       0.52909775
H       -2.05096556       0.37958910       0.97179165
H       -0.50240962       1.70181410      -0.75656792
H        2.39453761       0.64538099      -0.41456242
11
Frame=3 idx=001108 GeodesicLength=0.1675089177936854 rxn_smarts="[C:1](/[C:2](=[N:3]/[H:10])[O:4][C:5](=[O:6])[H:11])([H:7])([H:8])[H:9]>>[C:1]([C:2]([N:3]([C:5](=[O:6])[H:11])[H:10])=[O:4])([H:7])([H:8])[H:9]"
C       -1.33788380      -0.44536229       0.96688829
C       -0.08134138      -0.06117523       0.27014735
N        0.12580074       0.96730850      -0.48211500
O        0.91369933      -0.87510566       0.18195332
C        1.64920335       0.10798282      -1.02080079
O        1.73738657      -0.38638387      -2.09021087
H       -1.09753424      -0.73498705       1.98995742
H       -1.78204974      -1.30787610       0.46945411
H       -2.05194359       0.37572516       0.97925072
H       -0.49926888       1.69408690      -0.78188297
H        2.42393162       0.66578684      -0.48264159
11
Frame=4 idx=001108 GeodesicLength=0.22408495441361975 rxn_smarts="[C:1](/[C:2](=[N:3]/[H:10])[O:4][C:5](=[O:6])[H:11])([H:7])([H:8])[H:9]>>[C:1]([C:2]([N:3]([C:5](=[O:6])[H:11])[H:10])=[O:4])([H:7])([H:8])[H:9]"
C       -1.34062865      -0.45204976       0.95885033
C       -0.06355977      -0.03740131       0.31838001
N        0.13288706       0.99135334      -0.43812081
O        0.94030432      -0.84278261       0.23887780
C        1.64149504       0.10979502      -1.02477226
O        1.68831047      -0.43479379      -2.07308979
H       -1.12928816      -0.78512749       1.97501750
H       -1.77240970      -1.29083025       0.41239692
H       -2.05308571       0.37014012       0.98673761
H       -0.49052097       1.68767090      -0.80370094
H        2.44649606       0.68402581      -0.55057638
11
Frame=5 idx=001108 GeodesicLength=0.2808910793432353 rxn_smarts="[C:1](/[C:2](=[N:3]/[H:10])[O:4][C:5](=[O:6])[H:11])([H:7])([H:8])[H:9]>>[C:1]([C:2]([N:3]([C:5](=[O:6])[H:11])[H:10])=[O:4])([H:7])([H:8])[H:9]"
C       -1.34215709      -0.45834051       0.95019119
C       -0.04872580      -0.01467091       0.36311029
N        0.13730039       1.01381256      -0.39835072
O        0.96457773      -0.81061953       0.29301776
C        1.63273837       0.11071795      -1.02737909
O        1.64310486      -0.48247382      -2.05097222
H       -1.15602911      -0.83329618       1.95659948
H       -1.76077745      -1.27244170       0.35811107
H       -2.05404659       0.36370119       0.99497242
H       -0.47842982       1.68280810      -0.82148279
H        2.46244452       0.70080284      -0.61781738
11
Frame=6 idx=001108 GeodesicLength=0.3380156074278821 rxn_smarts="[C:1](/[C:2](=[N:3]/[H:10])[O:4][C:5](=[O:6])[H:11])([H:7])([H:8])[H:9]>>[C:1]([C:2]([N:3]([C:5](=[O:6])[H:11])[H:10])=[O:4])([H:7])([H:8])[H:9]"
C       -1.34270449      -0.46433725       0.94124990
C       -0.03658759       0.00680512       0.40437680
N        0.13936478       1.03488732      -0.36216329
O        0.98653046      -0.77901258       0.34405706
C        1.62346842       0.11115014      -1.02881970
O        1.60172041      -0.52848076      -2.02490604
H       -1.17811834      -0.87920425       1.93561251
H       -1.74803875      -1.25320448       0.30723352
H       -2.05509973       0.35626711       1.00357803
H       -0.46372978       1.67972417      -0.83640955
H        2.47319461       0.71540545      -0.68380924
11
Frame=7 idx=001108 GeodesicLength=0.3954317150530061 rxn_smarts="[C:1](/[C:2](=[N:3]/[H:10])[O:4][C:5](=[O:6])[H:11])([H:7])([H:8])[H:9]>>[C:1]([C:2]([N:3]([C:5](=[O:6])[H:11])[H:10])=[O:4])([H:7])([H:8])[H:9]"
C       -1.34244948      -0.47001952       0.93233741
C       -0.02682002       0.02704595       0.44251894
N        0.13929365       1.05484314      -0.32883553
O        1.00607485      -0.74831981       0.39170876
C        1.61399645       0.11158035      -1.02931809
O        1.56423598      -0.57207624      -1.99580854
H       -1.19599581      -0.92312737       1.91267706
H       -1.73494794      -1.23301911       0.25972161
H       -2.05607999       0.34806982       1.01300554
H       -0.44704173       1.67751676      -0.85011640
H        2.47973404       0.72750603      -0.74789076
11
Frame=8 idx=001108 GeodesicLength=0.4529896230015454 rxn_smarts="[C:1](/[C:2](=[N:3]/[H:10])[O:4][C:5](=[O:6])[H:11])([H:7])([H:8])[H:9]>>[C:1]([C:2]([N:3]([C:5](=[O:6])[H:11])[H:10])=[O:4])([H:7])([H:8])[H:9]"
C       -1.34164315      -0.47532104       0.92332840
C       -0.01894208       0.04630653       0.47824838
N        0.13765062       1.07369455      -0.29795091
O        1.02359677      -0.71841408       0.43695604
C        1.60462939       0.11143537      -1.02883010
O        1.53080463      -0.61411335      -1.96387535
H       -1.21037864      -0.96592254       1.88755766
H       -1.72196750      -1.21117546       0.21443687
H       -2.05670838       0.33945271       1.02389712
H       -0.42894054       1.67569473      -0.86247699
H        2.48189887       0.73836258      -0.81129111
11
Frame=9 idx=001108 GeodesicLength=0.5109748540512755 rxn_smarts="[C:1](/[C:2](=[N:3]/[H:10])[O:4][C:5](=[O:6])[H:11])([H:7])([H:8])[H:9]>>[C:1]([C:2]([N:3]([C:5](=[O:6])[H:11])[H:10])=[O:4])([H:7])([H:8])[H:9]"
C       -1.34023858      -0.48059398       0.91401989
C       -0.01266233       0.06497412       0.51212722
N        0.13465834       1.09198886      -0.26877336
O        1.03962292      -0.68856776       0.48050818
C        1.59508386       0.11102346      -1.02772324
O        1.49931611      -0.65444227      -1.92957020
H       -1.22183270      -1.00662850       1.86099001
H       -1.70803848      -1.18940998       0.17174439
H       -2.05796103       0.32936533       1.03384713
H       -0.40886255       1.67586921      -0.87266490
H        2.48091445       0.74642151      -0.87450511
11
Frame=10 idx=001108 GeodesicLength=0.5690617847058476 rxn_smarts="[C:1](/[C:2](=[N:3]/[H:10])[O:4][C:5](=[O:6])[H:11])([H:7])([H:8])[H:9]>>[C:1]([C:2]([N:3]([C:5](=[O:6])[H:11])[H:10])=[O:4])([H:7])([H:8])[H:9]"
C       -1.33848102      -0.48558196       0.90459989
C       -0.00784385       0.08280437       0.54416558
N        0.13054968       1.10947799      -0.24125227
O        1.05393772      -0.65948479       0.52215725
C        1.58590401       0.11014588      -1.02583535
O        1.47119605      -0.69305661      -1.89326788
H       -1.23055187      -1.04590511       1.83287080
H       -1.69431611      -1.16663008       0.13115382
H       -2.05915803       0.31866624       1.04439507
H       -0.38753405       1.67657186      -0.88152220
H        2.47629747       0.75299219      -0.93746472
11
Frame=11 idx=001108 GeodesicLength=0.6273089758800041 rxn_smarts="[C:1](/[C:2](=[N:3]/[H:10])[O:4][C:5](=[O:6])[H:11])([H:7])([H:8])[H:9]>>[C:1]([C:2]([N:3]([C:5](=[O:6])[H:11])[H:10])=[O:4])([H:7])([H:8])[H:9]"
C       -1.33643168      -0.49040847       0.89522623
C       -0.00440925       0.09981750       0.57439377
N        0.12511831       1.12629350      -0.21529442
O        1.06663490      -0.63118152       0.56180139
C        1.57709546       0.10925750      -1.02347389
O        1.44600213      -0.72948196      -1.85563596
H       -1.23669572      -1.08345538       1.80378137
H       -1.68091167      -1.14348880       0.09301953
H       -2.06053307       0.30715684       1.05514109
H       -0.36476315       1.67810722      -0.88945888
H        2.46889374       0.75738355      -0.99950022
11
Frame=12 idx=001108 GeodesicLength=0.6858930085373021 rxn_smarts="[C:1](/[C:2](=[N:3]/[H:10])[O:4][C:5](=[O:6])[H:11])([H:7])([H:8])[H:9]>>[C:1]([C:2]([N:3]([C:5](=[O:6])[H:11])[H:10])=[O:4])([H:7])([H:8])[H:9]"
C       -1.33401076      -0.49515832       0.88561912
C       -0.00212258       0.11645536       0.60339930
N        0.11866966       1.14267059      -0.19056478
O        1.07814390      -0.60289106       0.60044960
C        1.56859699       0.10812204      -1.02051255
O        1.42274159      -0.76431232      -1.81627826
H       -1.24056688      -1.11971310       1.77338992
H       -1.66734927      -1.11995213       0.05659738
H       -2.06220136       0.29453229       1.06559296
H       -0.34057114       1.68085821      -0.89589220
H        2.45866985       0.75938843      -1.06180051
11
Frame=13 idx=001108 GeodesicLength=0.7445203605321873 rxn_smarts="[C:1](/[C:2](=[N:3]/[H:10])[O:4][C:5](=[O:6])[H:11])([H:7])([H:8])[H:9]>>[C:1]([C:2]([N:3]([C:5](=[O:6])[H:11])[H:10])=[O:4])([H:7])([H:8])[H:9]"
C       -1.33139364      -0.49974420       0.87594187
C       -0.00094188       0.13243229       0.63102407
N        0.11124623       1.15846233      -0.16703171
O        1.08828300      -0.57520738       0.63771310
C        1.56068359       0.10683535      -1.01706681
O        1.40217102      -0.79728630      -1.77578105
H       -1.24235941      -1.15443996       1.74208061
H       -1.65418487      -1.09601532       0.02209002
H       -2.06398781       0.28113548       1.07607105
H       -0.31500886       1.68431060      -0.90114397
H        2.44549263       0.75951711      -1.12389718
11
Frame=14 idx=001108 GeodesicLength=0.8033635281749166 rxn_smarts="[C:1](/[C:2](=[N:3]/[H:10])[O:4][C:5](=[O:6])[H:11])([H:7])([H:8])[H:9]>>[C:1]([C:2]([N:3]([C:5](=[O:6])[H:11])[H:10])=[O:4])([H:7])([H:8])[H:9]"
C       -1.32851000      -0.50425434       0.86607380
C       -0.00075744       0.14802655       0.65756058
N        0.10287866       1.17386902      -0.14453083
O        1.09729596      -0.54767633       0.67404117
C        1.55327102       0.10542908      -1.01317777
O        1.38359627      -0.82856524      -1.73409685
H       -1.24215434      -1.18778981       1.70980803
H       -1.64112220      -1.07187334      -0.01081530
H       -2.06600638       0.26673624       1.08621938
H       -0.28799666       1.68881191      -0.90500749
H        2.42950512       0.75728626      -1.18607473
11
Frame=15 idx=001108 GeodesicLength=0.862569758881899 rxn_smarts="[C:1](/[C:2](=[N:3]/[H:10])[O:4][C:5](=[O:6])[H:11])([H:7])([H:8])[H:9]>>[C:1]([C:2]([N:3]([C:5](=[O:6])[H:11])[H:10])=[O:4])([H:7])([H:8])[H:9]"
C       -1.32529405      -0.50869399       0.85587787
C       -0.00148144       0.16347267       0.68327832
N        0.09369097       1.18902861      -0.12292161
O        1.10534297      -0.51991928       0.70989637
C        1.54639364       0.10381106      -1.00872954
O        1.36667357      -0.85841578      -1.69094939
H       -1.23996542      -1.22010928       1.67623379
H       -1.62803063      -1.04729847      -0.04254919
H       -2.06821553       0.25121642       1.09602079
H       -0.25952862       1.69439155      -0.90733357
H        2.41041455       0.75251649      -1.24882385
11
Frame=16 idx=001108 GeodesicLength=0.9219339950799645 rxn_smarts="[C:1](/[C:2](=[N:3]/[H:10])[O:4][C:5](=[O:6])[H:11])([H:7])([H:8])[H:9]>>[C:1]([C:2]([N:3]([C:5](=[O:6])[H:11])[H:10])=[O:4])([H:7])([H:8])[H:9]"
C       -1.32181002      -0.51310443       0.84549656
C       -0.00313481       0.17862648       0.70797488
N        0.08350468       1.20386352      -0.10232012
O        1.11231646      -0.49218359       0.74489596
C        1.54011107       0.10226658      -1.00398972
O        1.35143681      -0.88636659      -1.64698387
H       -1.23584630      -1.25098870       1.64194017
H       -1.61508850      -1.02279699      -0.07275346
H       -2.07063377       0.23463219       1.10528721
H       -0.22949697       1.70111721      -0.90819991
H        2.38864134       0.74493432      -1.31134770
