16
Frame=0 idx=004734 GeodesicLength=0.0 rxn_smarts="[C:1]([C@@:2]([O:3][H:11])([C:4]([C:5]([O:6][H:16])([H:14])[H:15])([H:12])[H:13])[H:10])([H:7])([H:8])[H:9]>>[C:1]([C@@:2]1([H:10])[O:3][C@@:4]1([C:5]([H:12])([H:14])[H:15])[H:13])([H:7])([H:8])[H:9].[O:6]([H:11])[H:16]"
C       -2.15578389       0.41965928       0.48541503
C       -0.67594600       0.07719296       0.54152384
O       -0.41716088      -1.24405284       0.69047676
C        0.04796338       0.24461902      -0.78295600
C        1.42492253       0.45984359      -0.79910331
O        2.02788453      -1.49995308       0.16495595
H       -2.61383905       0.14405972       1.43585333
H       -2.32845249       1.48553300       0.30790614
H       -2.64347127      -0.16151257      -0.30017153
H       -0.18699214       0.73806721       1.29108453
H        1.03395627      -1.51861416       0.46985539
H        0.41871991       1.38787666      -1.17907151
H       -0.39988699      -0.23798778      -1.64625888
H        1.88667497       0.97029772       0.03511052
H        2.02246892       0.25242638      -1.67677574
H        2.55894216      -1.51745516       0.96215547
16
Frame=1 idx=004734 GeodesicLength=0.08065164182587234 rxn_smarts="[C:1]([C@@:2]([O:3][H:11])([C:4]([C:5]([O:6][H:16])([H:14])[H:15])([H:12])[H:13])[H:10])([H:7])([H:8])[H:9]>>[C:1]([C@@:2]1([H:10])[O:3][C@@:4]1([C:5]([H:12])([H:14])[H:15])[H:13])([H:7])([H:8])[H:9].[O:6]([H:11])[H:16]"
C       -2.15892709       0.42257240       0.48630796
C       -0.68023763       0.08022027       0.53966709
O       -0.42172820      -1.24726719       0.66298115
C        0.04422572       0.23841754      -0.78276831
C        1.42769823       0.45187827      -0.79945490
O        2.02918014      -1.48410288       0.17994514
H       -2.61814787       0.13637307       1.43308389
H       -2.32890447       1.49055767       0.32020767
H       -2.64766726      -0.14788717      -0.30638325
H       -0.18578524       0.72641449       1.29635560
H        1.02374956      -1.51675911       0.49529898
H        0.42657596       1.38747315      -1.18282913
H       -0.40710800      -0.23743171      -1.64817763
H        1.88707501       0.96659180       0.03411293
H        2.01842466       0.24632841      -1.68275280
H        2.59157650      -1.51337902       0.95440562
16
Frame=2 idx=004734 GeodesicLength=0.16128515270676025 rxn_smarts="[C:1]([C@@:2]([O:3][H:11])([C:4]([C:5]([O:6][H:16])([H:14])[H:15])([H:12])[H:13])[H:10])([H:7])([H:8])[H:9]>>[C:1]([C@@:2]1([H:10])[O:3][C@@:4]1([C:5]([H:12])([H:14])[H:15])[H:13])([H:7])([H:8])[H:9].[O:6]([H:11])[H:16]"
C       -2.16220198       0.42510429       0.48697469
C       -0.68444398       0.08379489       0.53801666
O       -0.42550308      -1.24924135       0.63705683
C        0.04057997       0.23257274      -0.78238060
C        1.43065657       0.44403360      -0.79944150
O        2.02978807      -1.46844129       0.19521558
H       -2.62257042       0.12878333       1.43011291
H       -2.33015378       1.49485544       0.33153236
H       -2.65149487      -0.13546024      -0.31234695
H       -0.18517518       0.71598221       1.30137316
H        1.01264490      -1.51447131       0.52107099
H        0.43491582       1.38734231      -1.18645985
H       -0.41405210      -0.23672890      -1.64980623
H        1.88763279       0.96284801       0.03356701
H        2.01461030       0.24003591      -1.68817367
H        2.62476697      -1.51100965       0.94368860
16
Frame=3 idx=004734 GeodesicLength=0.24188756459757066 rxn_smarts="[C:1]([C@@:2]([O:3][H:11])([C:4]([C:5]([O:6][H:16])([H:14])[H:15])([H:12])[H:13])[H:10])([H:7])([H:8])[H:9]>>[C:1]([C@@:2]1([H:10])[O:3][C@@:4]1([C:5]([H:12])([H:14])[H:15])[H:13])([H:7])([H:8])[H:9].[O:6]([H:11])[H:16]"
C       -2.16559882       0.42729358       0.48742801
C       -0.68857216       0.08787673       0.53656063
O       -0.42854572      -1.25010704       0.61266117
C        0.03702860       0.22703501      -0.78179210
C        1.43378835       0.43632405      -0.79905166
O        2.02990154      -1.45275291       0.21103685
H       -2.62707707       0.12133908       1.42698191
H       -2.33214427       1.49850077       0.34189810
H       -2.65499787      -0.12417878      -0.31806994
H       -0.18511114       0.70669810       1.30617265
H        1.00063772      -1.51188101       0.54693019
H        0.44369621       1.38743283      -1.19000032
H       -0.42070514      -0.23595759      -1.65114191
H        1.88829891       0.95918384       0.03344429
H        2.01104095       0.23354976      -1.69301404
H        2.65835989      -1.51035642       0.92995618
16
Frame=4 idx=004734 GeodesicLength=0.32244613745746165 rxn_smarts="[C:1]([C@@:2]([O:3][H:11])([C:4]([C:5]([O:6][H:16])([H:14])[H:15])([H:12])[H:13])[H:10])([H:7])([H:8])[H:9]>>[C:1]([C@@:2]1([H:10])[O:3][C@@:4]1([C:5]([H:12])([H:14])[H:15])[H:13])([H:7])([H:8])[H:9].[O:6]([H:11])[H:16]"
C       -2.16910906       0.42918112       0.48767548
C       -0.69263330       0.09242452       0.53528920
O       -0.43092790      -1.24998975       0.58974881
C        0.03357545       0.22174847      -0.78099764
C        1.43708501       0.42876434      -0.79826244
O        2.02970295      -1.43679789       0.22770811
H       -2.63164984       0.11408948       1.42372167
H       -2.33481424       1.50156822       0.35132040
H       -2.65821560      -0.11398039      -0.32356771
H       -0.18555070       0.69848231       1.31079066
H        0.98772827      -1.50911373       0.57268731
H        0.45287205       1.38768703      -1.19349034
H       -0.42704828      -0.23520381      -1.65217925
H        1.88901681       0.95573126       0.03372052
H        2.00773594       0.22686099      -1.69723424
H        2.69223244      -1.51145218       0.91306949
16
Frame=5 idx=004734 GeodesicLength=0.4029335609075088 rxn_smarts="[C:1]([C@@:2]([O:3][H:11])([C:4]([C:5]([O:6][H:16])([H:14])[H:15])([H:12])[H:13])[H:10])([H:7])([H:8])[H:9]>>[C:1]([C@@:2]1([H:10])[O:3][C@@:4]1([C:5]([H:12])([H:14])[H:15])[H:13])([H:7])([H:8])[H:9].[O:6]([H:11])[H:16]"
C       -2.17270640       0.43080775       0.48774166
C       -0.69662770       0.09737083       0.53418075
O       -0.43273254      -1.24903895       0.56821443
C        0.03022556       0.21665188      -0.78000713
C        1.44053963       0.42136207      -0.79706576
O        2.02939595      -1.42027225       0.24560653
H       -2.63625023       0.10706201       1.42037382
H       -2.33806365       1.50413693       0.35987169
H       -2.66118491      -0.10476517      -0.32884895
H       -0.18642484       0.69119098       1.31526238
H        0.97391113      -1.50634802       0.59809296
H        0.46239991       1.38804240      -1.19698592
H       -0.43307609      -0.23452959      -1.65293603
H        1.88972566       0.95265353       0.03433254
H        2.00471589       0.21991965      -1.70080273
H        2.72615260      -1.51424405       0.89296976
16
Frame=6 idx=004734 GeodesicLength=0.4833197753247927 rxn_smarts="[C:1]([C@@:2]([O:3][H:11])([C:4]([C:5]([O:6][H:16])([H:14])[H:15])([H:12])[H:13])[H:10])([H:7])([H:8])[H:9]>>[C:1]([C@@:2]1([H:10])[O:3][C@@:4]1([C:5]([H:12])([H:14])[H:15])[H:13])([H:7])([H:8])[H:9].[O:6]([H:11])[H:16]"
C       -2.17637064       0.43221269       0.48763695
C       -0.70056095       0.10265419       0.53322364
O       -0.43404381      -1.24738771       0.54797849
C        0.02699137       0.21167798      -0.77881531
C        1.44415301       0.41412021      -0.79542661
O        2.02915041      -1.40287843       0.26513402
H       -2.64085955       0.10029452       1.41696238
H       -2.34180042       1.50627846       0.36759246
H       -2.66393366      -0.09644668      -0.33393236
H       -0.18768510       0.68469598       1.31962644
H        0.95918929      -1.50374138       0.62298826
H        0.47224694       1.38842970      -1.20053319
H       -0.43876811      -0.23400725      -1.65341691
H        1.89036679       0.95011274       0.03524147
H        2.00201460       0.21266638      -1.70365735
H        2.75990984      -1.51868139       0.86939763
16
Frame=7 idx=004734 GeodesicLength=0.563573683269093 rxn_smarts="[C:1]([C@@:2]([O:3][H:11])([C:4]([C:5]([O:6][H:16])([H:14])[H:15])([H:12])[H:13])[H:10])([H:7])([H:8])[H:9]>>[C:1]([C@@:2]1([H:10])[O:3][C@@:4]1([C:5]([H:12])([H:14])[H:15])[H:13])([H:7])([H:8])[H:9].[O:6]([H:11])[H:16]"
C       -2.18008715       0.43340093       0.48736349
C       -0.70442834       0.10825730       0.53241040
O       -0.43488267      -1.24510518       0.52901355
C        0.02389499       0.20678490      -0.77741388
C        1.44792925       0.40711911      -0.79330085
O        2.02918026      -1.38410790       0.28678217
H       -2.64544076       0.09384259       1.41353325
H       -2.34599514       1.50800827       0.37443125
H       -2.66647177      -0.08906171      -0.33879647
H       -0.18930401       0.67896025       1.32390196
H        0.94363856      -1.50134849       0.64726682
H        0.48235048       1.38879821      -1.20422944
H       -0.44407164      -0.23374045      -1.65360504
H        1.89086346       0.94839268       0.03639188
H        1.99968071       0.20509198      -1.70571429
H        2.79314377      -1.52529247       0.84196521
16
Frame=8 idx=004734 GeodesicLength=0.6435938019915114 rxn_smarts="[C:1]([C@@:2]([O:3][H:11])([C:4]([C:5]([O:6][H:16])([H:14])[H:15])([H:12])[H:13])[H:10])([H:7])([H:8])[H:9]>>[C:1]([C@@:2]1([H:10])[O:3][C@@:4]1([C:5]([H:12])([H:14])[H:15])[H:13])([H:7])([H:8])[H:9].[O:6]([H:11])[H:16]"
C       -2.18375477       0.43438731       0.48701511
C       -0.70816348       0.11402913       0.53168931
O       -0.43531297      -1.24242088       0.51104657
C        0.02095943       0.20191143      -0.77586946
C        1.45189013       0.40034002      -0.79075088
O        2.02972566      -1.36353368       0.31107790
H       -2.64985661       0.08762297       1.41018227
H       -2.35042806       1.50939882       0.38066246
H       -2.66881697      -0.08242805      -0.34341355
H       -0.19108904       0.67365487       1.32811998
H        0.92729730      -1.49952023       0.67043376
H        0.49270586       1.38909319      -1.20819024
H       -0.44903234      -0.23368442      -1.65360258
H        1.89119480       0.94773070       0.03757578
H        1.99774249       0.19701629      -1.70700445
H        2.82493855      -1.53359746       0.81102801
16
Frame=9 idx=004734 GeodesicLength=0.7233045903707938 rxn_smarts="[C:1]([C@@:2]([O:3][H:11])([C:4]([C:5]([O:6][H:16])([H:14])[H:15])([H:12])[H:13])[H:10])([H:7])([H:8])[H:9]>>[C:1]([C@@:2]1([H:10])[O:3][C@@:4]1([C:5]([H:12])([H:14])[H:15])[H:13])([H:7])([H:8])[H:9].[O:6]([H:11])[H:16]"
C       -2.18728788       0.43529549       0.48659444
C       -0.71177458       0.11974522       0.53108108
O       -0.43554256      -1.23960181       0.49391588
C        0.01825692       0.19684246      -0.77409845
C        1.45610030       0.39342030      -0.78763490
O        2.03061481      -1.34163394       0.33824241
H       -2.65418303       0.08162384       1.40677377
H       -2.35474752       1.51063361       0.38657931
H       -2.67091719      -0.07606963      -0.34796334
H       -0.19298701       0.66834499       1.33238645
H        0.91003102      -1.49864339       0.69243925
H        0.50350891       1.38906418      -1.21220742
H       -0.45359502      -0.23385087      -1.65339176
H        1.89138427       0.94775671       0.03890212
H        1.99628893       0.18804375      -1.70736276
H        2.85484964      -1.54097091       0.77574393
16
Frame=10 idx=004734 GeodesicLength=0.8027412372920252 rxn_smarts="[C:1]([C@@:2]([O:3][H:11])([C:4]([C:5]([O:6][H:16])([H:14])[H:15])([H:12])[H:13])[H:10])([H:7])([H:8])[H:9]>>[C:1]([C@@:2]1([H:10])[O:3][C@@:4]1([C:5]([H:12])([H:14])[H:15])[H:13])([H:7])([H:8])[H:9].[O:6]([H:11])[H:16]"
C       -2.19072960       0.43592503       0.48603645
C       -0.71520690       0.12562965       0.53061184
O       -0.43521995      -1.23642824       0.47794098
C        0.01585923       0.19168810      -0.77207780
C        1.46060870       0.38682155      -0.78389132
O        2.03224750      -1.31710048       0.36903445
H       -2.65835080       0.07575882       1.40336779
H       -2.35929512       1.51146003       0.39181158
H       -2.67269865      -0.07056885      -0.35238014
H       -0.19506345       0.66353083       1.33665758
H        0.89238237      -1.49805390       0.71371763
H        0.51458867       1.38881764      -1.21661469
H       -0.45757074      -0.23449603      -1.65286632
H        1.89136687       0.94929066       0.04025324
H        1.99542715       0.17846084      -1.70666460
H        2.88165472      -1.55073564       0.73506330
16
Frame=11 idx=004734 GeodesicLength=0.8819418045556675 rxn_smarts="[C:1]([C@@:2]([O:3][H:11])([C:4]([C:5]([O:6][H:16])([H:14])[H:15])([H:12])[H:13])[H:10])([H:7])([H:8])[H:9]>>[C:1]([C@@:2]1([H:10])[O:3][C@@:4]1([C:5]([H:12])([H:14])[H:15])[H:13])([H:7])([H:8])[H:9].[O:6]([H:11])[H:16]"
C       -2.19407998       0.43619127       0.48520938
C       -0.71843263       0.13174241       0.53038355
O       -0.43413008      -1.23285808       0.46352104
C        0.01393107       0.18633717      -0.76962500
C        1.46556319       0.38059562      -0.77924414
O        2.03477408      -1.28968933       0.40399233
H       -2.66245339       0.06999742       1.39981683
H       -2.36415561       1.51178485       0.39607130
H       -2.67401316      -0.06615231      -0.35681397
H       -0.19741989       0.65948921       1.34100031
H        0.87472664      -1.49732299       0.73491728
H        0.52602504       1.38823858      -1.22137863
H       -0.46067216      -0.23595059      -1.65181845
H        1.89119176       0.95248651       0.04184141
H        1.99537343       0.16828789      -1.70458643
H        2.90377167      -1.56317765       0.68671318
16
Frame=12 idx=004734 GeodesicLength=0.9608225881870854 rxn_smarts="[C:1]([C@@:2]([O:3][H:11])([C:4]([C:5]([O:6][H:16])([H:14])[H:15])([H:12])[H:13])[H:10])([H:7])([H:8])[H:9]>>[C:1]([C@@:2]1([H:10])[O:3][C@@:4]1([C:5]([H:12])([H:14])[H:15])[H:13])([H:7])([H:8])[H:9].[O:6]([H:11])[H:16]"
C       -2.19726037       0.43549309       0.48405212
C       -0.72118555       0.13855422       0.53045833
O       -0.43123318      -1.22829728       0.45140227
C        0.01280939       0.18104756      -0.76663336
C        1.47120698       0.37559204      -0.77368753
O        2.03911818      -1.25797871       0.44292289
H       -2.66611854       0.06398377       1.39632109
H       -2.37005126       1.51079968       0.39859204
H       -2.67443912      -0.06432799      -0.36096229
H       -0.20015193       0.65743331       1.34521836
H        0.85838361      -1.49470396       0.75691292
H        0.53765723       1.38761723      -1.22675714
H       -0.46230712      -0.23862937      -1.64993691
H        1.89096871       0.95827739       0.04356890
H        1.99642226       0.15851236      -1.70113145
H        2.91618072      -1.58337334       0.62965975
16
Frame=13 idx=004734 GeodesicLength=1.039744194020826 rxn_smarts="[C:1]([C@@:2]([O:3][H:11])([C:4]([C:5]([O:6][H:16])([H:14])[H:15])([H:12])[H:13])[H:10])([H:7])([H:8])[H:9]>>[C:1]([C@@:2]1([H:10])[O:3][C@@:4]1([C:5]([H:12])([H:14])[H:15])[H:13])([H:7])([H:8])[H:9].[O:6]([H:11])[H:16]"
C       -2.19979510       0.43448510       0.48288880
C       -0.72332146       0.14508306       0.53080418
O       -0.42744787      -1.22392823       0.44045713
C        0.01232272       0.17524777      -0.76328414
C        1.47746399       0.37025454      -0.76765147
O        2.04420340      -1.22739465       0.48153093
H       -2.66922630       0.05809581       1.39290943
H       -2.37530748       1.50945245       0.40062494
H       -2.67410284      -0.06311913      -0.36497879
H       -0.20249655       0.65535216       1.34960435
H        0.84248366      -1.49240112       0.77815807
H        0.55001979       1.38656730      -1.23177087
H       -0.46318488      -0.24199966      -1.64766817
H        1.89122265       0.96350601       0.04581702
H        1.99805682       0.14862213      -1.69721964
H        2.91910946      -1.59782354       0.56977824
16
Frame=14 idx=004734 GeodesicLength=1.1185997363129287 rxn_smarts="[C:1]([C@@:2]([O:3][H:11])([C:4]([C:5]([O:6][H:16])([H:14])[H:15])([H:12])[H:13])[H:10])([H:7])([H:8])[H:9]>>[C:1]([C@@:2]1([H:10])[O:3][C@@:4]1([C:5]([H:12])([H:14])[H:15])[H:13])([H:7])([H:8])[H:9].[O:6]([H:11])[H:16]"
C       -2.20153073       0.43245654       0.48225781
C       -0.72445430       0.15175305       0.53092563
O       -0.42195266      -1.21922353       0.42968916
C        0.01227713       0.16997635      -0.76034623
C        1.48416607       0.36562704      -0.76261246
O        2.05062747      -1.19773437       0.51550949
H       -2.67069915       0.05100737       1.39033484
H       -2.38067443       1.50690159       0.40313458
H       -2.67302779      -0.06351085      -0.36806565
H       -0.20391829       0.65379304       1.35349630
H        0.82800543      -1.48877250       0.79834538
H        0.56266945       1.38631261      -1.23692752
H       -0.46383530      -0.24496595      -1.64562520
H        1.89226317       0.96861559       0.04731290
H        1.99968046       0.14014968      -1.69466985
H        2.91040346      -1.61238565       0.51724082
16
Frame=15 idx=004734 GeodesicLength=1.197823308402915 rxn_smarts="[C:1]([C@@:2]([O:3][H:11])([C:4]([C:5]([O:6][H:16])([H:14])[H:15])([H:12])[H:13])[H:10])([H:7])([H:8])[H:9]>>[C:1]([C@@:2]1([H:10])[O:3][C@@:4]1([C:5]([H:12])([H:14])[H:15])[H:13])([H:7])([H:8])[H:9].[O:6]([H:11])[H:16]"
C       -2.20277642       0.43032520       0.48183497
C       -0.72513006       0.15817399       0.53107838
O       -0.41607553      -1.21473138       0.41929856
C        0.01239875       0.16454718      -0.75747309
C        1.49109935       0.36059677      -0.75791513
O        2.05726629      -1.17168628       0.54496792
H       -2.67158206       0.04406390       1.38810048
H       -2.38549673       1.50422432       0.40563693
H       -2.67164284      -0.06407717      -0.37078686
H       -0.20485185       0.65196247       1.35733531
H        0.81341465      -1.48554756       0.81778542
H        0.57579976       1.38616062      -1.24153982
H       -0.46447005      -0.24795158      -1.64361962
H        1.89392595       0.97191672       0.04916069
H        2.00117016       0.13230633      -1.69288074
H        2.89695063      -1.62028353       0.46901660
16
Frame=16 idx=004734 GeodesicLength=1.277188152391269 rxn_smarts="[C:1]([C@@:2]([O:3][H:11])([C:4]([C:5]([O:6][H:16])([H:14])[H:15])([H:12])[H:13])[H:10])([H:7])([H:8])[H:9]>>[C:1]([C@@:2]1([H:10])[O:3][C@@:4]1([C:5]([H:12])([H:14])[H:15])[H:13])([H:7])([H:8])[H:9].[O:6]([H:11])[H:16]"
C       -2.20362705       0.42778943       0.48172448
C       -0.72533050       0.16461997       0.53107458
O       -0.40954325      -1.21013420       0.40900022
C        0.01260238       0.15942184      -0.75489632
C        1.49817853       0.35578839      -0.75394116
O        2.06450099      -1.14764136       0.57004932
H       -2.67164984       0.03667073       1.38635107
H       -2.39029854       1.50105798       0.40840930
H       -2.67000999      -0.06526520      -0.37297578
H       -0.20529678       0.65024073       1.36088266
H        0.79897212      -1.48202197       0.83657783
H        0.58913796       1.38660364      -1.24597345
H       -0.46520147      -0.25058356      -1.64182691
H        1.89611599       0.97440803       0.05075856
H        2.00244168       0.12547683      -1.69216536
H        2.87900778      -1.62643128       0.42695097
