13
Frame=0 idx=000448 GeodesicLength=0.0 rxn_smarts="[O:1]([C@@:2]1([H:8])[C:3]([H:9])([H:10])[C@@:4]2([H:11])[N:5]([H:12])[C@@:6]12[H:13])[H:7]>>[O:1]([C@@:2]1([H:8])[C:3]([H:9])([H:10])[C@@:4]2([H:11])[N+:5]1([H:12])[C-:6]2[H:13])[H:7]"
O        2.12715176       0.35901022       0.69485776
C        1.27477256       0.09187506      -0.21650357
C        0.32171553      -1.04740469      -0.15017388
C       -0.98923687      -0.28921609      -0.11346301
N       -0.68999072       0.97148572       0.56558008
C       -0.94234115       0.93875319      -0.95937547
H        1.93480980      -0.13366492       1.50779515
H        1.33212171       0.68508701      -1.12379280
H        0.51277476      -1.65875480       0.74026531
H        0.44218347      -1.65557642      -1.05401112
H       -1.88152215      -0.84680329       0.16220521
H       -1.48048686       1.30052585       1.10884626
H       -1.96195178       1.28468318      -1.16222988
13
Frame=1 idx=000448 GeodesicLength=0.07872372429582439 rxn_smarts="[O:1]([C@@:2]1([H:8])[C:3]([H:9])([H:10])[C@@:4]2([H:11])[N:5]([H:12])[C@@:6]12[H:13])[H:7]>>[O:1]([C@@:2]1([H:8])[C:3]([H:9])([H:10])[C@@:4]2([H:11])[N+:5]1([H:12])[C-:6]2[H:13])[H:7]"
O        2.11470568       0.37411849       0.69200567
C        1.25045184       0.10668020      -0.21696613
C        0.31849030      -1.05498137      -0.15382963
C       -0.99511034      -0.30011679      -0.11171384
N       -0.68245162       0.95444041       0.57400570
C       -0.92682799       0.93167110      -0.94925656
H        1.91452932      -0.10466650       1.51072614
H        1.34048806       0.66897060      -1.14097734
H        0.51777750      -1.66499214       0.73526781
H        0.44095141      -1.65978181      -1.05897812
H       -1.89220163      -0.85089819       0.16003700
H       -1.46534262       1.29697462       1.11898633
H       -1.93545990       1.30258138      -1.15930702
13
Frame=2 idx=000448 GeodesicLength=0.1574701149562623 rxn_smarts="[O:1]([C@@:2]1([H:8])[C:3]([H:9])([H:10])[C@@:4]2([H:11])[N:5]([H:12])[C@@:6]12[H:13])[H:7]>>[O:1]([C@@:2]1([H:8])[C:3]([H:9])([H:10])[C@@:4]2([H:11])[N+:5]1([H:12])[C-:6]2[H:13])[H:7]"
O        2.10208054       0.38911070       0.68926644
C        1.22669335       0.12102629      -0.21801345
C        0.31547594      -1.06210812      -0.15754733
C       -1.00080509      -0.31066688      -0.11012788
N       -0.67518781       0.93784858       0.58189484
C       -0.91210136       0.92445256      -0.93953183
H        1.89458662      -0.07652239       1.51312970
H        1.34878171       0.65295795      -1.15621498
H        0.52285059      -1.67074138       0.73019464
H        0.43953986      -1.66396595      -1.06377790
H       -1.90251651      -0.85468933       0.15802840
H       -1.45008686       1.29353413       1.12893273
H       -1.90931098       1.31976385      -1.15623337
13
Frame=3 idx=000448 GeodesicLength=0.23624475041143922 rxn_smarts="[O:1]([C@@:2]1([H:8])[C:3]([H:9])([H:10])[C@@:4]2([H:11])[N:5]([H:12])[C@@:6]12[H:13])[H:7]>>[O:1]([C@@:2]1([H:8])[C:3]([H:9])([H:10])[C@@:4]2([H:11])[N+:5]1([H:12])[C-:6]2[H:13])[H:7]"
O        2.08929869       0.40398320       0.68667697
C        1.20348608       0.13491254      -0.21959741
C        0.31265679      -1.06883007      -0.16134068
C       -1.00632041      -0.32089356      -0.10867758
N       -0.66813842       0.92171044       0.58922306
C       -0.89816731       0.91708370      -0.93022466
H        1.87491363      -0.04922021       1.51509022
H        1.35698330       0.63716528      -1.16960192
H        0.52798581      -1.67606549       0.72501958
H        0.43795208      -1.66812813      -1.06845448
H       -1.91246708      -0.85818471       0.15624473
H       -1.43463842       1.29023856       1.13866324
H       -1.88354475       1.33622845      -1.15302108
13
Frame=4 idx=000448 GeodesicLength=0.31504941253436103 rxn_smarts="[O:1]([C@@:2]1([H:8])[C:3]([H:9])([H:10])[C@@:4]2([H:11])[N:5]([H:12])[C@@:6]12[H:13])[H:7]>>[O:1]([C@@:2]1([H:8])[C:3]([H:9])([H:10])[C@@:4]2([H:11])[N+:5]1([H:12])[C-:6]2[H:13])[H:7]"
O        2.07638685       0.41872978       0.68426226
C        1.18081091       0.14834825      -0.22166571
C        0.31001600      -1.07518685      -0.16521559
C       -1.01166013      -0.33082315      -0.10733335
N       -0.66125777       0.90602189       0.59598625
C       -0.88502133       0.90956020      -0.92134863
H        1.85546986      -0.02274988       1.51667760
H        1.36507708       0.62169023      -1.18124743
H        0.53317387      -1.68101818       0.71972881
H        0.43619237      -1.67226612      -1.07303891
H       -1.92206226      -0.86140150       0.15473498
H       -1.41894183       1.28710792       1.14816479
H       -1.85818361       1.35198739      -1.14970507
13
Frame=5 idx=000448 GeodesicLength=0.39386079192905066 rxn_smarts="[O:1]([C@@:2]1([H:8])[C:3]([H:9])([H:10])[C@@:4]2([H:11])[N:5]([H:12])[C@@:6]12[H:13])[H:7]>>[O:1]([C@@:2]1([H:8])[C:3]([H:9])([H:10])[C@@:4]2([H:11])[N+:5]1([H:12])[C-:6]2[H:13])[H:7]"
O        2.06337051       0.43333375       0.68204287
C        1.15865283       0.16134490      -0.22417891
C        0.30754124      -1.08120778      -0.16917853
C       -1.01682600      -0.34047502      -0.10607008
N       -0.65450868       0.89078852       0.60218096
C       -0.87266236       0.90188362      -0.91291523
H        1.83621004       0.00290147       1.51795352
H        1.37304844       0.60659779      -1.19123026
H        0.53841049      -1.68564433       0.71430571
H        0.43427006      -1.67637518      -1.07756659
H       -1.93130560      -0.86435814       0.15354575
H       -1.40294979       1.28416685       1.15742132
H       -1.83325119       1.36704355      -1.14631054
13
Frame=6 idx=000448 GeodesicLength=0.4726839683250211 rxn_smarts="[O:1]([C@@:2]1([H:8])[C:3]([H:9])([H:10])[C@@:4]2([H:11])[N:5]([H:12])[C@@:6]12[H:13])[H:7]>>[O:1]([C@@:2]1([H:8])[C:3]([H:9])([H:10])[C@@:4]2([H:11])[N+:5]1([H:12])[C-:6]2[H:13])[H:7]"
O        2.05027466       0.44778706       0.68003685
C        1.13698676       0.17392220      -0.22709148
C        0.30521681      -1.08692270      -0.17323160
C       -1.02182426      -0.34986996      -0.10486302
N       -0.64786469       0.87600202       0.60781330
C       -0.86107822       0.89405403      -0.90492471
H        1.81711471       0.02773973       1.51896915
H        1.38088808       0.59195284      -1.19965081
H        0.54368898      -1.68998194       0.70874272
H        0.43218949      -1.68045096      -1.08205637
H       -1.94020672      -0.86706760       0.15270830
H       -1.38663190       1.28142726       1.16641862
H       -1.80875368       1.38140803      -1.14287097
13
Frame=7 idx=000448 GeodesicLength=0.5515074193393098 rxn_smarts="[O:1]([C@@:2]1([H:8])[C:3]([H:9])([H:10])[C@@:4]2([H:11])[N:5]([H:12])[C@@:6]12[H:13])[H:7]>>[O:1]([C@@:2]1([H:8])[C:3]([H:9])([H:10])[C@@:4]2([H:11])[N+:5]1([H:12])[C-:6]2[H:13])[H:7]"
O        2.03712500       0.46207646       0.67825335
C        1.11578979       0.18610089      -0.23036786
C        0.30303007      -1.09235422      -0.17737607
C       -1.02666007      -0.35902575      -0.10368957
N       -0.64130467       0.86165969       0.61289435
C       -0.85025586       0.88607849      -0.89737847
H        1.79816038       0.05177772       1.51976875
H        1.38858795       0.57779454      -1.20658943
H        0.54900414      -1.69406276       0.70303311
H        0.42995800      -1.68448798      -1.08652790
H       -1.94877291      -0.86954468       0.15224734
H       -1.36996649       1.27889748       1.17514966
H       -1.78469535       1.39509014      -1.13941727
13
Frame=8 idx=000448 GeodesicLength=0.6303523357347252 rxn_smarts="[O:1]([C@@:2]1([H:8])[C:3]([H:9])([H:10])[C@@:4]2([H:11])[N:5]([H:12])[C@@:6]12[H:13])[H:7]>>[O:1]([C@@:2]1([H:8])[C:3]([H:9])([H:10])[C@@:4]2([H:11])[N+:5]1([H:12])[C-:6]2[H:13])[H:7]"
O        2.02395133       0.47620082       0.67669340
C        1.09503091       0.19790350      -0.23396694
C        0.30096153      -1.09753064      -0.18160877
C       -1.03134488      -0.36796270      -0.10252878
N       -0.63482268       0.84773699       0.61744800
C       -0.84017447       0.87796424      -0.89024911
H        1.77934803       0.07503572       1.52039741
H        1.39615353       0.56416753      -1.21216593
H        0.55434521      -1.69791611       0.69718348
H        0.42757634      -1.68848421      -1.09098364
H       -1.95701851      -0.87180349       0.15216671
H       -1.35294622       1.27656781       1.18359760
H       -1.76106013       1.40812053      -1.13598342
13
Frame=9 idx=000448 GeodesicLength=0.7091129649981046 rxn_smarts="[O:1]([C@@:2]1([H:8])[C:3]([H:9])([H:10])[C@@:4]2([H:11])[N:5]([H:12])[C@@:6]12[H:13])[H:7]>>[O:1]([C@@:2]1([H:8])[C:3]([H:9])([H:10])[C@@:4]2([H:11])[N+:5]1([H:12])[C-:6]2[H:13])[H:7]"
O        2.01074928       0.49012914       0.67538122
C        1.07470625       0.20933196      -0.23780651
C        0.29900822      -1.10246731      -0.18591498
C       -1.03587244      -0.37668496      -0.10136658
N       -0.62839552       0.83425306       0.62151629
C       -0.83078905       0.86972748      -0.88355017
H        1.76070747       0.09751572       1.52086604
H        1.40349946       0.55110001      -1.21648994
H        0.55969906      -1.70157382       0.69119147
H        0.42507747      -1.69242121      -1.09544684
H       -1.96495832      -0.87387904       0.15248073
H       -1.33558717       1.27445919       1.19178742
H       -1.73784471       1.42050978      -1.13264814
13
Frame=10 idx=000448 GeodesicLength=0.7878795350654556 rxn_smarts="[O:1]([C@@:2]1([H:8])[C:3]([H:9])([H:10])[C@@:4]2([H:11])[N:5]([H:12])[C@@:6]12[H:13])[H:7]>>[O:1]([C@@:2]1([H:8])[C:3]([H:9])([H:10])[C@@:4]2([H:11])[N+:5]1([H:12])[C-:6]2[H:13])[H:7]"
O        1.99756025       0.50387550       0.67430019
C        1.05477142       0.22042570      -0.24190217
C        0.29715025      -1.10718348      -0.19030492
C       -1.04026143      -0.38521623      -0.10018438
N       -0.62202679       0.82117280       0.62509653
C       -0.82210160       0.86137494      -0.87724924
H        1.74219497       0.11924937       1.52122506
H        1.41070156       0.53859634      -1.21961119
H        0.56507025      -1.70504531       0.68505685
H        0.42244108      -1.69630846      -1.09991601
H       -1.97259901      -0.87576673       0.15319095
H       -1.31786560       1.27254872       1.19968661
H       -1.71503535       1.43227684      -1.12938829
13
Frame=11 idx=000448 GeodesicLength=0.8666512581417697 rxn_smarts="[O:1]([C@@:2]1([H:8])[C:3]([H:9])([H:10])[C@@:4]2([H:11])[N:5]([H:12])[C@@:6]12[H:13])[H:7]>>[O:1]([C@@:2]1([H:8])[C:3]([H:9])([H:10])[C@@:4]2([H:11])[N+:5]1([H:12])[C-:6]2[H:13])[H:7]"
O        1.98439187       0.51743274       0.67344947
C        1.03519986       0.23120836      -0.24622463
C        0.29538147      -1.11169061      -0.19477364
C       -1.04451542      -0.39356819      -0.09896652
N       -0.61570676       0.80849004       0.62822152
C       -0.81407652       0.85292700      -0.87133691
H        1.72380463       0.14025432       1.52149313
H        1.41774487       0.52665271      -1.22160375
H        0.57045926      -1.70834518       0.67877999
H        0.41967413      -1.70014259      -1.10440025
H       -1.97995481      -0.87748678       0.15429789
H       -1.29978836       1.27083022       1.20730295
H       -1.69261423       1.44343795      -1.12623925
13
Frame=12 idx=000448 GeodesicLength=0.945423297304828 rxn_smarts="[O:1]([C@@:2]1([H:8])[C:3]([H:9])([H:10])[C@@:4]2([H:11])[N:5]([H:12])[C@@:6]12[H:13])[H:7]>>[O:1]([C@@:2]1([H:8])[C:3]([H:9])([H:10])[C@@:4]2([H:11])[N+:5]1([H:12])[C-:6]2[H:13])[H:7]"
O        1.97125848       0.53079810       0.67282304
C        1.01596811       0.24169992      -0.25074819
C        0.29369226      -1.11600187      -0.19931554
C       -1.04864078      -0.40175371      -0.09769915
N       -0.60943491       0.79619135       0.63092756
C       -0.80668347       0.84440211      -0.86579177
H        1.70554001       0.16055061       1.52169199
H        1.42462161       0.51527051      -1.22254955
H        0.57586184      -1.71148608       0.67236707
H        0.41678096      -1.70392111      -1.10889919
H       -1.98703931      -0.87905959       0.15579334
H       -1.28136458       1.26928893       1.21464304
H       -1.67056023       1.45402083      -1.12324263
13
Frame=13 idx=000448 GeodesicLength=1.0241890989786324 rxn_smarts="[O:1]([C@@:2]1([H:8])[C:3]([H:9])([H:10])[C@@:4]2([H:11])[N:5]([H:12])[C@@:6]12[H:13])[H:7]>>[O:1]([C@@:2]1([H:8])[C:3]([H:9])([H:10])[C@@:4]2([H:11])[N+:5]1([H:12])[C-:6]2[H:13])[H:7]"
O        1.95816594       0.54396755       0.67242076
C        0.99705753       0.25191766      -0.25545449
C        0.29207594      -1.12012659      -0.20392811
C       -1.05264040      -0.40978022      -0.09637471
N       -0.60320603       0.78426931       0.63323481
C       -0.79989596       0.83581441      -0.86060071
H        1.68739773       0.18015624       1.52183854
H        1.43132076       0.50444239      -1.22250084
H        0.58127594      -1.71447890       0.66581860
H        0.41376734      -1.70764185      -1.11342062
H       -1.99385894      -0.88049356       0.15767438
H       -1.26259991       1.26791956       1.22170903
H       -1.64885993       1.46403400      -1.12041665
13
Frame=14 idx=000448 GeodesicLength=1.1029590149709954 rxn_smarts="[O:1]([C@@:2]1([H:8])[C:3]([H:9])([H:10])[C@@:4]2([H:11])[N:5]([H:12])[C@@:6]12[H:13])[H:7]>>[O:1]([C@@:2]1([H:8])[C:3]([H:9])([H:10])[C@@:4]2([H:11])[N+:5]1([H:12])[C-:6]2[H:13])[H:7]"
O        1.94512323       0.55694251       0.67223735
C        0.97844623       0.26188097      -0.26032436
C        0.29052324      -1.12407594      -0.20860677
C       -1.05652028      -0.41765692      -0.09498488
N       -0.59702218       0.77270898       0.63517315
C       -0.79368180       0.82718006      -0.85573791
H        1.66938182       0.19909103       1.52194800
H        1.43783707       0.49416281      -1.22152798
H        0.58669746      -1.71733179       0.65914000
H        0.41063626      -1.71130400      -1.11796193
H       -2.00042461      -0.88180140       0.15992716
H       -1.24350669       1.26670874       1.22850057
H       -1.62748974       1.47349496      -1.11778241
13
Frame=15 idx=000448 GeodesicLength=1.1817344616439704 rxn_smarts="[O:1]([C@@:2]1([H:8])[C:3]([H:9])([H:10])[C@@:4]2([H:11])[N:5]([H:12])[C@@:6]12[H:13])[H:7]>>[O:1]([C@@:2]1([H:8])[C:3]([H:9])([H:10])[C@@:4]2([H:11])[N+:5]1([H:12])[C-:6]2[H:13])[H:7]"
O        1.93213833       0.56972358       0.67226661
C        0.96011585       0.27160673      -0.26534045
C        0.28902599      -1.12785954      -0.21334661
C       -1.06028494      -0.42539049      -0.09352437
N       -0.59088464       0.76149667       0.63677113
C       -0.78801044       0.81851538      -0.85118087
H        1.65149602       0.21737694       1.52203392
H        1.44416382       0.48442240      -1.21969294
H        0.59212210      -1.72005261       0.65233753
H        0.40739170      -1.71490649      -1.12252317
H       -2.00674716      -0.88299445       0.16253820
H       -1.22409774       1.26564237       1.23502264
H       -1.60642888       1.48241952      -1.11536162
13
Frame=16 idx=000448 GeodesicLength=1.260515050057002 rxn_smarts="[O:1]([C@@:2]1([H:8])[C:3]([H:9])([H:10])[C@@:4]2([H:11])[N:5]([H:12])[C@@:6]12[H:13])[H:7]>>[O:1]([C@@:2]1([H:8])[C:3]([H:9])([H:10])[C@@:4]2([H:11])[N+:5]1([H:12])[C-:6]2[H:13])[H:7]"
O        1.91921734       0.58231052       0.67250493
C        0.94205055       0.28111132      -0.27048809
C        0.28757716      -1.13148505      -0.21814391
C       -1.06393789      -0.43298596      -0.09198893
N       -0.58479368       0.75062143       0.63805338
C       -0.78285330       0.80983573      -0.84690901
H        1.63374561       0.23503136       1.52210788
H        1.45029255       0.47521146      -1.21704886
H        0.59754504      -1.72264853       0.64541625
H        0.40403768      -1.71844774      -1.12710396
H       -2.01283390      -0.88408100       0.16549498
H       -1.20438603       1.26470875       1.24127854
H       -1.58566114       1.49081770      -1.11317319
