17
Frame=0 idx=010662 GeodesicLength=0.0 rxn_smarts="[C:1]([C@@:2]1([H:11])[O:3][C@@:4]2([H:12])[C:5]([H:13])([H:14])[C:6]([H:15])([H:16])[C@@:7]12[H:17])([H:8])([H:9])[H:10]>>[C:1]([C@@:2]1([H:11])[O:3][C:4]([H:12])=[C:7]1[H:17])([H:8])([H:9])[H:10].[C:5](=[C:6]([H:15])[H:16])([H:13])[H:14]"
C        1.74165362       0.88140250      -0.06403758
C        1.13861044      -0.47581056       0.15386788
O        0.74082322      -0.71547535       1.52967590
C       -0.44222767      -1.28431156       1.02575143
C       -1.51039554       0.20544819       0.29559526
C       -1.26637851       0.73118154      -1.03429302
C       -0.25252623      -0.88726707      -0.33530392
H        1.08671098       1.67270220       0.29734008
H        2.68683944       0.94354325       0.47730144
H        1.93448159       1.04144056      -1.12605810
H        1.83136741      -1.26877387      -0.15169899
H       -1.14425747      -1.82903570       1.62913948
H       -1.21387136       0.84365712       1.12493059
H       -2.46296551      -0.29414882       0.45407410
H       -1.81412083       0.34329287      -1.87783820
H       -0.60362156       1.56694840      -1.17834556
H       -0.45012195      -1.47479376      -1.22010078
17
Frame=1 idx=010662 GeodesicLength=0.11837789229995971 rxn_smarts="[C:1]([C@@:2]1([H:11])[O:3][C@@:4]2([H:12])[C:5]([H:13])([H:14])[C:6]([H:15])([H:16])[C@@:7]12[H:17])([H:8])([H:9])[H:10]>>[C:1]([C@@:2]1([H:11])[O:3][C:4]([H:12])=[C:7]1[H:17])([H:8])([H:9])[H:10].[C:5](=[C:6]([H:15])[H:16])([H:13])[H:14]"
C        1.75045532       0.87533332      -0.06766242
C        1.15074904      -0.48272290       0.15533392
O        0.74813453      -0.71454110       1.53161047
C       -0.43727046      -1.27897296       1.02893747
C       -1.53718705       0.21503395       0.29299993
C       -1.27220464       0.73617614      -1.03322470
C       -0.23945969      -0.89476852      -0.33465221
H        1.09503224       1.66575065       0.29514325
H        2.69748772       0.94194872       0.46990935
H        1.93730858       1.03447660      -1.13096439
H        1.84805254      -1.27465883      -0.14222066
H       -1.12365291      -1.84448712       1.63232363
H       -1.24906687       0.85169879       1.12644745
H       -2.49277736      -0.28246687       0.43995410
H       -1.82502702       0.36320312      -1.88078049
H       -0.61690691       1.58006829      -1.16850030
H       -0.43366705      -1.49107127      -1.21465438
17
Frame=2 idx=010662 GeodesicLength=0.23666621240755645 rxn_smarts="[C:1]([C@@:2]1([H:11])[O:3][C@@:4]2([H:12])[C:5]([H:13])([H:14])[C:6]([H:15])([H:16])[C@@:7]12[H:17])([H:8])([H:9])[H:10]>>[C:1]([C@@:2]1([H:11])[O:3][C:4]([H:12])=[C:7]1[H:17])([H:8])([H:9])[H:10].[C:5](=[C:6]([H:15])[H:16])([H:13])[H:14]"
C        1.75939749       0.86909702      -0.07146036
C        1.16327555      -0.48985637       0.15684050
O        0.75579937      -0.71359938       1.53354605
C       -0.43221889      -1.27318106       1.03222786
C       -1.56489725       0.22467175       0.29025457
C       -1.27804192       0.74116346      -1.03183564
C       -0.22597472      -0.90260612      -0.33393728
H        1.10337807       1.65855133       0.29274285
H        2.70827438       0.94039419       0.46225530
H        1.94018329       1.02723313      -1.13604143
H        1.86514668      -1.28069097      -0.13252837
H       -1.10191630      -1.85984911       1.63538092
H       -1.28536856       0.85950277       1.12797732
H       -2.52373751      -0.27021408       0.42489667
H       -1.83590216       0.38422131      -1.88360963
H       -0.63039900       1.59316943      -1.15797039
H       -0.41699853      -1.50800729      -1.20873894
17
Frame=3 idx=010662 GeodesicLength=0.35490415821417703 rxn_smarts="[C:1]([C@@:2]1([H:11])[O:3][C@@:4]2([H:12])[C:5]([H:13])([H:14])[C:6]([H:15])([H:16])[C@@:7]12[H:17])([H:8])([H:9])[H:10]>>[C:1]([C@@:2]1([H:11])[O:3][C:4]([H:12])=[C:7]1[H:17])([H:8])([H:9])[H:10].[C:5](=[C:6]([H:15])[H:16])([H:13])[H:14]"
C        1.76848714       0.86268623      -0.07543942
C        1.17621056      -0.49721906       0.15838414
O        0.76382081      -0.71266125       1.53546799
C       -0.42706735      -1.26693420       1.03558657
C       -1.59358454       0.23436103       0.28735662
C       -1.28392280       0.74611878      -1.03007643
C       -0.21203266      -0.91082195      -0.33317310
H        1.11174530       1.65109298       0.29011979
H        2.71919777       0.93888563       0.45433586
H        1.94311658       1.01969569      -1.14129513
H        1.88268565      -1.28686458      -0.12260951
H       -1.07902164      -1.87500501       1.63827185
H       -1.32281577       0.86703450       1.12952664
H       -2.55591022      -0.25731876       0.40887655
H       -1.84672049       0.40638784      -1.88627804
H       -0.64411503       1.60620336      -1.14669942
H       -0.40007333      -1.52564123      -1.20235496
17
Frame=4 idx=010662 GeodesicLength=0.47313649030810073 rxn_smarts="[C:1]([C@@:2]1([H:11])[O:3][C@@:4]2([H:12])[C:5]([H:13])([H:14])[C:6]([H:15])([H:16])[C@@:7]12[H:17])([H:8])([H:9])[H:10]>>[C:1]([C@@:2]1([H:11])[O:3][C:4]([H:12])=[C:7]1[H:17])([H:8])([H:9])[H:10].[C:5](=[C:6]([H:15])[H:16])([H:13])[H:14]"
C        1.77773337       0.85609461      -0.07960918
C        1.18957875      -0.50481875       0.15995895
O        0.77220261      -0.71173880       1.53735788
C       -0.42180357      -1.26023910       1.03896866
C       -1.62331394       0.24409902       0.28430612
C       -1.28988580       0.75101350      -1.02789033
C       -0.19758791      -0.91945981      -0.33237750
H        1.12013042       1.64336520       0.28725215
H        2.73025733       0.93743066       0.44614870
H        1.94612338       1.01185098      -1.14673316
H        1.90071095      -1.29317045      -0.11245297
H       -1.05496777      -1.88981538       1.64096136
H       -1.36144797       0.87425058       1.13110973
H       -2.58936816      -0.24370007       0.39186727
H       -1.85745136       0.42973532      -1.88872848
H       -0.65806952       1.61911200      -1.13462861
H       -0.38284081      -1.54400953      -1.19551058
17
Frame=5 idx=010662 GeodesicLength=0.5913733591667516 rxn_smarts="[C:1]([C@@:2]1([H:11])[O:3][C@@:4]2([H:12])[C:5]([H:13])([H:14])[C:6]([H:15])([H:16])[C@@:7]12[H:17])([H:8])([H:9])[H:10]>>[C:1]([C@@:2]1([H:11])[O:3][C:4]([H:12])=[C:7]1[H:17])([H:8])([H:9])[H:10].[C:5](=[C:6]([H:15])[H:16])([H:13])[H:14]"
C        1.78714406       0.84931946      -0.08398008
C        1.20340409      -0.51265961       0.16155666
O        0.78095453      -0.71084317       1.53919787
C       -0.41640268      -1.25311526       1.04233481
C       -1.65413904       0.25388011       0.28109767
C       -1.29597129       0.75582577      -1.02522686
C       -0.18260038      -0.92856014      -0.33156696
H        1.12852899       1.63535789       0.28411753
H        2.74145036       0.93604230       0.43768763
H        1.94921678       1.00368957      -1.15236304
H        1.91926595      -1.29959452      -0.10205676
H       -1.02979597      -1.90415042       1.64343509
H       -1.40129622       0.88109427       1.13273645
H       -2.62416712      -0.22926495       0.37383499
H       -1.86805971       0.45428399      -1.89090759
H       -0.67227756       1.63184509      -1.12168919
H       -0.36525477      -1.56315039      -1.18820823
17
Frame=6 idx=010662 GeodesicLength=0.7096540549098898 rxn_smarts="[C:1]([C@@:2]1([H:11])[O:3][C@@:4]2([H:12])[C:5]([H:13])([H:14])[C:6]([H:15])([H:16])[C@@:7]12[H:17])([H:8])([H:9])[H:10]>>[C:1]([C@@:2]1([H:11])[O:3][C:4]([H:12])=[C:7]1[H:17])([H:8])([H:9])[H:10].[C:5](=[C:6]([H:15])[H:16])([H:13])[H:14]"
C        1.79673475       0.84235725      -0.08856262
C        1.21772126      -0.52074804       0.16316576
O        0.79007865      -0.70999083       1.54095866
C       -0.41083992      -1.24558713       1.04561101
C       -1.68613185       0.26369530       0.27773793
C       -1.30223651       0.76051352      -1.02201546
C       -0.16700984      -0.93816951      -0.33077169
H        1.13693625       1.62706067       0.28068539
H        2.75277577       0.93473555       0.42895947
H        1.95242687       0.99520137      -1.15819207
H        1.93840588      -1.30612053      -0.09141232
H       -1.00357155      -1.91781844       1.64566294
H       -1.44239032       0.88750925       1.13442918
H       -2.66039368      -0.21390882       0.35476682
H       -1.87851195       0.48004742      -1.89273441
H       -0.68675417       1.64431919      -1.10781692
H       -0.34723964      -1.58309622      -1.18047168
17
Frame=7 idx=010662 GeodesicLength=0.8279811694115815 rxn_smarts="[C:1]([C@@:2]1([H:11])[O:3][C@@:4]2([H:12])[C:5]([H:13])([H:14])[C:6]([H:15])([H:16])[C@@:7]12[H:17])([H:8])([H:9])[H:10]>>[C:1]([C@@:2]1([H:11])[O:3][C:4]([H:12])=[C:7]1[H:17])([H:8])([H:9])[H:10].[C:5](=[C:6]([H:15])[H:16])([H:13])[H:14]"
C        1.80652219       0.83520783      -0.09336934
C        1.23256443      -0.52908491       0.16477460
O        0.79957728      -0.70919215       1.54261124
C       -0.40508320      -1.23768560       1.04872230
C       -1.71935583       0.27353446       0.27423208
C       -1.30874381       0.76504194      -1.01819210
C       -0.15076018      -0.94832890      -0.33001933
H        1.14534746       1.61846571       0.27691838
H        2.76423282       0.93353069       0.41996995
H        1.95578863       0.98637545      -1.16422992
H        1.95818493      -1.31272547      -0.08051302
H       -0.97639975      -1.93064781       1.64762472
H       -1.48474890       0.89342739       1.13621171
H       -2.69812147      -0.19751877       0.33465132
H       -1.88877087       0.50702149      -1.89413043
H       -0.70151002       1.65645599      -1.09294140
H       -0.32872370      -1.60387732      -1.17232075
17
Frame=8 idx=010662 GeodesicLength=0.9463724686843802 rxn_smarts="[C:1]([C@@:2]1([H:11])[O:3][C@@:4]2([H:12])[C:5]([H:13])([H:14])[C:6]([H:15])([H:16])[C@@:7]12[H:17])([H:8])([H:9])[H:10]>>[C:1]([C@@:2]1([H:11])[O:3][C:4]([H:12])=[C:7]1[H:17])([H:8])([H:9])[H:10].[C:5](=[C:6]([H:15])[H:16])([H:13])[H:14]"
C        1.81652627       0.82787460      -0.09841398
C        1.24797626      -0.53766867       0.16636541
O        0.80945889      -0.70846476       1.54411958
C       -0.39909106      -1.22945208       1.05158166
C       -1.75388147       0.28338265       0.27059212
C       -1.31556388       0.76936300      -1.01368111
C       -0.13377906      -0.95907951      -0.32934845
H        1.15375709       1.60956171       0.27277757
H        2.77581794       0.93245392       0.41072636
H        1.95934440       0.97720965      -1.17048609
H        1.97866672      -1.31937510      -0.06936029
H       -0.94844032      -1.94244940       1.64931290
H       -1.52838117       0.89876873       1.13811829
H       -2.73744668      -0.17993746       0.31347526
H       -1.89880015       0.53517661      -1.89500707
H       -0.71655093       1.66816048      -1.07698858
H       -0.30961285      -1.62552439      -1.16378358
17
Frame=9 idx=010662 GeodesicLength=1.0650373962642652 rxn_smarts="[C:1]([C@@:2]1([H:11])[O:3][C@@:4]2([H:12])[C:5]([H:13])([H:14])[C:6]([H:15])([H:16])[C@@:7]12[H:17])([H:8])([H:9])[H:10]>>[C:1]([C@@:2]1([H:11])[O:3][C:4]([H:12])=[C:7]1[H:17])([H:8])([H:9])[H:10].[C:5](=[C:6]([H:15])[H:16])([H:13])[H:14]"
C        1.82677552       0.82037418      -0.10373431
C        1.26404677      -0.54649591       0.16792095
O        0.81977675      -0.70781502       1.54544560
C       -0.39275858      -1.22088292       1.05407877
C       -1.78989444       0.29318186       0.26680935
C       -1.32279709       0.77337520      -1.00838567
C       -0.11595964      -0.97050327      -0.32880188
H        1.16213734       1.60033308       0.26819455
H        2.78754600       0.93157746       0.40121127
H        1.96313153       0.96769804      -1.17700384
H        1.99997357      -1.32602557      -0.05795146
H       -0.91984476      -1.95308542       1.65068621
H       -1.57339921       0.90327702       1.14021404
H       -2.77856122      -0.16059239       0.29114150
H       -1.90845264       0.56445126      -1.89523216
H       -0.73190141       1.67927724      -1.05975494
H       -0.28981849      -1.64814484      -1.15483798
17
Frame=10 idx=010662 GeodesicLength=1.1837501321368527 rxn_smarts="[C:1]([C@@:2]1([H:11])[O:3][C@@:4]2([H:12])[C:5]([H:13])([H:14])[C:6]([H:15])([H:16])[C@@:7]12[H:17])([H:8])([H:9])[H:10]>>[C:1]([C@@:2]1([H:11])[O:3][C:4]([H:12])=[C:7]1[H:17])([H:8])([H:9])[H:10].[C:5](=[C:6]([H:15])[H:16])([H:13])[H:14]"
C        1.83728428       0.81270231      -0.10932719
C        1.28077148      -0.55555818       0.16942757
O        0.83048817      -0.70725219       1.54655817
C       -0.38609395      -1.21206372       1.05613947
C       -1.82736570       0.30296925       0.26289949
C       -1.33050732       0.77708461      -1.00225483
C       -0.09727429      -0.98259769      -0.32841183
H        1.17049972       1.59078209       0.26313937
H        2.79939924       0.93089441       0.39145581
H        1.96720567       0.95782920      -1.18377028
H        2.02211275      -1.33264830      -0.04627996
H       -0.89080527      -1.96238269       1.65176554
H       -1.61973044       0.90700536       1.14250582
H       -2.82142900      -0.13962607       0.26772675
H       -1.91776304       0.59479630      -1.89475011
H       -0.74755255       1.68975914      -1.04126914
H       -0.26923976      -1.67169385      -1.14555463
17
Frame=11 idx=010662 GeodesicLength=1.302504207568905 rxn_smarts="[C:1]([C@@:2]1([H:11])[O:3][C@@:4]2([H:12])[C:5]([H:13])([H:14])[C:6]([H:15])([H:16])[C@@:7]12[H:17])([H:8])([H:9])[H:10]>>[C:1]([C@@:2]1([H:11])[O:3][C:4]([H:12])=[C:7]1[H:17])([H:8])([H:9])[H:10].[C:5](=[C:6]([H:15])[H:16])([H:13])[H:14]"
C        1.84807235       0.80486798      -0.11521138
C        1.29819523      -0.56484817       0.17087029
O        0.84159221      -0.70678163       1.54741987
C       -0.37904732      -1.20303683       1.05765957
C       -1.86637582       0.31274766       0.25886865
C       -1.33878476       0.78043431      -0.99521591
C       -0.07765063      -0.99540558      -0.32822281
H        1.17882870       1.58090307       0.25755488
H        2.81137154       0.93044607       0.38147270
H        1.97161765       0.94759326      -1.19080140
H        2.04515526      -1.33920484      -0.03433468
H       -0.86151382      -1.97021416       1.65253952
H       -1.66738948       0.90986246       1.14502730
H       -2.86612208      -0.11677365       0.24323507
H       -1.92666431       0.62612326      -1.89345897
H       -0.76351755       1.69949376      -1.02143426
H       -0.24776717      -1.69620698      -1.13596842
17
Frame=12 idx=010662 GeodesicLength=1.421292197673043 rxn_smarts="[C:1]([C@@:2]1([H:11])[O:3][C@@:4]2([H:12])[C:5]([H:13])([H:14])[C:6]([H:15])([H:16])[C@@:7]12[H:17])([H:8])([H:9])[H:10]>>[C:1]([C@@:2]1([H:11])[O:3][C:4]([H:12])=[C:7]1[H:17])([H:8])([H:9])[H:10].[C:5](=[C:6]([H:15])[H:16])([H:13])[H:14]"
C        1.85916486       0.79688189      -0.12140806
C        1.31636562      -0.57435325       0.17223480
O        0.85309273      -0.70640411       1.54799445
C       -0.37156814      -1.19383415       1.05853943
C       -1.90701732       0.32251748       0.25471756
C       -1.34772731       0.78336833      -0.98719246
C       -0.05701142      -1.00896328      -0.32827616
H        1.18711158       1.57069192       0.25137649
H        2.82346003       0.93027568       0.37127181
H        1.97642828       0.93697724      -1.19811773
H        2.06917008      -1.34564752      -0.02210150
H       -0.83216880      -1.97649095       1.65299874
H       -1.71640180       0.91172777       1.14781949
H       -2.91271669      -0.09172106       0.21766284
H       -1.93509456       0.65832580      -1.89125964
H       -0.77979975       1.70836717      -1.00015846
H       -0.22528739      -1.72171898      -1.12610162
17
Frame=13 idx=010662 GeodesicLength=1.5400968219142004 rxn_smarts="[C:1]([C@@:2]1([H:11])[O:3][C@@:4]2([H:12])[C:5]([H:13])([H:14])[C:6]([H:15])([H:16])[C@@:7]12[H:17])([H:8])([H:9])[H:10]>>[C:1]([C@@:2]1([H:11])[O:3][C:4]([H:12])=[C:7]1[H:17])([H:8])([H:9])[H:10].[C:5](=[C:6]([H:15])[H:16])([H:13])[H:14]"
C        1.87057813       0.78875827      -0.12793465
C        1.33532564      -0.58405822       0.17350857
O        0.86498608      -0.70612304       1.54824688
C       -0.36361447      -1.18449346       1.05867446
C       -1.94937440       0.33231091       0.25044648
C       -1.35743389       0.78582121      -0.97810935
C       -0.03527763      -1.02331213      -0.32861616
H        1.19532017       1.56013911       0.24453601
H        2.83564365       0.93044039       0.36087349
H        1.98169903       0.92597173      -1.20573352
H        2.09422823      -1.35192066      -0.00956435
H       -0.80296649      -1.98117454       1.65310339
H       -1.76677474       0.91251550       1.15090253
H       -2.96125267      -0.06408766       0.19102172
H       -1.94299499       0.69124352      -1.88803384
H       -0.79641440       1.71623938      -0.97734406
H       -0.20167726      -1.74827032      -1.11597762
17
Frame=14 idx=010662 GeodesicLength=1.6589022662658113 rxn_smarts="[C:1]([C@@:2]1([H:11])[O:3][C@@:4]2([H:12])[C:5]([H:13])([H:14])[C:6]([H:15])([H:16])[C@@:7]12[H:17])([H:8])([H:9])[H:10]>>[C:1]([C@@:2]1([H:11])[O:3][C:4]([H:12])=[C:7]1[H:17])([H:8])([H:9])[H:10].[C:5](=[C:6]([H:15])[H:16])([H:13])[H:14]"
C        1.88234254       0.78050943      -0.13481592
C        1.35512721      -0.59394302       0.17468292
O        0.87726941      -0.70593149       1.54814100
C       -0.35513894      -1.17503685       1.05794758
C       -1.99356631       0.34212743       0.24604899
C       -1.36802277       0.78771834      -0.96789172
C       -0.01236892      -1.03848068      -0.32928123
H        1.20343548       1.54924043       0.23694693
H        2.84791760       0.93099304       0.35029976
H        1.98751206       0.91455353      -1.21367617
H        2.12039403      -1.35796704       0.00330099
H       -0.77408150      -1.98421792       1.65283300
H       -1.81854235       0.91207797       1.15433139
H       -3.01182899      -0.03346344       0.16332778
H       -1.95028471       0.72473903      -1.88369265
H       -0.81335522       1.72297376      -0.95289561
H       -0.17680862      -1.77589252      -1.10560702
17
Frame=15 idx=010662 GeodesicLength=1.7776947650581474 rxn_smarts="[C:1]([C@@:2]1([H:11])[O:3][C@@:4]2([H:12])[C:5]([H:13])([H:14])[C:6]([H:15])([H:16])[C@@:7]12[H:17])([H:8])([H:9])[H:10]>>[C:1]([C@@:2]1([H:11])[O:3][C:4]([H:12])=[C:7]1[H:17])([H:8])([H:9])[H:10].[C:5](=[C:6]([H:15])[H:16])([H:13])[H:14]"
C        1.89447605       0.77215194      -0.14207015
C        1.37581671      -0.60398529       0.17575392
O        0.88993097      -0.70582427       1.54764486
C       -0.34610219      -1.16549487       1.05624253
C       -2.03970622       0.35200179       0.24151430
C       -1.37961359       0.78897460      -0.95646857
C        0.01179683      -1.05450574      -0.33031004
H        1.21141681       1.53798634       0.22852099
H        2.86025679       0.93200090       0.33958488
H        1.99394779       0.90270183      -1.22196571
H        2.14773463      -1.36371914       0.01652536
H       -0.74566729      -1.98564227       1.65213772
H       -1.87172993       0.91028593       1.15814391
H       -3.06448195       0.00066086       0.13461681
H       -1.95689998       0.75861976      -1.87814141
H       -0.83062946       1.72841301      -0.92672950
H       -0.15054597      -1.80462537      -1.09499989
17
Frame=16 idx=010662 GeodesicLength=1.8964764645929015 rxn_smarts="[C:1]([C@@:2]1([H:11])[O:3][C@@:4]2([H:12])[C:5]([H:13])([H:14])[C:6]([H:15])([H:16])[C@@:7]12[H:17])([H:8])([H:9])[H:10]>>[C:1]([C@@:2]1([H:11])[O:3][C:4]([H:12])=[C:7]1[H:17])([H:8])([H:9])[H:10].[C:5](=[C:6]([H:15])[H:16])([H:13])[H:14]"
C        1.90699468       0.76370333      -0.14971491
C        1.39743815      -0.61415899       0.17672270
O        0.90295452      -0.70579264       1.54672698
C       -0.33646333      -1.15590024       1.05344388
C       -2.08792997       0.36197319       0.23682771
C       -1.39234087       0.78948900      -0.94377874
C        0.03730549      -1.07142431      -0.33173898
H        1.21921450       1.52636835       0.21915875
H        2.87262897       0.93353824       0.32877127
H        2.00109508       0.89038876      -1.23062217
H        2.17631540      -1.36910477       0.03015281
H       -0.71783836      -1.98549795       1.65095429
H       -1.92637765       0.90697185       1.16238838
H       -3.11922555       0.03889232       0.10494093
H       -1.96278080       0.79267874      -1.87131031
H       -0.84824613       1.73238994      -0.89876847
H       -0.12274414      -1.83451481      -1.08415411
