16
Frame=0 idx=003016 GeodesicLength=0.0 rxn_smarts="[C:1]([C@@:2]1([H:10])[C:3]([H:11])([H:12])[C:4]([H:13])([H:14])[C@:5]1([O:6][H:16])[H:15])([H:7])([H:8])[H:9]>>[C:1](/[C:2](=[C:5](\[O:6][H:16])[H:15])[H:10])([H:7])([H:8])[H:9].[C:3](=[C:4]([H:13])[H:14])([H:11])[H:12]"
C        1.50591328      -1.04059903      -0.06656263
C        0.43489766      -0.48055566       0.82279004
C        0.01491592       1.41227211       0.15901399
C       -1.12575785       1.41648740      -0.67143967
C       -0.91553107      -0.47731931       0.40169115
O       -1.41939002      -1.29613793      -0.51814836
H        1.55449278      -2.13706984      -0.09490967
H        1.38393918      -0.69711606      -1.10317120
H        2.49214673      -0.69731808       0.25483783
H        0.58062567      -0.52580886       1.89646219
H       -0.04414073       1.87840226       1.13620673
H        1.00080773       1.47914262      -0.29037733
H       -2.07598521       1.77800523      -0.30666003
H       -1.02284272       1.26467267      -1.73626856
H       -1.66907586      -0.15425558       1.10575841
H       -0.69501548      -1.72280191      -0.98922287
16
Frame=1 idx=003016 GeodesicLength=0.07488180222215572 rxn_smarts="[C:1]([C@@:2]1([H:10])[C:3]([H:11])([H:12])[C:4]([H:13])([H:14])[C@:5]1([O:6][H:16])[H:15])([H:7])([H:8])[H:9]>>[C:1](/[C:2](=[C:5](\[O:6][H:16])[H:15])[H:10])([H:7])([H:8])[H:9].[C:3](=[C:4]([H:13])[H:14])([H:11])[H:12]"
C        1.50529365      -1.04044902      -0.06691756
C        0.43437603      -0.48583821       0.82668513
C        0.02008465       1.42467656       0.15781831
C       -1.12023645       1.41054242      -0.67482989
C       -0.91934273      -0.48945873       0.41236691
O       -1.43019536      -1.29386566      -0.51989442
H        1.55974557      -2.13627731      -0.09272703
H        1.37491818      -0.69868892      -1.10262670
H        2.49101593      -0.69243930       0.25116845
H        0.58528214      -0.54644857       1.89921290
H       -0.04724160       1.90065736       1.12996502
H        1.00543460       1.50665463      -0.29063315
H       -2.07171577       1.78195862      -0.32240208
H       -1.00763205       1.26319528      -1.73979549
H       -1.67047720      -0.18225619       1.12690924
H       -0.70930960      -1.72196295      -0.99429964
16
Frame=2 idx=003016 GeodesicLength=0.14979627420313543 rxn_smarts="[C:1]([C@@:2]1([H:10])[C:3]([H:11])([H:12])[C:4]([H:13])([H:14])[C@:5]1([O:6][H:16])[H:15])([H:7])([H:8])[H:9]>>[C:1](/[C:2](=[C:5](\[O:6][H:16])[H:15])[H:10])([H:7])([H:8])[H:9].[C:3](=[C:4]([H:13])[H:14])([H:11])[H:12]"
C        1.50448879      -1.04018962      -0.06728390
C        0.43371131      -0.49123746       0.83073456
C        0.02551334       1.43736598       0.15662039
C       -1.11419945       1.40450701      -0.67820761
C       -0.92325576      -0.50183109       0.42320805
O       -1.44130684      -1.29141752      -0.52131101
H        1.56502427      -2.13532557      -0.09065672
H        1.36557827      -0.70019457      -1.10201808
H        2.48962486      -0.68725938       0.24740638
H        0.58992845      -0.56764266       1.90183179
H       -0.05055332       1.92340919       1.12339087
H        1.01001523       1.53495603      -0.29097236
H       -2.06689550       1.78584246      -0.33875929
H       -0.99189760       1.26152259      -1.74319922
H       -1.67169873      -0.21156307       1.14846893
H       -0.72407733      -1.72094231      -0.99925276
16
Frame=3 idx=003016 GeodesicLength=0.22474788704701026 rxn_smarts="[C:1]([C@@:2]1([H:10])[C:3]([H:11])([H:12])[C:4]([H:13])([H:14])[C@:5]1([O:6][H:16])[H:15])([H:7])([H:8])[H:9]>>[C:1](/[C:2](=[C:5](\[O:6][H:16])[H:15])[H:10])([H:7])([H:8])[H:9].[C:3](=[C:4]([H:13])[H:14])([H:11])[H:12]"
C        1.50348900      -1.03982061      -0.06764249
C        0.43288926      -0.49675656       0.83494748
C        0.03122501       1.45035297       0.15540417
C       -1.10763323       1.39839807      -0.68154870
C       -0.92727902      -0.51443975       0.43421057
O       -1.45272949      -1.28876569      -0.52241240
H        1.57032505      -2.13421012      -0.08868032
H        1.35592088      -0.70164171      -1.10132657
H        2.48795465      -0.68177099       0.24357921
H        0.59454954      -0.58937750       1.90430746
H       -0.05403637       1.94667561       1.11644239
H        1.01452630       1.56406891      -0.29145466
H       -2.06149483       1.78964458      -0.35570230
H       -0.97565291       1.25965845      -1.74645942
H       -1.67272737      -0.24229385       1.17041970
H       -0.73932649      -1.71972182      -1.00408411
16
Frame=4 idx=003016 GeodesicLength=0.29974736031790705 rxn_smarts="[C:1]([C@@:2]1([H:10])[C:3]([H:11])([H:12])[C:4]([H:13])([H:14])[C@:5]1([O:6][H:16])[H:15])([H:7])([H:8])[H:9]>>[C:1](/[C:2](=[C:5](\[O:6][H:16])[H:15])[H:10])([H:7])([H:8])[H:9].[C:3](=[C:4]([H:13])[H:14])([H:11])[H:12]"
C        1.50228420      -1.03934211      -0.06797056
C        0.43189405      -0.50239775       0.83933434
C        0.03724650       1.46365170       0.15415024
C       -1.10052403       1.39223586      -0.68482741
C       -0.93142301      -0.52728850       0.44537039
O       -1.46446814      -1.28587808      -0.52321365
H        1.57564277      -2.13292700      -0.08677502
H        1.34594846      -0.70304061      -1.10053062
H        2.48598426      -0.67596728       0.23971899
H        0.59912766      -0.61163483       1.90663037
H       -0.05764399       1.97047827       1.10907153
H        1.01894303       1.59401653      -0.29215068
H       -2.05548289       1.79335505      -0.37319259
H       -0.95891658       1.25760856      -1.74955466
H       -1.67354678      -0.27459119       1.19273631
H       -0.75506550      -1.71827860      -1.00879697
16
Frame=5 idx=003016 GeodesicLength=0.37479483050941875 rxn_smarts="[C:1]([C@@:2]1([H:10])[C:3]([H:11])([H:12])[C:4]([H:13])([H:14])[C@:5]1([O:6][H:16])[H:15])([H:7])([H:8])[H:9]>>[C:1](/[C:2](=[C:5](\[O:6][H:16])[H:15])[H:10])([H:7])([H:8])[H:9].[C:3](=[C:4]([H:13])[H:14])([H:11])[H:12]"
C        1.50086423      -1.03875392      -0.06824662
C        0.43071153      -0.50816319       0.84390627
C        0.04360255       1.47727565       0.15284163
C       -1.09286199       1.38603965      -0.68802052
C       -0.93569816      -0.54037919       0.45668665
O       -1.47652771      -1.28272082      -0.52372418
H        1.58097071      -2.13147200      -0.08491973
H        1.33566206      -0.70439967      -1.09961015
H        2.48369532      -0.66984236       0.23585571
H        0.60364848      -0.63439559       1.90879228
H       -0.06133161       1.99483401       1.10123432
H        1.02324230       1.62481975      -0.29312700
H       -2.04883403       1.79696282      -0.39119344
H       -0.94170185       1.25537677      -1.75246710
H       -1.67413694      -0.30859278       1.21538349
H       -0.77130490      -1.71658914      -1.01339159
16
Frame=6 idx=003016 GeodesicLength=0.4499019277721681 rxn_smarts="[C:1]([C@@:2]1([H:10])[C:3]([H:11])([H:12])[C:4]([H:13])([H:14])[C@:5]1([O:6][H:16])[H:15])([H:7])([H:8])[H:9]>>[C:1](/[C:2](=[C:5](\[O:6][H:16])[H:15])[H:10])([H:7])([H:8])[H:9].[C:3](=[C:4]([H:13])[H:14])([H:11])[H:12]"
C        1.49921721      -1.03805715      -0.06844306
C        0.42932291      -0.51405263       0.84867604
C        0.05032820       1.49124135       0.15145266
C       -1.08463230       1.37983327      -0.69109730
C       -0.94011818      -0.55371527       0.46815733
O       -1.48891362      -1.27925388      -0.52395500
H        1.58630027      -2.12984092      -0.08308380
H        1.32506419      -0.70573218      -1.09853961
H        2.48106497      -0.66339035       0.23202601
H        0.60809036      -0.65762874       1.91078778
H       -0.06504318       2.01976350       1.09287646
H        1.02739490       1.65650514      -0.29446959
H       -2.04151519       1.80046190      -0.40965407
H       -0.92403448       1.25297049      -1.75517421
H       -1.67446994      -0.34448243       1.23831185
H       -0.78805612      -1.71462211      -1.01787148
16
Frame=7 idx=003016 GeodesicLength=0.5250726536836984 rxn_smarts="[C:1]([C@@:2]1([H:10])[C:3]([H:11])([H:12])[C:4]([H:13])([H:14])[C@:5]1([O:6][H:16])[H:15])([H:7])([H:8])[H:9]>>[C:1](/[C:2](=[C:5](\[O:6][H:16])[H:15])[H:10])([H:7])([H:8])[H:9].[C:3](=[C:4]([H:13])[H:14])([H:11])[H:12]"
C        1.49733172      -1.03725159      -0.06853332
C        0.42771075      -0.52006635       0.85365778
C        0.05745705       1.50556498       0.14995971
C       -1.07582432       1.37363794      -0.69402993
C       -0.94469724      -0.56729805       0.47978460
O       -1.50163154      -1.27543535      -0.52391370
H        1.59162187      -2.12803004      -0.08123882
H        1.31415527      -0.70704765      -1.09729528
H        2.47807172      -0.65660578       0.22826518
H        0.61243418      -0.68130327       1.91261350
H       -0.06872145       2.04528252       1.08394763
H        1.03137460       1.68909609      -0.29626258
H       -2.03350183       1.80383973      -0.42852289
H       -0.90593247       1.25039460      -1.75765729
H       -1.67451666      -0.38243412       1.26146306
H       -0.80533166      -1.71234368      -1.02223766
16
Frame=8 idx=003016 GeodesicLength=0.6003108657690548 rxn_smarts="[C:1]([C@@:2]1([H:10])[C:3]([H:11])([H:12])[C:4]([H:13])([H:14])[C@:5]1([O:6][H:16])[H:15])([H:7])([H:8])[H:9]>>[C:1](/[C:2](=[C:5](\[O:6][H:16])[H:15])[H:10])([H:7])([H:8])[H:9].[C:3](=[C:4]([H:13])[H:14])([H:11])[H:12]"
C        1.49519473      -1.03633670      -0.06848590
C        0.42585423      -0.52620164       0.85886860
C        0.06502919       1.52026209       0.14833295
C       -1.06642769       1.36747809      -0.69678803
C       -0.94945405      -0.58112572       0.49157417
O       -1.51468712      -1.27121437      -0.52360605
H        1.59692304      -2.12603403      -0.07935025
H        1.30293577      -0.70835662      -1.09584810
H        2.47469355      -0.64948299       0.22461336
H        0.61665872      -0.70537984       1.91427171
H       -0.07230012       2.07140533       1.07438831
H        1.03515452       1.72261316      -0.29860401
H       -2.02476807       1.80708786      -0.44774037
H       -0.88742289       1.24765693      -1.75989569
H       -1.67423786      -0.42266171       1.28476083
H       -0.82314593      -1.70970986      -1.02649153
16
Frame=9 idx=003016 GeodesicLength=0.675640760009311 rxn_smarts="[C:1]([C@@:2]1([H:10])[C:3]([H:11])([H:12])[C:4]([H:13])([H:14])[C@:5]1([O:6][H:16])[H:15])([H:7])([H:8])[H:9]>>[C:1](/[C:2](=[C:5](\[O:6][H:16])[H:15])[H:10])([H:7])([H:8])[H:9].[C:3](=[C:4]([H:13])[H:14])([H:11])[H:12]"
C        1.49276795      -1.03531622      -0.06824211
C        0.42369778      -0.53245105       0.86432506
C        0.07312201       1.53537261       0.14650530
C       -1.05644105       1.36138599      -0.69932691
C       -0.95445423      -0.59519767       0.50355768
O       -1.52808352      -1.26651431      -0.52303865
H        1.60215615      -2.12385675      -0.07733246
H        1.29139253      -0.70969150      -1.09415324
H        2.47087263      -0.64201013       0.22114681
H        0.62072078      -0.72978155       1.91577961
H       -0.07565895       2.09816954       1.06411630
H        1.03867822       1.75711077      -0.30163788
H       -2.01527562       1.81023385      -0.46718703
H       -0.86856860       1.24477261      -1.76185913
H       -1.67341335      -0.46556601       1.30796975
H       -0.84151274      -1.70666019      -1.03062309
16
Frame=10 idx=003016 GeodesicLength=0.7510329581778658 rxn_smarts="[C:1]([C@@:2]1([H:10])[C:3]([H:11])([H:12])[C:4]([H:13])([H:14])[C@:5]1([O:6][H:16])[H:15])([H:7])([H:8])[H:9]>>[C:1](/[C:2](=[C:5](\[O:6][H:16])[H:15])[H:10])([H:7])([H:8])[H:9].[C:3](=[C:4]([H:13])[H:14])([H:11])[H:12]"
C        1.49005698      -1.03418672      -0.06779205
C        0.42125224      -0.53881318       0.87004805
C        0.08174518       1.55089905       0.14448006
C       -1.04584372       1.35537825      -0.70162485
C       -0.95967424      -0.60951450       0.51572655
O       -1.54183272      -1.26130824      -0.52218912
H        1.60733409      -2.12148676      -0.07518937
H        1.27953173      -0.71104478      -1.09219525
H        2.46661436      -0.63418963       0.21787349
H        0.62461891      -0.75448893       1.91713871
H       -0.07877352       2.12556814       1.05310302
H        1.04193329       1.79257368      -0.30542644
H       -2.00501767       1.81323151      -0.48684676
H       -0.84936526       1.24173706      -1.76353620
H       -1.67212251      -0.51120410       1.33106885
H       -0.86045713      -1.70315086      -1.03463869
16
Frame=11 idx=003016 GeodesicLength=0.8264890357996001 rxn_smarts="[C:1]([C@@:2]1([H:10])[C:3]([H:11])([H:12])[C:4]([H:13])([H:14])[C@:5]1([O:6][H:16])[H:15])([H:7])([H:8])[H:9]>>[C:1](/[C:2](=[C:5](\[O:6][H:16])[H:15])[H:10])([H:7])([H:8])[H:9].[C:3](=[C:4]([H:13])[H:14])([H:11])[H:12]"
C        1.48704386      -1.03294828      -0.06709963
C        0.41849296      -0.54528227       0.87605705
C        0.09094250       1.56686530       0.14222207
C       -1.03462725       1.34947740      -0.70364916
C       -0.96513787      -0.62407853       0.52809716
O       -1.55594410      -1.25554470      -0.52104702
H        1.61243726      -2.11891892      -0.07287652
H        1.26734712      -0.71242906      -1.08994347
H        2.46189068      -0.62601801       0.21483773
H        0.62832991      -0.77944731       1.91836202
H       -0.08156633       2.15361034       1.04130002
H        1.04488201       1.82901858      -0.31007528
H       -1.99397505       1.81607361      -0.50664881
H       -0.82984304       1.23855314      -1.76490891
H       -1.67027346      -0.55980469       1.35390609
H       -0.87999920      -1.69912659      -1.03853334
16
Frame=12 idx=003016 GeodesicLength=0.9020105791984743 rxn_smarts="[C:1]([C@@:2]1([H:10])[C:3]([H:11])([H:12])[C:4]([H:13])([H:14])[C@:5]1([O:6][H:16])[H:15])([H:7])([H:8])[H:9]>>[C:1](/[C:2](=[C:5](\[O:6][H:16])[H:15])[H:10])([H:7])([H:8])[H:9].[C:3](=[C:4]([H:13])[H:14])([H:11])[H:12]"
C        1.48371094      -1.03159901      -0.06612696
C        0.41539535      -0.55185264       0.88237553
C        0.10076472       1.58329326       0.13969405
C       -1.02278066       1.34370308      -0.70536297
C       -0.97086917      -0.63889420       0.54068909
O       -1.57042764      -1.24916718      -0.51959333
H        1.61744852      -2.11614586      -0.07034848
H        1.25483197      -0.71385419      -1.08736392
H        2.45667393      -0.61748890       0.21208371
H        0.63183031      -0.80460078       1.91946847
H       -0.08395981       2.18229981       1.02864949
H        1.04748784       1.86645713      -0.31569944
H       -1.98212981       1.81874434      -0.52651275
H       -0.81003345       1.23522076      -1.76595481
H       -1.66777933      -0.61159580       1.37630561
H       -0.90016371      -1.69451982      -1.04230327
16
Frame=13 idx=003016 GeodesicLength=0.9775878605071203 rxn_smarts="[C:1]([C@@:2]1([H:10])[C:3]([H:11])([H:12])[C:4]([H:13])([H:14])[C@:5]1([O:6][H:16])[H:15])([H:7])([H:8])[H:9]>>[C:1](/[C:2](=[C:5](\[O:6][H:16])[H:15])[H:10])([H:7])([H:8])[H:9].[C:3](=[C:4]([H:13])[H:14])([H:11])[H:12]"
C        1.48003758      -1.03013653      -0.06482886
C        0.41192824      -0.55851482       0.88902937
C        0.11126594       1.60020496       0.13685016
C       -1.01030282       1.33807795      -0.70672172
C       -0.97690124      -0.65396839       0.55353049
O       -1.58528873      -1.24212053      -0.51780488
H        1.62234399      -2.11316027      -0.06754529
H        1.24197718      -0.71533500      -1.08441918
H        2.45093499      -0.60859219       0.20966376
H        0.63509020      -0.82987107       1.92048072
H       -0.08585004       2.21163235       1.01510065
H        1.04971673       1.90488523      -0.32243064
H       -1.96947233       1.82123599      -0.54633329
H       -0.78999023       1.23174404      -1.76664955
H       -1.66452250      -0.66681879       1.39801581
H       -0.92096696      -1.68926292      -1.04593757
16
Frame=14 idx=003016 GeodesicLength=1.0532358688243655 rxn_smarts="[C:1]([C@@:2]1([H:10])[C:3]([H:11])([H:12])[C:4]([H:13])([H:14])[C@:5]1([O:6][H:16])[H:15])([H:7])([H:8])[H:9]>>[C:1](/[C:2](=[C:5](\[O:6][H:16])[H:15])[H:10])([H:7])([H:8])[H:9].[C:3](=[C:4]([H:13])[H:14])([H:11])[H:12]"
C        1.47599803      -1.02855648      -0.06316241
C        0.40806373      -0.56525618       0.89605009
C        0.12250531       1.61762801       0.13364568
C       -0.99717153       1.33261722      -0.70769067
C       -0.98326481      -0.66930075       0.56666223
O       -1.60054994      -1.23433015      -0.51563491
H        1.62709630      -2.10995048      -0.06441492
H        1.22876276      -0.71688122      -1.08106783
H        2.44463792      -0.59932254       0.20762128
H        0.63809290      -0.85519048       1.92143459
H       -0.08715980       2.24160524       1.00059982
H        1.05152397       1.94431310      -0.33038904
H       -1.95598915       1.82351694      -0.56603395
H       -0.76973328       1.22811022      -1.76697480
H       -1.66035715      -0.72574688       1.41877681
H       -0.94245525      -1.68325556      -1.04942197
16
Frame=15 idx=003016 GeodesicLength=1.1289544687324593 rxn_smarts="[C:1]([C@@:2]1([H:10])[C:3]([H:11])([H:12])[C:4]([H:13])([H:14])[C@:5]1([O:6][H:16])[H:15])([H:7])([H:8])[H:9]>>[C:1](/[C:2](=[C:5](\[O:6][H:16])[H:15])[H:10])([H:7])([H:8])[H:9].[C:3](=[C:4]([H:13])[H:14])([H:11])[H:12]"
C        1.47156575      -1.02685356      -0.06107483
C        0.40376808      -0.57206093       0.90347009
C        0.13454542       1.63558561       0.13002341
C       -0.98337844       1.32733614      -0.70822432
C       -0.98999689      -0.68490072       0.58012980
O       -1.61622783      -1.22572562      -0.51303442
H        1.63167574      -2.10650563      -0.06088505
H        1.21516903      -0.71850785      -1.07726318
H        2.43774634      -0.58967082       0.20601261
H        0.64081508      -0.88047293       1.92237223
H       -0.08778332       2.27220140       0.98509763
H        1.05286486       1.98472828      -0.33971527
H       -1.94167784       1.82556177      -0.58550145
H       -0.74931603       1.22431187      -1.76690636
H       -1.65510570      -0.78863293       1.43823733
H       -0.96466427      -1.67639408      -1.05273824
16
Frame=16 idx=003016 GeodesicLength=1.2047581678156842 rxn_smarts="[C:1]([C@@:2]1([H:10])[C:3]([H:11])([H:12])[C:4]([H:13])([H:14])[C@:5]1([O:6][H:16])[H:15])([H:7])([H:8])[H:9]>>[C:1](/[C:2](=[C:5](\[O:6][H:16])[H:15])[H:10])([H:7])([H:8])[H:9].[C:3](=[C:4]([H:13])[H:14])([H:11])[H:12]"
C        1.46671197      -1.02502639      -0.05850787
C        0.39900716      -0.57891351       0.91132702
C        0.14745311       1.65410685       0.12591869
C       -0.96891317       1.32225153      -0.70827563
C       -0.99713437      -0.70078457       0.59398893
O       -1.63234331      -1.21622802      -0.50993535
H        1.63605327      -2.10282076      -0.05687384
H        1.20117179      -0.72023675      -1.07295412
H        2.43021940      -0.57962797       0.20489670
H        0.64323407      -0.90563345       1.92335147
H       -0.08761654       2.30340333       0.96854480
H        1.05368398       2.02611433      -0.35055781
H       -1.92654133       1.82734092      -0.60461255
H       -0.72879882       1.22033969      -1.76642050
H       -1.64855021      -0.85572602       1.45596725
H       -0.98763699      -1.66855919      -1.05585721
