9
Frame=0 idx=002760 GeodesicLength=0.0 rxn_smarts="[C:1]([C:2](=[O:3])[C:4](=[O:5])[H:9])([H:6])([H:7])[H:8]>>[C:1](=[C:2]([O:3][H:6])[C:4](=[O:5])[H:9])([H:7])[H:8]"
C        1.07997004      -0.53136380       0.15212795
C       -0.05546960       0.29012309       0.10599889
O        0.16665653       1.40844368       0.68383166
C       -1.43070439       0.02427080      -0.43572905
O       -1.87827113      -1.08122084      -0.54087803
H        1.17950713       0.67254218       1.00122555
H        1.92314711      -0.10548993      -0.39015583
H        1.01536059      -1.61176365       0.12531648
H       -2.00019630       0.93445845      -0.70173763
9
Frame=1 idx=002760 GeodesicLength=0.037644144152560004 rxn_smarts="[C:1]([C:2](=[O:3])[C:4](=[O:5])[H:9])([H:6])([H:7])[H:8]>>[C:1](=[C:2]([O:3][H:6])[C:4](=[O:5])[H:9])([H:7])[H:8]"
C        1.07820851      -0.53064926       0.16654231
C       -0.05476642       0.29496697       0.10506002
O        0.17697206       1.42388544       0.65791286
C       -1.42676292       0.02246204      -0.43859353
O       -1.85097894      -1.08475727      -0.60446066
H        1.19368423       0.68921494       0.99922939
H        1.92283065      -0.13112624      -0.39291588
H        0.99337223      -1.61011627       0.14680613
H       -2.03255941       0.92611966      -0.63958063
9
Frame=2 idx=002760 GeodesicLength=0.0749844977956884 rxn_smarts="[C:1]([C:2](=[O:3])[C:4](=[O:5])[H:9])([H:6])([H:7])[H:8]>>[C:1](=[C:2]([O:3][H:6])[C:4](=[O:5])[H:9])([H:7])[H:8]"
C        1.07576275      -0.52989516       0.18187556
C       -0.05357200       0.30087552       0.10207756
O        0.18855940       1.44026925       0.62825641
C       -1.42309179       0.02122562      -0.44129589
O       -1.82049672      -1.08357417      -0.67541001
H        1.20804163       0.70688189       0.99576093
H        1.92248382      -0.15955610      -0.39392479
H        0.96975193      -1.60793822       0.17128047
H       -2.06743902       0.91171137      -0.56862024
9
Frame=3 idx=002760 GeodesicLength=0.1116166514711486 rxn_smarts="[C:1]([C:2](=[O:3])[C:4](=[O:5])[H:9])([H:6])([H:7])[H:8]>>[C:1](=[C:2]([O:3][H:6])[C:4](=[O:5])[H:9])([H:7])[H:8]"
C        1.07259277      -0.52905362       0.19867654
C       -0.05258586       0.30689785       0.09899278
O        0.20124812       1.45747155       0.59436330
C       -1.42009436       0.01989459      -0.44274453
O       -1.78745224      -1.07534080      -0.75688170
H        1.22347384       0.72660588       0.98944978
H        1.92077687      -0.19085827      -0.39421378
H        0.94506906      -1.60515204       0.20046745
H       -2.10302820       0.88953486      -0.48810984
9
Frame=4 idx=002760 GeodesicLength=0.14767069733215868 rxn_smarts="[C:1]([C:2](=[O:3])[C:4](=[O:5])[H:9])([H:6])([H:7])[H:8]>>[C:1](=[C:2]([O:3][H:6])[C:4](=[O:5])[H:9])([H:7])[H:8]"
C        1.06827688      -0.52821541       0.21781918
C       -0.05141280       0.31356735       0.09417078
O        0.21567542       1.47627402       0.55297248
C       -1.41782473       0.01821286      -0.44310915
O       -1.75020737      -1.05519367      -0.85584449
H        1.24025348       0.74954143       0.97840689
H        1.91790746      -0.22719983      -0.39260733
H        0.91822758      -1.60158649       0.23842496
H       -2.14089592       0.85459972      -0.39023333
9
Frame=5 idx=002760 GeodesicLength=0.18400231681614287 rxn_smarts="[C:1]([C:2](=[O:3])[C:4](=[O:5])[H:9])([H:6])([H:7])[H:8]>>[C:1](=[C:2]([O:3][H:6])[C:4](=[O:5])[H:9])([H:7])[H:8]"
C        1.06271779      -0.52698913       0.23813048
C       -0.04991181       0.32131512       0.08738478
O        0.23051248       1.49516097       0.50802775
C       -1.41651364       0.01568696      -0.44091104
O       -1.71071376      -1.02018075      -0.96370762
H        1.25842253       0.77426305       0.96316842
H        1.91347035      -0.26714687      -0.38913933
H        0.88932379      -1.59651104       0.28173848
H       -2.17730774       0.80440169      -0.28469194
9
Frame=6 idx=002760 GeodesicLength=0.22168157503325447 rxn_smarts="[C:1]([C:2](=[O:3])[C:4](=[O:5])[H:9])([H:6])([H:7])[H:8]>>[C:1](=[C:2]([O:3][H:6])[C:4](=[O:5])[H:9])([H:7])[H:8]"
C        1.05634275      -0.52487753       0.25817127
C       -0.04782088       0.32947461       0.07643526
O        0.24417045       1.51278254       0.46043355
C       -1.41532809       0.01116521      -0.43892165
O       -1.67591669      -0.96863608      -1.07482727
H        1.27601437       0.79954810       0.94493149
H        1.90923476      -0.30865168      -0.38240173
H        0.85999633      -1.58914718       0.33020552
H       -2.20669301       0.73834200      -0.17402644
9
Frame=7 idx=002760 GeodesicLength=0.26242565134940216 rxn_smarts="[C:1]([C:2](=[O:3])[C:4](=[O:5])[H:9])([H:6])([H:7])[H:8]>>[C:1](=[C:2]([O:3][H:6])[C:4](=[O:5])[H:9])([H:7])[H:8]"
C        1.04967870      -0.52193902       0.27721355
C       -0.04682680       0.33708379       0.06805273
O        0.25556730       1.52821153       0.41761070
C       -1.41360732       0.00648680      -0.43873552
O       -1.64617083      -0.90634115      -1.17669992
H        1.29557411       0.82434298       0.92429789
H        1.90220967      -0.34955809      -0.37678643
H        0.83144598      -1.57980936       0.37908238
H       -2.22787080       0.66152251      -0.07403537
9
Frame=8 idx=002760 GeodesicLength=0.3058036391911786 rxn_smarts="[C:1]([C:2](=[O:3])[C:4](=[O:5])[H:9])([H:6])([H:7])[H:8]>>[C:1](=[C:2]([O:3][H:6])[C:4](=[O:5])[H:9])([H:7])[H:8]"
C        1.04270004      -0.51825612       0.29524098
C       -0.04688344       0.34454891       0.06236610
O        0.26512566       1.54186731       0.37979188
C       -1.41132064       0.00257882      -0.44059457
O       -1.62077797      -0.83588259      -1.26809864
H        1.31735065       0.84818039       0.90114681
H        1.89239292      -0.39004480      -0.37219051
H        0.80330807      -1.56838762       0.42807268
H       -2.24189529       0.57539570       0.01426526
9
Frame=9 idx=002760 GeodesicLength=0.3524145989096619 rxn_smarts="[C:1]([C:2](=[O:3])[C:4](=[O:5])[H:9])([H:6])([H:7])[H:8]>>[C:1](=[C:2]([O:3][H:6])[C:4](=[O:5])[H:9])([H:7])[H:8]"
C        1.03523633      -0.51373118       0.31225558
C       -0.04664242       0.35241369       0.05426565
O        0.27328933       1.55440793       0.34363249
C       -1.40876798      -0.00226326      -0.44346098
O       -1.60232002      -0.75451332      -1.35326885
H        1.33923914       0.87103715       0.87617318
H        1.88202968      -0.43106365      -0.36569683
H        0.77497960      -1.55415577       0.47983652
H       -2.24704366       0.47786843       0.09626324
9
Frame=10 idx=002760 GeodesicLength=0.40046453400461013 rxn_smarts="[C:1]([C:2](=[O:3])[C:4](=[O:5])[H:9])([H:6])([H:7])[H:8]>>[C:1](=[C:2]([O:3][H:6])[C:4](=[O:5])[H:9])([H:7])[H:8]"
C        1.02779030      -0.50855072       0.32810545
C       -0.04726310       0.36027451       0.04854669
O        0.28006861       1.56575668       0.31274745
C       -1.40591973      -0.00625490      -0.44767512
O       -1.58894046      -0.66946589      -1.42612826
H        1.36294240       0.89234434       0.84953007
H        1.86922247      -0.47146057      -0.36017627
H        0.74749177      -1.53770375       0.53102250
H       -2.24539225       0.37506031       0.16402750
9
Frame=11 idx=002760 GeodesicLength=0.44938142757484895 rxn_smarts="[C:1]([C:2](=[O:3])[C:4](=[O:5])[H:9])([H:6])([H:7])[H:8]>>[C:1](=[C:2]([O:3][H:6])[C:4](=[O:5])[H:9])([H:7])[H:8]"
C        1.02037833      -0.50281979       0.34308784
C       -0.04866645       0.36814444       0.04490938
O        0.28592626       1.57619828       0.28590707
C       -1.40298079      -0.00994409      -0.45218966
O       -1.58007673      -0.58155131      -1.48770700
H        1.38807636       0.91210718       0.82117956
H        1.85426710      -0.51135453      -0.35495514
H        0.72093210      -1.51918492       0.58148031
H       -2.23785617       0.26840473       0.21828764
9
Frame=12 idx=002760 GeodesicLength=0.4990257836825389 rxn_smarts="[C:1]([C:2](=[O:3])[C:4](=[O:5])[H:9])([H:6])([H:7])[H:8]>>[C:1](=[C:2]([O:3][H:6])[C:4](=[O:5])[H:9])([H:7])[H:8]"
C        1.01306183      -0.49659740       0.35749234
C       -0.05083406       0.37603538       0.04328812
O        0.29099934       1.58593380       0.26255983
C       -1.39998001      -0.01371992      -0.45671417
O       -1.57541011      -0.49089900      -1.53916975
H        1.41462290       0.93043703       0.79057625
H        1.83716445      -0.55114586      -0.34974375
H        0.69543230      -1.49855526       0.63190221
H       -2.22505663       0.15851124       0.25980893
9
Frame=13 idx=002760 GeodesicLength=0.549843925988739 rxn_smarts="[C:1]([C:2](=[O:3])[C:4](=[O:5])[H:9])([H:6])([H:7])[H:8]>>[C:1](=[C:2]([O:3][H:6])[C:4](=[O:5])[H:9])([H:7])[H:8]"
C        1.00567788      -0.48987610       0.37146970
C       -0.05314753       0.38411217       0.04144736
O        0.29548363       1.59516766       0.24158052
C       -1.39678604      -0.01779517      -0.46170614
O       -1.57660884      -0.39628742      -1.58168181
H        1.44171790       0.94728600       0.75811125
H        1.81865940      -0.59142100      -0.34310508
H        0.67053908      -1.47531169       0.68344023
H       -2.20553549       0.04412554       0.29044397
9
Frame=14 idx=002760 GeodesicLength=0.6009476344667601 rxn_smarts="[C:1]([C:2](=[O:3])[C:4](=[O:5])[H:9])([H:6])([H:7])[H:8]>>[C:1](=[C:2]([O:3][H:6])[C:4](=[O:5])[H:9])([H:7])[H:8]"
C        0.99840566      -0.48269687       0.38538371
C       -0.05647992       0.39227394       0.04249383
O        0.29939864       1.60397183       0.22402472
C       -1.39345354      -0.02180124      -0.46664862
O       -1.58111755      -0.30039742      -1.61425520
H        1.47046277       0.96269596       0.72202165
H        1.79736671      -0.63197871      -0.33630275
H        0.64691671      -1.44982971       0.73536679
H       -2.18149947      -0.07223777       0.30791586
9
Frame=15 idx=002760 GeodesicLength=0.6528902732484557 rxn_smarts="[C:1]([C:2](=[O:3])[C:4](=[O:5])[H:9])([H:6])([H:7])[H:8]>>[C:1](=[C:2]([O:3][H:6])[C:4](=[O:5])[H:9])([H:7])[H:8]"
C        0.99106053      -0.47509897       0.39920710
C       -0.05999969       0.40063860       0.04353649
O        0.30316852       1.61243764       0.20839398
C       -1.38994753      -0.02586856      -0.47198967
O       -1.59155967      -0.20227750      -1.63732371
H        1.49945473       0.97633251       0.68377169
H        1.77456516      -0.67305078      -0.32740907
H        0.62399380      -1.42169316       0.78814067
H       -2.15073586      -0.19141978       0.31367253
9
Frame=16 idx=002760 GeodesicLength=0.7047206587674721 rxn_smarts="[C:1]([C:2](=[O:3])[C:4](=[O:5])[H:9])([H:6])([H:7])[H:8]>>[C:1](=[C:2]([O:3][H:6])[C:4](=[O:5])[H:9])([H:7])[H:8]"
C        0.98390921      -0.46714904       0.41313926
C       -0.06447334       0.40895179       0.04709790
O        0.30677895       1.62045258       0.19480825
C       -1.38625178      -0.03038623      -0.47696513
O       -1.60564226      -0.10478546      -1.65004120
H        1.52889040       0.98814395       0.64249345
H        1.74975779      -0.71381071      -0.31711234
H        0.60261972      -1.39176158       0.84029598
H       -2.11558869      -0.30965531       0.30628383
