13
Frame=0 idx=005122 GeodesicLength=0.0 rxn_smarts="[C:1]([N:2]([C:3](=[O:4])[O:5][C:6]([H:11])([H:12])[H:13])[H:10])([H:7])([H:8])[H:9]>>[C:1](=[N:2][H:10])([H:7])[H:9].[C:3](=[O:4])([O:5][C:6]([H:11])([H:12])[H:13])[H:8]"
C       -2.04748427      -0.03718826       0.13651702
N       -1.33170183       0.63300029      -0.75168917
C       -0.08285127      -0.27029627      -0.54399996
O        0.14275924      -1.16485345      -1.34360104
O        0.84194863       0.68113914      -0.11227669
C        2.03843539       0.07795631       0.34652310
H       -2.67189115       0.46233334       0.87669529
H       -0.50744238      -0.71936552       0.61277474
H       -2.25362179      -1.08030018      -0.07297188
H       -1.16183902       1.60800323      -0.55301918
H        1.84150914      -0.54354828       1.22707316
H        2.70983080       0.89086605       0.61523402
H        2.48234849      -0.53774644      -0.43725935
13
Frame=1 idx=005122 GeodesicLength=0.12413444497116263 rxn_smarts="[C:1]([N:2]([C:3](=[O:4])[O:5][C:6]([H:11])([H:12])[H:13])[H:10])([H:7])([H:8])[H:9]>>[C:1](=[N:2][H:10])([H:7])[H:9].[C:3](=[O:4])([O:5][C:6]([H:11])([H:12])[H:13])[H:8]"
C       -2.07944884      -0.02963191       0.12329658
N       -1.33196721       0.63556034      -0.74609893
C       -0.06899414      -0.28361323      -0.49523430
O        0.15177134      -1.19272094      -1.27827718
O        0.84873305       0.66706197      -0.05908684
C        2.07625742       0.07730120       0.33037629
H       -2.75367835       0.47829957       0.81251894
H       -0.55323495      -0.71737200       0.66537615
H       -2.28161816      -1.07095990      -0.10107737
H       -1.17673270       1.61402535      -0.55135068
H        1.92795610      -0.59215302       1.18446732
H        2.73360364       0.89549693       0.61708336
H        2.50735279      -0.48129434      -0.50199333
13
Frame=2 idx=005122 GeodesicLength=0.24729524221361338 rxn_smarts="[C:1]([N:2]([C:3](=[O:4])[O:5][C:6]([H:11])([H:12])[H:13])[H:10])([H:7])([H:8])[H:9]>>[C:1](=[N:2][H:10])([H:7])[H:9].[C:3](=[O:4])([O:5][C:6]([H:11])([H:12])[H:13])[H:8]"
C       -2.11108602      -0.02185821       0.10862090
N       -1.33024947       0.63826769      -0.73892659
C       -0.05534115      -0.29855175      -0.44149582
O        0.16046014      -1.22111273      -1.20868940
O        0.85598595       0.65007963       0.00036031
C        2.11349628       0.07743121       0.31289930
H       -2.83285623       0.49340428       0.74232145
H       -0.60301504      -0.71615467       0.71913096
H       -2.30826568      -1.06118302      -0.13155413
H       -1.18930747       1.61995046      -0.54836306
H        2.01739492      -0.63827819       1.13594733
H        2.75874918       0.89908253       0.61656953
H        2.52403458      -0.42107723      -0.56682079
13
Frame=3 idx=005122 GeodesicLength=0.36942935055919396 rxn_smarts="[C:1]([N:2]([C:3](=[O:4])[O:5][C:6]([H:11])([H:12])[H:13])[H:10])([H:7])([H:8])[H:9]>>[C:1](=[N:2][H:10])([H:7])[H:9].[C:3](=[O:4])([O:5][C:6]([H:11])([H:12])[H:13])[H:8]"
C       -2.14207070      -0.01376780       0.09209807
N       -1.32594200       0.64113276      -0.72989922
C       -0.04198958      -0.31558502      -0.38209539
O        0.16875584      -1.25040561      -1.13436085
O        0.86389562       0.62934861       0.06691181
C        2.14957937       0.07860506       0.29385987
H       -2.90842669       0.50786723       0.66577834
H       -0.65733336      -0.71601330       0.77394109
H       -2.33319655      -1.05079605      -0.16488239
H       -1.19870984       1.62573703      -0.54360439
H        2.10960834      -0.68141096       1.08058839
H        2.78479563       0.90213737       0.61304891
H        2.53103393      -0.35684932      -0.63138422
13
Frame=4 idx=005122 GeodesicLength=0.49048115649389173 rxn_smarts="[C:1]([N:2]([C:3](=[O:4])[O:5][C:6]([H:11])([H:12])[H:13])[H:10])([H:7])([H:8])[H:9]>>[C:1](=[N:2][H:10])([H:7])[H:9].[C:3](=[O:4])([O:5][C:6]([H:11])([H:12])[H:13])[H:8]"
C       -2.17187636      -0.00528602       0.07320348
N       -1.31834255       0.64412397      -0.71880262
C       -0.02905999      -0.33529705      -0.31648489
O        0.17658438      -1.28109694      -1.05497859
O        0.87274161       0.60383990       0.14119507
C        2.18361955       0.08113738       0.27307647
H       -2.97862646       0.52207540       0.58322626
H       -0.71664443      -0.71727111       0.82945140
H       -2.35584741      -1.03963800      -0.20169436
H       -1.20394351       1.63131333      -0.53662066
H        2.20389111      -0.72065108       1.01752230
H        2.81086844       0.90534064       0.60585866
H        2.52663562      -0.28859042      -0.69495250
13
Frame=5 idx=005122 GeodesicLength=0.6102256750205598 rxn_smarts="[C:1]([N:2]([C:3](=[O:4])[O:5][C:6]([H:11])([H:12])[H:13])[H:10])([H:7])([H:8])[H:9]>>[C:1](=[N:2][H:10])([H:7])[H:9].[C:3](=[O:4])([O:5][C:6]([H:11])([H:12])[H:13])[H:8]"
C       -2.19951820       0.00360012       0.05173942
N       -1.30678825       0.64705908      -0.70551517
C       -0.01658467      -0.35809103      -0.24454323
O        0.18389830      -1.31355243      -0.97054975
O        0.88308559       0.57275561       0.22284075
C        2.21434910       0.08529758       0.25051312
H       -3.04145708       0.53651698       0.49539026
H       -0.78075121      -0.71994465       0.88505305
H       -2.37512003      -1.02768328      -0.24188654
H       -1.20409191       1.63649184      -0.52732939
H        2.29820449      -0.75524956       0.94566863
H        2.83559498       0.90916897       0.59494963
H        2.50917888      -0.21636924      -0.75633079
13
Frame=6 idx=005122 GeodesicLength=0.7288983349806999 rxn_smarts="[C:1]([N:2]([C:3](=[O:4])[O:5][C:6]([H:11])([H:12])[H:13])[H:10])([H:7])([H:8])[H:9]>>[C:1](=[N:2][H:10])([H:7])[H:9].[C:3](=[O:4])([O:5][C:6]([H:11])([H:12])[H:13])[H:8]"
C       -2.22385569       0.01288208       0.02820654
N       -1.29099831       0.65008605      -0.68952112
C       -0.00457152      -0.38409216      -0.16673643
O        0.19053090      -1.34781503      -0.88187829
O        0.89582372       0.53567160       0.31018229
C        2.24050454       0.09115724       0.22621466
H       -3.09615054       0.55108283       0.40212057
H       -0.84860405      -0.72372051       0.94005005
H       -2.38963134      -1.01495014      -0.28492662
H       -1.19875003       1.64142203      -0.51485233
H        2.39010096      -0.78397008       0.86488639
H        2.85779339       0.91399609       0.57990474
H        2.47780796      -0.14175000      -0.81365044
13
Frame=7 idx=005122 GeodesicLength=0.8466246506082835 rxn_smarts="[C:1]([N:2]([C:3](=[O:4])[O:5][C:6]([H:11])([H:12])[H:13])[H:10])([H:7])([H:8])[H:9]>>[C:1](=[N:2][H:10])([H:7])[H:9].[C:3](=[O:4])([O:5][C:6]([H:11])([H:12])[H:13])[H:8]"
C       -2.24377455       0.02236726       0.00351792
N       -1.27137035       0.65339982      -0.67066789
C        0.00712542      -0.41263810      -0.08448327
O        0.19640698      -1.38314330      -0.79062817
O        0.91189062       0.49330438       0.40000651
C        2.26087982       0.09843343       0.20061392
H       -3.14160629       0.56507533       0.30425198
H       -0.91820602      -0.72779790       0.99347874
H       -2.39781015      -1.00173235      -0.32945179
H       -1.18859961       1.64634078      -0.49902229
H        2.47568533      -0.80607222       0.77612701
H        2.87638355       0.91957584       0.56102581
H        2.43299523      -0.06711297      -0.86476849
13
Frame=8 idx=005122 GeodesicLength=0.9640371743819058 rxn_smarts="[C:1]([N:2]([C:3](=[O:4])[O:5][C:6]([H:11])([H:12])[H:13])[H:10])([H:7])([H:8])[H:9]>>[C:1](=[N:2][H:10])([H:7])[H:9].[C:3](=[O:4])([O:5][C:6]([H:11])([H:12])[H:13])[H:8]"
C       -2.25887259       0.03168437      -0.02178012
N       -1.24886682       0.65713677      -0.64941188
C        0.01872991      -0.44272025       0.00046551
O        0.20163323      -1.41857422      -0.69871030
O        0.93189334       0.44709200       0.48900998
C        2.27497631       0.10664478       0.17439700
H       -3.17671389       0.57792068       0.20421509
H       -0.98767273      -0.73127399       1.04432618
H       -2.39880189      -0.98858407      -0.37437532
H       -1.17520951       1.65152737      -0.48052393
H        2.55159724      -0.82145850       0.68129043
H        2.89094239       0.92542219       0.53913255
H        2.37636502       0.00518286      -0.90803518
13
Frame=9 idx=005122 GeodesicLength=1.0813627411686053 rxn_smarts="[C:1]([N:2]([C:3](=[O:4])[O:5][C:6]([H:11])([H:12])[H:13])[H:10])([H:7])([H:8])[H:9]>>[C:1](=[N:2][H:10])([H:7])[H:9].[C:3](=[O:4])([O:5][C:6]([H:11])([H:12])[H:13])[H:8]"
C       -2.26909335       0.04036031      -0.04684906
N       -1.22486381       0.66134032      -0.62658293
C        0.03059594      -0.47281971       0.08629198
O        0.20639566      -1.45262163      -0.60797172
O        0.95605312       0.39926318       0.57399204
C        2.28292338       0.11505299       0.14833498
H       -3.20134179       0.58882029       0.10415728
H       -1.05495778      -0.73319901       1.09198357
H       -2.39217045      -0.97625900      -0.41784634
H       -1.16075662       1.65720531      -0.46110940
H        2.61464187      -0.83145790       0.58217891
H        2.90189329       0.93011195       0.51594791
H        2.31068055       0.07420290      -0.94252721
13
Frame=10 idx=005122 GeodesicLength=1.1990485172621637 rxn_smarts="[C:1]([N:2]([C:3](=[O:4])[O:5][C:6]([H:11])([H:12])[H:13])[H:10])([H:7])([H:8])[H:9]>>[C:1](=[N:2][H:10])([H:7])[H:9].[C:3](=[O:4])([O:5][C:6]([H:11])([H:12])[H:13])[H:8]"
C       -2.27516773       0.04817383      -0.07103531
N       -1.20083537       0.66666378      -0.60237197
C        0.04299230      -0.50171784       0.17156709
O        0.21078258      -1.48406218      -0.52002085
O        0.98429703       0.35150048       0.65299874
C        2.28566541       0.12300368       0.12290834
H       -3.21702150       0.59658060       0.00488065
H       -1.11885972      -0.73325523       1.13604042
H       -2.37833713      -0.96502059      -0.45909936
H       -1.14741112       1.66407097      -0.44096862
H        2.66417467      -0.83697726       0.48151853
H        2.91040730       0.93298723       0.49163954
H        2.23931327       0.13805253      -0.96805719
13
Frame=11 idx=005122 GeodesicLength=1.3171319417203926 rxn_smarts="[C:1]([N:2]([C:3](=[O:4])[O:5][C:6]([H:11])([H:12])[H:13])[H:10])([H:7])([H:8])[H:9]>>[C:1](=[N:2][H:10])([H:7])[H:9].[C:3](=[O:4])([O:5][C:6]([H:11])([H:12])[H:13])[H:8]"
C       -2.27785023       0.05504994      -0.09391007
N       -1.17782490       0.67349385      -0.57710699
C        0.05615631      -0.52861533       0.25551588
O        0.21488246      -1.51216003      -0.43559914
O        1.01621956       0.30487075       0.72535706
C        2.28413593       0.13006195       0.09843432
H       -3.22499064       0.60048944      -0.09326082
H       -1.17883610      -0.73148868       1.17652709
H       -2.35797240      -0.95495691      -0.49742366
H       -1.13667437       1.67255417      -0.42087407
H        2.70026729      -0.83939964       0.38074246
H        2.91750675       0.93336509       0.46672144
H        2.16498034       0.19673539      -0.98512351
13
Frame=12 idx=005122 GeodesicLength=1.4356388575336525 rxn_smarts="[C:1]([N:2]([C:3](=[O:4])[O:5][C:6]([H:11])([H:12])[H:13])[H:10])([H:7])([H:8])[H:9]>>[C:1](=[N:2][H:10])([H:7])[H:9].[C:3](=[O:4])([O:5][C:6]([H:11])([H:12])[H:13])[H:8]"
C       -2.27786295       0.06096775      -0.11558779
N       -1.15642348       0.68197607      -0.55118743
C        0.07027246      -0.55324127       0.33789132
O        0.21878903      -1.53676400      -0.35477243
O        1.05134549       0.25969264       0.79129348
C        2.27915160       0.13606096       0.07507791
H       -3.22605637       0.60049223      -0.18956363
H       -1.23496193      -0.72815672       1.21353872
H       -2.33191926      -0.94600262      -0.53276903
H       -1.12931903       1.68278779      -0.40165972
H        2.72366786      -0.83972693       0.28059028
H        2.92393964       0.93093362       0.44149542
H        2.08937693       0.25098048      -0.99434710
13
Frame=13 idx=005122 GeodesicLength=1.5545345638600492 rxn_smarts="[C:1]([N:2]([C:3](=[O:4])[O:5][C:6]([H:11])([H:12])[H:13])[H:10])([H:7])([H:8])[H:9]>>[C:1](=[N:2][H:10])([H:7])[H:9].[C:3](=[O:4])([O:5][C:6]([H:11])([H:12])[H:13])[H:8]"
C       -2.27579228       0.06593689      -0.13624486
N       -1.13700732       0.69213830      -0.52501826
C        0.08550990      -0.57556507       0.41856936
O        0.22257867      -1.55794179      -0.27748246
O        1.08922169       0.21595988       0.85121739
C        2.27139089       0.14096573       0.05294822
H       -3.22094491       0.59679263      -0.28329280
H       -1.28743774      -0.72361745       1.24720181
H       -2.30101433      -0.93802656      -0.56519519
H       -1.12572580       1.69475932      -0.38419237
H        2.73516695      -0.83864144       0.18154306
H        2.93028622       0.92549894       0.41619265
H        2.01376804       0.30174061      -0.99624655
13
Frame=14 idx=005122 GeodesicLength=1.6737702572800792 rxn_smarts="[C:1]([N:2]([C:3](=[O:4])[O:5][C:6]([H:11])([H:12])[H:13])[H:10])([H:7])([H:8])[H:9]>>[C:1](=[N:2][H:10])([H:7])[H:9].[C:3](=[O:4])([O:5][C:6]([H:11])([H:12])[H:13])[H:8]"
C       -2.27206753       0.07007698      -0.15601800
N       -1.11975851       0.70407368      -0.49876283
C        0.10201300      -0.59580168       0.49751897
O        0.22626525      -1.57593586      -0.20364323
O        1.12947197       0.17330428       0.90561902
C        2.26133419       0.14482010       0.03206493
H       -3.21036103       0.58962396      -0.37416046
H       -1.33651454      -0.71827813       1.27768671
H       -2.26592933      -0.93072559      -0.59486416
H       -1.12596535       1.70846164      -0.36891157
H        2.73571365      -0.83638613       0.08414128
H        2.93674714       0.91718672       0.39066634
H        1.93905106       0.34958003      -0.99133701
13
Frame=15 idx=005122 GeodesicLength=1.7933037792850541 rxn_smarts="[C:1]([N:2]([C:3](=[O:4])[O:5][C:6]([H:11])([H:12])[H:13])[H:10])([H:7])([H:8])[H:9]>>[C:1](=[N:2][H:10])([H:7])[H:9].[C:3](=[O:4])([O:5][C:6]([H:11])([H:12])[H:13])[H:8]"
C       -2.26703913       0.07344683      -0.17503977
N       -1.10480078       0.71770569      -0.47267302
C        0.11994755      -0.61422019       0.57475092
O        0.22987843      -1.59102789      -0.13311939
O        1.17177781       0.13136970       0.95490728
C        2.24938064       0.14772824       0.01248086
H       -3.19489814       0.57939553      -0.46177241
H       -1.38241200      -0.71246354       1.30520294
H       -2.22732065      -0.92388395      -0.62187148
H       -1.12996660       1.72371727      -0.35652419
H        2.72599227      -0.83311065      -0.01138756
H        2.94354553       0.90599044       0.36497348
H        1.86591507       0.39535251      -0.97992767
13
Frame=16 idx=005122 GeodesicLength=1.9131038898568198 rxn_smarts="[C:1]([N:2]([C:3](=[O:4])[O:5][C:6]([H:11])([H:12])[H:13])[H:10])([H:7])([H:8])[H:9]>>[C:1](=[N:2][H:10])([H:7])[H:9].[C:3](=[O:4])([O:5][C:6]([H:11])([H:12])[H:13])[H:8]"
C       -2.26093363       0.07619025      -0.19339108
N       -1.09213746       0.73300204      -0.44685613
C        0.13946513      -0.63125611       0.65029450
O        0.23340797      -1.60358945      -0.06582533
O        1.21588149       0.08958526       0.99945873
C        2.23576410       0.14982409      -0.00578206
H       -3.17508026       0.56649630      -0.54595796
H       -1.42534026      -0.70644809       1.32998831
H       -2.18570621      -0.91718417      -0.64632369
H       -1.13745149       1.74035391      -0.34756161
H        2.70675500      -0.82865459      -0.10469759
H        2.95056944       0.89214516       0.33895374
H        1.79480617       0.43953540      -0.96229983
