10
Frame=0 idx=005552 GeodesicLength=0.0 rxn_smarts="[O:1]([c:2]1[n:3][n:4]([H:8])[c:5]([H:9])[c:6]1[H:10])[H:7]>>[O:1]([C:2]1=[N:3][C@@:6]1(/[C:5](=[N:4]/[H:8])[H:9])[H:10])[H:7]"
O        2.26599500       0.47881096      -0.50966477
C        1.10165957      -0.10630895      -0.13892344
N        0.91483035      -1.30501022       0.16462551
N       -1.51303054      -1.04475324       0.40643387
C       -1.31239053       0.18451473       0.08842867
C       -0.02305703       0.74780175       0.10329578
H        2.96475390      -0.18363841      -0.45111858
H       -2.43211283      -1.36916032       0.10061571
H       -2.12556498       0.84414085      -0.23155211
H        0.15891710       1.75360287       0.46785936
10
Frame=1 idx=005552 GeodesicLength=0.06719431433909326 rxn_smarts="[O:1]([c:2]1[n:3][n:4]([H:8])[c:5]([H:9])[c:6]1[H:10])[H:7]>>[O:1]([C:2]1=[N:3][C@@:6]1(/[C:5](=[N:4]/[H:8])[H:9])[H:10])[H:7]"
O        2.26515116       0.46439300      -0.53234318
C        1.09605436      -0.09915333      -0.14906689
N        0.89942387      -1.27383335       0.23849993
N       -1.49153028      -1.05176970       0.36846425
C       -1.31180433       0.18888901       0.07645247
C       -0.02202131       0.75423397       0.11860200
H        2.95425156      -0.20849081      -0.47360884
H       -2.41177641      -1.38625446       0.07915943
H       -2.13528172       0.85133915      -0.20820015
H        0.15753309       1.76064652       0.48204098
10
Frame=2 idx=005552 GeodesicLength=0.13752336701409712 rxn_smarts="[O:1]([c:2]1[n:3][n:4]([H:8])[c:5]([H:9])[c:6]1[H:10])[H:7]>>[O:1]([C:2]1=[N:3][C@@:6]1(/[C:5](=[N:4]/[H:8])[H:9])[H:10])[H:7]"
O        2.26250241       0.44767759      -0.55550325
C        1.09055823      -0.09225056      -0.15602945
N        0.88151797      -1.24192091       0.29733006
N       -1.46776848      -1.05687118       0.32983628
C       -1.30997649       0.19309251       0.06328850
C       -0.02121821       0.76010436       0.13095284
H        2.94334234      -0.23192092      -0.48479506
H       -2.38984691      -1.40141637       0.06389547
H       -2.14407069       0.85639407      -0.18089092
H        0.15495983       1.76711142       0.49191552
10
Frame=3 idx=005552 GeodesicLength=0.20607102479580502 rxn_smarts="[O:1]([c:2]1[n:3][n:4]([H:8])[c:5]([H:9])[c:6]1[H:10])[H:7]>>[O:1]([C:2]1=[N:3][C@@:6]1(/[C:5](=[N:4]/[H:8])[H:9])[H:10])[H:7]"
O        2.26135932       0.43127677      -0.57475680
C        1.08616883      -0.08477730      -0.16006800
N        0.86262204      -1.21096027       0.34646745
N       -1.44410503      -1.06084053       0.29252761
C       -1.30845532       0.19763627       0.04862298
C       -0.02058717       0.76671736       0.14206640
H        2.93325101      -0.25622455      -0.49497451
H       -2.36846002      -1.41676770       0.05406559
H       -2.15348090       0.85952070      -0.15565975
H        0.15168724       1.77441925       0.50170903
10
Frame=4 idx=005552 GeodesicLength=0.2750841308452943 rxn_smarts="[O:1]([c:2]1[n:3][n:4]([H:8])[c:5]([H:9])[c:6]1[H:10])[H:7]>>[O:1]([C:2]1=[N:3][C@@:6]1(/[C:5](=[N:4]/[H:8])[H:9])[H:10])[H:7]"
O        2.26008994       0.41411625      -0.59246826
C        1.08204332      -0.07691913      -0.16237889
N        0.84264853      -1.18017713       0.38886326
N       -1.42012131      -1.06305519       0.25620646
C       -1.30676755       0.20270345       0.03314760
C       -0.02027311       0.77369190       0.15210722
H        2.92271018      -0.28101773      -0.50296636
H       -2.34543116      -1.43188662       0.04695280
H       -2.16258945       0.86074509      -0.13065023
H        0.14769063       1.78179910       0.51118640
10
Frame=5 idx=005552 GeodesicLength=0.3440350477379334 rxn_smarts="[O:1]([c:2]1[n:3][n:4]([H:8])[c:5]([H:9])[c:6]1[H:10])[H:7]>>[O:1]([C:2]1=[N:3][C@@:6]1(/[C:5](=[N:4]/[H:8])[H:9])[H:10])[H:7]"
O        2.25940101       0.39699498      -0.60790119
C        1.07843244      -0.06858636      -0.16391433
N        0.82192646      -1.15013131       0.42477829
N       -1.39594205      -1.06421148       0.21850706
C       -1.30498538       0.20808222       0.01569563
C       -0.02021617       0.78086728       0.16079448
H        2.91235652      -0.30587990      -0.50876103
H       -2.32249528      -1.44624525       0.04571807
H       -2.17145435       0.86026921      -0.10609918
H        0.14297681       1.78884061       0.52118218
10
Frame=6 idx=005552 GeodesicLength=0.413071185671284 rxn_smarts="[O:1]([c:2]1[n:3][n:4]([H:8])[c:5]([H:9])[c:6]1[H:10])[H:7]>>[O:1]([C:2]1=[N:3][C@@:6]1(/[C:5](=[N:4]/[H:8])[H:9])[H:10])[H:7]"
O        2.25899842       0.37989081      -0.62127305
C        1.07518338      -0.05965454      -0.16442074
N        0.80046755      -1.12068443       0.45582479
N       -1.37160557      -1.06428196       0.17917615
C       -1.30315442       0.21397520      -0.00278229
C       -0.02047420       0.78834393       0.16880499
H        2.90150570      -0.33133906      -0.51389792
H       -2.29864401      -1.45992612       0.04951754
H       -2.17980916       0.85802519      -0.08317359
H        0.13753231       1.79565099       0.53222411
10
Frame=7 idx=005552 GeodesicLength=0.48196587257223883 rxn_smarts="[O:1]([c:2]1[n:3][n:4]([H:8])[c:5]([H:9])[c:6]1[H:10])[H:7]>>[O:1]([C:2]1=[N:3][C@@:6]1(/[C:5](=[N:4]/[H:8])[H:9])[H:10])[H:7]"
O        2.25803970       0.36145832      -0.63431010
C        1.07187889      -0.05030185      -0.16344710
N        0.77838836      -1.09090606       0.48544328
N       -1.34744064      -1.06255635       0.14189280
C       -1.30164493       0.22096403      -0.02015830
C       -0.02110149       0.79684850       0.17618591
H        2.88927222      -0.35866093      -0.51930230
H       -2.27088927      -1.47481516       0.05045718
H       -2.18831249       0.85435589      -0.05936202
H        0.13180966       1.80361360       0.54260064
10
Frame=8 idx=005552 GeodesicLength=0.551806004624485 rxn_smarts="[O:1]([c:2]1[n:3][n:4]([H:8])[c:5]([H:9])[c:6]1[H:10])[H:7]>>[O:1]([C:2]1=[N:3][C@@:6]1(/[C:5](=[N:4]/[H:8])[H:9])[H:10])[H:7]"
O        2.25789695       0.34401503      -0.64438397
C        1.06904903      -0.04026949      -0.16274075
N        0.75485132      -1.06290197       0.50761955
N       -1.32303172      -1.06028760       0.09628796
C       -1.29984269       0.22811294      -0.04111506
C       -0.02213616       0.80466002       0.18267127
H        2.87729486      -0.38499345      -0.52182263
H       -2.24326354      -1.48659795       0.06584135
H       -2.19562090       0.84887092      -0.03800010
H        0.12480286       1.80939154       0.55564238
10
Frame=9 idx=005552 GeodesicLength=0.6216989914243518 rxn_smarts="[O:1]([c:2]1[n:3][n:4]([H:8])[c:5]([H:9])[c:6]1[H:10])[H:7]>>[O:1]([C:2]1=[N:3][C@@:6]1(/[C:5](=[N:4]/[H:8])[H:9])[H:10])[H:7]"
O        2.25623809       0.32469370      -0.65473406
C        1.06581843      -0.02976679      -0.15983828
N        0.73129493      -1.03366614       0.53141532
N       -1.29877069      -1.05550391       0.05875628
C       -1.29838610       0.23659099      -0.05817927
C       -0.02353384       0.81410574       0.18962681
H        2.86209951      -0.41483017      -0.52814231
H       -2.20929814      -1.50107265       0.07124402
H       -2.20311945       0.84229377      -0.01862575
H        0.11765727       1.81715546       0.56847723
10
Frame=10 idx=005552 GeodesicLength=0.6922891681305114 rxn_smarts="[O:1]([c:2]1[n:3][n:4]([H:8])[c:5]([H:9])[c:6]1[H:10])[H:7]>>[O:1]([C:2]1=[N:3][C@@:6]1(/[C:5](=[N:4]/[H:8])[H:9])[H:10])[H:7]"
O        2.25354756       0.30487497      -0.66596122
C        1.06237451      -0.01917542      -0.15747354
N        0.70702714      -1.00574085       0.55093103
N       -1.27504546      -1.04974492       0.02165826
C       -1.29695246       0.24530955      -0.07481857
C       -0.02504908       0.82315355       0.19646204
H        2.84685660      -0.44327960      -0.53135889
H       -2.17353443      -1.51398357       0.07947930
H       -2.20970744       0.83477397      -0.00127013
H        0.11048307       1.82381231       0.58235173
10
Frame=11 idx=005552 GeodesicLength=0.7625067426537027 rxn_smarts="[O:1]([c:2]1[n:3][n:4]([H:8])[c:5]([H:9])[c:6]1[H:10])[H:7]>>[O:1]([C:2]1=[N:3][C@@:6]1(/[C:5](=[N:4]/[H:8])[H:9])[H:10])[H:7]"
O        2.24956783       0.28382339      -0.67809815
C        1.05897328      -0.00828538      -0.15410175
N        0.68339325      -0.97748786       0.57053229
N       -1.25144861      -1.04292198      -0.00945199
C       -1.29568562       0.25438018      -0.08893231
C       -0.02663303       0.83299015       0.20357018
H        2.83006393      -0.47290683      -0.53558585
H       -2.13532485      -1.52767611       0.08153198
H       -2.21618688       0.82651909       0.01450369
H        0.10328071       1.83156535       0.59603190
10
Frame=12 idx=005552 GeodesicLength=0.8336480612817226 rxn_smarts="[O:1]([c:2]1[n:3][n:4]([H:8])[c:5]([H:9])[c:6]1[H:10])[H:7]>>[O:1]([C:2]1=[N:3][C@@:6]1(/[C:5](=[N:4]/[H:8])[H:9])[H:10])[H:7]"
O        2.24420680       0.26158106      -0.69117400
C        1.05565137       0.00295567      -0.15006297
N        0.66002416      -0.94885292       0.58941401
N       -1.22772823      -1.03497557      -0.03676576
C       -1.29425477       0.26361042      -0.10147325
C       -0.02826834       0.84314827       0.21062635
H        2.81193625      -0.50286730      -0.53963648
H       -2.09535926      -1.54121692       0.08016047
H       -2.22205307       0.81728079       0.02908628
H        0.09584509       1.83933650       0.60982536
10
Frame=13 idx=005552 GeodesicLength=0.9045567817382706 rxn_smarts="[O:1]([c:2]1[n:3][n:4]([H:8])[c:5]([H:9])[c:6]1[H:10])[H:7]>>[O:1]([C:2]1=[N:3][C@@:6]1(/[C:5](=[N:4]/[H:8])[H:9])[H:10])[H:7]"
O        2.23753807       0.23865122      -0.70555015
C        1.05243160       0.01414280      -0.14645285
N        0.63718114      -0.92121541       0.60588239
N       -1.20443440      -1.02666003      -0.06165303
C       -1.29283997       0.27279965      -0.11311093
C       -0.02981835       0.85314210       0.21774873
H        2.79401199      -0.53145314      -0.54173460
H       -2.05512666      -1.55382403       0.07872516
H       -2.22745363       0.80781158       0.04158962
H        0.08851020       1.84660526       0.62455564
10
Frame=14 idx=005552 GeodesicLength=0.9756556192926445 rxn_smarts="[O:1]([c:2]1[n:3][n:4]([H:8])[c:5]([H:9])[c:6]1[H:10])[H:7]>>[O:1]([C:2]1=[N:3][C@@:6]1(/[C:5](=[N:4]/[H:8])[H:9])[H:10])[H:7]"
O        2.22956122       0.21495133      -0.72066789
C        1.04947946       0.02555748      -0.14251183
N        0.61494312      -0.89387233       0.62121887
N       -1.18116612      -1.01790831      -0.08398176
C       -1.29127607       0.28190795      -0.12380194
C       -0.03132226       0.86320647       0.22499569
H        2.77548083      -0.55964835      -0.54342854
H       -2.01428640      -1.56580069       0.07600954
H       -2.23238538       0.79792201       0.05227853
H        0.08097160       1.85368444       0.63988933
10
Frame=15 idx=005552 GeodesicLength=1.04696538329719 rxn_smarts="[O:1]([c:2]1[n:3][n:4]([H:8])[c:5]([H:9])[c:6]1[H:10])[H:7]>>[O:1]([C:2]1=[N:3][C@@:6]1(/[C:5](=[N:4]/[H:8])[H:9])[H:10])[H:7]"
O        2.22025383       0.19059466      -0.73624062
C        1.04689626       0.03728584      -0.13803827
N        0.59339158      -0.86674153       0.63573610
N       -1.15775175      -1.00882236      -0.10405187
C       -1.28946947       0.29088217      -0.13371709
C       -0.03277249       0.87336941       0.23244283
H        2.75612171      -0.58769798      -0.54522912
H       -1.97291934      -1.57715627       0.07219078
H       -2.23685761       0.78766245       0.06105628
H        0.07310728       1.86062361       0.65585099
10
Frame=16 idx=005552 GeodesicLength=1.1185511426834993 rxn_smarts="[O:1]([c:2]1[n:3][n:4]([H:8])[c:5]([H:9])[c:6]1[H:10])[H:7]>>[O:1]([C:2]1=[N:3][C@@:6]1(/[C:5](=[N:4]/[H:8])[H:9])[H:10])[H:7]"
O        2.20920208       0.16514252      -0.75303971
C        1.04462957       0.04910740      -0.13337719
N        0.57250483      -0.83998757       0.64924782
N       -1.13433833      -0.99942762      -0.12207883
C       -1.28747328       0.29971498      -0.14276715
C       -0.03409053       0.88347623       0.23999350
H        2.73665866      -0.61467253      -0.54593390
H       -1.93137702      -1.58778388       0.06724653
H       -2.24087950       0.77718202       0.06847088
H        0.06516352       1.86724845       0.67223805
