16
Frame=0 idx=007636 GeodesicLength=0.0 rxn_smarts="[C:1]([C@:2]12[C:3]([H:11])([H:12])[C@@:4]1([H:13])[C@@:5]1([H:14])[N:6]([H:15])[C@@:7]21[H:16])([H:8])([H:9])[H:10]>>[C:1]([C@:2]1([H:12])[C@:4]([C:3][H:11])([H:13])[C@@:5]2([H:14])[N:6]([H:15])[C@@:7]12[H:16])([H:8])([H:9])[H:10]"
C        1.56634926      -0.62022975       0.84202316
C        0.40325265      -0.23115261      -0.01871537
C        0.34776860       1.05991455      -1.28889886
C       -0.28620291       1.10984689       0.04476559
C       -1.67033587       0.40729966       0.17029485
N       -1.90966824      -0.45757905      -0.95551398
C       -0.99865667      -0.91133425       0.06275064
H        1.23575850      -0.74161305       1.87693221
H        2.34198640       0.14597536       0.82206155
H        2.00900787      -1.56397801       0.51805612
H        1.35897632       1.47394794      -1.18838269
H        0.65786084      -0.25223453      -1.23802031
H        0.03604403       1.82499916       0.79145647
H       -2.49708767       0.72914517       0.78774669
H       -1.42885902      -0.11493489      -1.78666344
H       -1.16619409      -1.85807262       0.56010738
16
Frame=1 idx=007636 GeodesicLength=0.05270938935551872 rxn_smarts="[C:1]([C@:2]12[C:3]([H:11])([H:12])[C@@:4]1([H:13])[C@@:5]1([H:14])[N:6]([H:15])[C@@:7]21[H:16])([H:8])([H:9])[H:10]>>[C:1]([C@:2]1([H:12])[C@:4]([C:3][H:11])([H:13])[C@@:5]2([H:14])[N:6]([H:15])[C@@:7]12[H:16])([H:8])([H:9])[H:10]"
C        1.56348373      -0.61984499       0.84349691
C        0.40556947      -0.23341910      -0.02625228
C        0.35018642       1.06273971      -1.28452194
C       -0.28609944       1.11139625       0.04503017
C       -1.66795653       0.40655408       0.17122672
N       -1.91041432      -0.45884468      -0.95351465
C       -0.99633549      -0.91160328       0.06287967
H        1.22920536      -0.73523028       1.87816857
H        2.34221076       0.14341807       0.82306667
H        2.00488107      -1.56679123       0.52603793
H        1.35952593       1.48195659      -1.18786654
H        0.65923153      -0.25679160      -1.26020141
H        0.03619553       1.82283039       0.79579478
H       -2.49329183       0.72777946       0.79095196
H       -1.43285375      -0.11699001      -1.78693343
H       -1.16353845      -1.85715938       0.56263688
16
Frame=2 idx=007636 GeodesicLength=0.10471623555674656 rxn_smarts="[C:1]([C@:2]12[C:3]([H:11])([H:12])[C@@:4]1([H:13])[C@@:5]1([H:14])[N:6]([H:15])[C@@:7]21[H:16])([H:8])([H:9])[H:10]>>[C:1]([C@:2]1([H:12])[C@:4]([C:3][H:11])([H:13])[C@@:5]2([H:14])[N:6]([H:15])[C@@:7]12[H:16])([H:8])([H:9])[H:10]"
C        1.56062172      -0.61949003       0.84493457
C        0.40787902      -0.23564156      -0.03368011
C        0.35274294       1.06521730      -1.28013659
C       -0.28603115       1.11305600       0.04533826
C       -1.66556646       0.40582125       0.17214742
N       -1.91106087      -0.46012551      -0.95150755
C       -0.99397947      -0.91185194       0.06306042
H        1.22270159      -0.72887195       1.87929633
H        2.34239401       0.14080338       0.82417254
H        2.00060217      -1.56953274       0.53401623
H        1.36006644       1.48983307      -1.18732674
H        0.66038297      -0.26088930      -1.28246934
H        0.03634257       1.82069046       0.80006148
H       -2.48946656       0.72638242       0.79416245
H       -1.43682195      -0.11915088      -1.78716816
H       -1.16080697      -1.85624996       0.56509879
16
Frame=3 idx=007636 GeodesicLength=0.15597947622161784 rxn_smarts="[C:1]([C@:2]12[C:3]([H:11])([H:12])[C@@:4]1([H:13])[C@@:5]1([H:14])[N:6]([H:15])[C@@:7]21[H:16])([H:8])([H:9])[H:10]>>[C:1]([C@:2]1([H:12])[C@:4]([C:3][H:11])([H:13])[C@@:5]2([H:14])[N:6]([H:15])[C@@:7]12[H:16])([H:8])([H:9])[H:10]"
C        1.55776996      -0.61911464       0.84633825
C        0.41017651      -0.23783708      -0.04090755
C        0.35546335       1.06740360      -1.27573787
C       -0.28597205       1.11472582       0.04565309
C       -1.66319231       0.40510283       0.17303172
N       -1.91165898      -0.46143958      -0.94950589
C       -0.99157380      -0.91209071       0.06323223
H        1.21623915      -0.72257095       1.88043515
H        2.34259039       0.13811768       0.82524748
H        1.99627829      -1.57220905       0.54187129
H        1.36058162       1.49768906      -1.18672230
H        0.66123419      -0.26462844      -1.30473701
H        0.03651058       1.81859545       0.80432078
H       -2.48567848       0.72501478       0.79728538
H       -1.44069973      -0.12144059      -1.78738129
H       -1.15806870      -1.85531818       0.56757653
16
Frame=4 idx=007636 GeodesicLength=0.206433346989917 rxn_smarts="[C:1]([C@:2]12[C:3]([H:11])([H:12])[C@@:4]1([H:13])[C@@:5]1([H:14])[N:6]([H:15])[C@@:7]21[H:16])([H:8])([H:9])[H:10]>>[C:1]([C@:2]1([H:12])[C@:4]([C:3][H:11])([H:13])[C@@:5]2([H:14])[N:6]([H:15])[C@@:7]12[H:16])([H:8])([H:9])[H:10]"
C        1.55487560      -0.61876194       0.84783168
C        0.41249260      -0.23998354      -0.04801669
C        0.35835159       1.06925178      -1.27135294
C       -0.28590822       1.11646373       0.04604988
C       -1.66076503       0.40438402       0.17389945
N       -1.91218374      -0.46276796      -0.94751129
C       -0.98912843      -0.91231542       0.06340891
H        1.20986571      -0.71631370       1.88142646
H        2.34274024       0.13539312       0.82641626
H        1.99184581      -1.57482769       0.54968843
H        1.36101957       1.50551226      -1.18612831
H        0.66179140      -0.26801855      -1.32702234
H        0.03667184       1.81652999       0.80847897
H       -2.48184610       0.72361610       0.80037486
H       -1.44453312      -0.12377197      -1.78756653
H       -1.15528973      -1.85439024       0.57002319
16
Frame=5 idx=007636 GeodesicLength=0.25632030311088055 rxn_smarts="[C:1]([C@:2]12[C:3]([H:11])([H:12])[C@@:4]1([H:13])[C@@:5]1([H:14])[N:6]([H:15])[C@@:7]21[H:16])([H:8])([H:9])[H:10]>>[C:1]([C@:2]1([H:12])[C@:4]([C:3][H:11])([H:13])[C@@:5]2([H:14])[N:6]([H:15])[C@@:7]12[H:16])([H:8])([H:9])[H:10]"
C        1.55201926      -0.61844934       0.84926460
C        0.41475798      -0.24208176      -0.05487806
C        0.36139388       1.07082042      -1.26694178
C       -0.28587411       1.11827489       0.04645642
C       -1.65836334       0.40372632       0.17469024
N       -1.91262270      -0.46412175      -0.94552324
C       -0.98669537      -0.91252432       0.06366033
H        1.20358160      -0.71026743       1.88230468
H        2.34285162       0.13271857       0.82768424
H        1.98741290      -1.57735398       0.55727455
H        1.36138466       1.51322385      -1.18553554
H        0.66221146      -0.27112142      -1.34924876
H        0.03681083       1.81453987       0.81263715
H       -2.47808103       0.72227927       0.80337414
H       -1.44826903      -0.12623947      -1.78775119
H       -1.15251859      -1.85342372       0.57253221
16
Frame=6 idx=007636 GeodesicLength=0.30554776679657397 rxn_smarts="[C:1]([C@:2]12[C:3]([H:11])([H:12])[C@@:4]1([H:13])[C@@:5]1([H:14])[N:6]([H:15])[C@@:7]21[H:16])([H:8])([H:9])[H:10]>>[C:1]([C@:2]1([H:12])[C@:4]([C:3][H:11])([H:13])[C@@:5]2([H:14])[N:6]([H:15])[C@@:7]12[H:16])([H:8])([H:9])[H:10]"
C        1.54916004      -0.61816042       0.85069026
C        0.41699537      -0.24412150      -0.06158861
C        0.36462965       1.07202872      -1.26252070
C       -0.28584546       1.12013885       0.04691963
C       -1.65594880       0.40307361       0.17546442
N       -1.91296643      -0.46550727      -0.94355157
C       -0.98420152      -0.91272367       0.06390238
H        1.19737793      -0.70422933       1.88311478
H        2.34293641       0.12997769       0.82900310
H        1.98285491      -1.57980050       0.56480630
H        1.36172899       1.52086705      -1.18492527
H        0.66233317      -0.27379634      -1.37154727
H        0.03694230       1.81256750       0.81676282
H       -2.47432326       0.72093739       0.80631222
H       -1.45196089      -0.12880435      -1.78788002
H       -1.14971240      -1.85244744       0.57503751
16
Frame=7 idx=007636 GeodesicLength=0.3540102037647213 rxn_smarts="[C:1]([C@:2]12[C:3]([H:11])([H:12])[C@@:4]1([H:13])[C@@:5]1([H:14])[N:6]([H:15])[C@@:7]21[H:16])([H:8])([H:9])[H:10]>>[C:1]([C@:2]1([H:12])[C@:4]([C:3][H:11])([H:13])[C@@:5]2([H:14])[N:6]([H:15])[C@@:7]12[H:16])([H:8])([H:9])[H:10]"
C        1.54626201      -0.61787553       0.85220829
C        0.41926458      -0.24617413      -0.06816053
C        0.36799224       1.07298439      -1.25813295
C       -0.28579124       1.12200611       0.04737574
C       -1.65351540       0.40241327       0.17624267
N       -1.91330251      -0.46689506      -0.94155917
C       -0.98166982      -0.91288592       0.06411807
H        1.19121951      -0.69824337       1.88390308
H        2.34302740       0.12721030       0.83032489
H        1.97823787      -1.58217868       0.57228931
H        1.36197923       1.52846434      -1.18431985
H        0.66223049      -0.27611226      -1.39381851
H        0.03711380       1.81063481       0.82087248
H       -2.47053733       0.71961338       0.80919250
H       -1.45561808      -0.13148747      -1.78798660
H       -1.14689275      -1.85147417       0.57745058
16
Frame=8 idx=007636 GeodesicLength=0.4018585797531282 rxn_smarts="[C:1]([C@:2]12[C:3]([H:11])([H:12])[C@@:4]1([H:13])[C@@:5]1([H:14])[N:6]([H:15])[C@@:7]21[H:16])([H:8])([H:9])[H:10]>>[C:1]([C@:2]1([H:12])[C@:4]([C:3][H:11])([H:13])[C@@:5]2([H:14])[N:6]([H:15])[C@@:7]12[H:16])([H:8])([H:9])[H:10]"
C        1.54336174      -0.61758599       0.85373691
C        0.42154536      -0.24820255      -0.07457718
C        0.37151387       1.07367343      -1.25374307
C       -0.28574126       1.12391468       0.04785370
C       -1.65107408       0.40175682       0.17699376
N       -1.91357124      -0.46831810      -0.93957534
C       -0.97907060      -0.91304789       0.06430582
H        1.18514470      -0.69230395       1.88464350
H        2.34309649       0.12441064       0.83178185
H        1.97358543      -1.58448886       0.57966955
H        1.36221224       1.53592839      -1.18369192
H        0.66172707      -0.27803577      -1.41615938
H        0.03728927       1.80871581       0.82494916
H       -2.46676076       0.71829987       0.81200531
H       -1.45920533      -0.13427178      -1.78806349
H       -1.14405289      -1.85044475       0.57987082
16
Frame=9 idx=007636 GeodesicLength=0.44921806263188113 rxn_smarts="[C:1]([C@:2]12[C:3]([H:11])([H:12])[C@@:4]1([H:13])[C@@:5]1([H:14])[N:6]([H:15])[C@@:7]21[H:16])([H:8])([H:9])[H:10]>>[C:1]([C@:2]1([H:12])[C@:4]([C:3][H:11])([H:13])[C@@:5]2([H:14])[N:6]([H:15])[C@@:7]12[H:16])([H:8])([H:9])[H:10]"
C        1.54055638      -0.61733546       0.85516295
C        0.42375317      -0.25017258      -0.08074223
C        0.37523318       1.07396849      -1.24931337
C       -0.28575663       1.12591604       0.04837668
C       -1.64867136       0.40112955       0.17771335
N       -1.91380326      -0.46975680      -0.93756215
C       -0.97649968      -0.91318496       0.06455384
H        1.17908439      -0.68654062       1.88541047
H        2.34314058       0.12166825       0.83332247
H        1.96899461      -1.58664136       0.58675978
H        1.36246234       1.54330560      -1.18307636
H        0.66105552      -0.27974796      -1.43844359
H        0.03743648       1.80686872       0.82897271
H       -2.46306872       0.71706114       0.81470267
H       -1.46271269      -0.13709855      -1.78811321
H       -1.14120431      -1.84943950       0.58227599
16
Frame=10 idx=007636 GeodesicLength=0.4960354340276437 rxn_smarts="[C:1]([C@:2]12[C:3]([H:11])([H:12])[C@@:4]1([H:13])[C@@:5]1([H:14])[N:6]([H:15])[C@@:7]21[H:16])([H:8])([H:9])[H:10]>>[C:1]([C@:2]1([H:12])[C@:4]([C:3][H:11])([H:13])[C@@:5]2([H:14])[N:6]([H:15])[C@@:7]12[H:16])([H:8])([H:9])[H:10]"
C        1.53771880      -0.61710344       0.85661419
C        0.42596802      -0.25215028      -0.08681801
C        0.37910176       1.07398050      -1.24485820
C       -0.28574498       1.12792368       0.04895156
C       -1.64623689       0.40052362       0.17839702
N       -1.91396085      -0.47122917      -0.93556889
C       -0.97389282      -0.91333142       0.06481399
H        1.17310751      -0.68077067       1.88606942
H        2.34316641       0.11882680       0.83489732
H        1.96428453      -1.58871924       0.59386346
H        1.36261737       1.55066830      -1.18244779
H        0.66012137      -0.28106033      -1.46081051
H        0.03758291       1.80505812       0.83299516
H       -2.45934216       0.71581803       0.81733759
H       -1.46615036      -0.14002683      -1.78815608
H       -1.13834062      -1.84840768       0.58471977
16
Frame=11 idx=007636 GeodesicLength=0.5422694235646079 rxn_smarts="[C:1]([C@:2]12[C:3]([H:11])([H:12])[C@@:4]1([H:13])[C@@:5]1([H:14])[N:6]([H:15])[C@@:7]21[H:16])([H:8])([H:9])[H:10]>>[C:1]([C@:2]1([H:12])[C@:4]([C:3][H:11])([H:13])[C@@:5]2([H:14])[N:6]([H:15])[C@@:7]12[H:16])([H:8])([H:9])[H:10]"
C        1.53490723      -0.61689676       0.85813079
C        0.42818831      -0.25409401      -0.09275746
C        0.38308253       1.07378315      -1.24045118
C       -0.28573634       1.12998029       0.04950202
C       -1.64381970       0.39992782       0.17908834
N       -1.91406779      -0.47269841      -0.93356565
C       -0.97127168      -0.91344633       0.06506337
H        1.16717448      -0.67507890       1.88670846
H        2.34316162       0.11600552       0.83660584
H        1.95958283      -1.59075765       0.60085550
H        1.36279809       1.55791593      -1.18182269
H        0.65892615      -0.28204630      -1.48319488
H        0.03773819       1.80326605       0.83694974
H       -2.45562684       0.71457284       0.81994674
H       -1.46958810      -0.14306430      -1.78817479
H       -1.13544900      -1.84736893       0.58711584
16
Frame=12 idx=007636 GeodesicLength=0.5881488930195585 rxn_smarts="[C:1]([C@:2]12[C:3]([H:11])([H:12])[C@@:4]1([H:13])[C@@:5]1([H:14])[N:6]([H:15])[C@@:7]21[H:16])([H:8])([H:9])[H:10]>>[C:1]([C@:2]1([H:12])[C@:4]([C:3][H:11])([H:13])[C@@:5]2([H:14])[N:6]([H:15])[C@@:7]12[H:16])([H:8])([H:9])[H:10]"
C        1.53206950      -0.61667401       0.85965534
C        0.43045001      -0.25606285      -0.09860336
C        0.38726516       1.07328814      -1.23600107
C       -0.28573684       1.13209477       0.05007154
C       -1.64136529       0.39934422       0.17974100
N       -1.91413046      -0.47421826      -0.93154540
C       -0.96859002      -0.91355709       0.06529250
H        1.16126677      -0.66936442       1.88731197
H        2.34313083       0.11308395       0.83834515
H        1.95477775      -1.59276317       0.60792393
H        1.36292438       1.56512762      -1.18122095
H        0.65739163      -0.28257487      -1.50573030
H        0.03790638       1.80151195       0.84089479
H       -2.45187185       0.71329907       0.82254715
H       -1.47296224      -0.14621203      -1.78815462
H       -1.13252572      -1.84632301       0.58947235
16
Frame=13 idx=007636 GeodesicLength=0.6335188551447345 rxn_smarts="[C:1]([C@:2]12[C:3]([H:11])([H:12])[C@@:4]1([H:13])[C@@:5]1([H:14])[N:6]([H:15])[C@@:7]21[H:16])([H:8])([H:9])[H:10]>>[C:1]([C@:2]1([H:12])[C@:4]([C:3][H:11])([H:13])[C@@:5]2([H:14])[N:6]([H:15])[C@@:7]12[H:16])([H:8])([H:9])[H:10]"
C        1.52919108      -0.61649087       0.86131169
C        0.43273054      -0.25803620      -0.10439627
C        0.39160447       1.07260352      -1.23158403
C       -0.28569881       1.13422188       0.05060310
C       -1.63888511       0.39874911       0.18034467
N       -1.91417722      -0.47579792      -0.92950424
C       -0.96586969      -0.91368185       0.06556992
H        1.15540406      -0.66372079       1.88785615
H        2.34308745       0.11017161       0.84017167
H        1.94995389      -1.59473888       0.61490841
H        1.36302365       1.57234626      -1.18058397
H        0.65562893      -0.28279255      -1.52832186
H        0.03807376       1.79977482       0.84477876
H       -2.44811802       0.71206728       0.82506001
H       -1.47637738      -0.14937943      -1.78808919
H       -1.12957160      -1.84529599       0.59187520
16
Frame=14 idx=007636 GeodesicLength=0.6783596966018401 rxn_smarts="[C:1]([C@:2]12[C:3]([H:11])([H:12])[C@@:4]1([H:13])[C@@:5]1([H:14])[N:6]([H:15])[C@@:7]21[H:16])([H:8])([H:9])[H:10]>>[C:1]([C@:2]1([H:12])[C@:4]([C:3][H:11])([H:13])[C@@:5]2([H:14])[N:6]([H:15])[C@@:7]12[H:16])([H:8])([H:9])[H:10]"
C        1.52634679      -0.61631763       0.86295265
C        0.43499155      -0.26001057      -0.10994083
C        0.39607794       1.07167504      -1.22714645
C       -0.28568018       1.13636790       0.05120435
C       -1.63641142       0.39819963       0.18088077
N       -1.91413820      -0.47736952      -0.92747821
C       -0.96315962      -0.91378033       0.06586828
H        1.14962188      -0.65820728       1.88836427
H        2.34303696       0.10725402       0.84206794
H        1.94518567      -1.59664184       0.62172242
H        1.36305902       1.57942411      -1.17998401
H        0.65352697      -0.28260615      -1.55089284
H        0.03823102       1.79805911       0.84863187
H       -2.44441896       0.71088074       0.82745680
H       -1.47962393      -0.15271288      -1.78803206
H       -1.12664549      -1.84421434       0.59432505
16
Frame=15 idx=007636 GeodesicLength=0.7225928893645395 rxn_smarts="[C:1]([C@:2]12[C:3]([H:11])([H:12])[C@@:4]1([H:13])[C@@:5]1([H:14])[N:6]([H:15])[C@@:7]21[H:16])([H:8])([H:9])[H:10]>>[C:1]([C@:2]1([H:12])[C@:4]([C:3][H:11])([H:13])[C@@:5]2([H:14])[N:6]([H:15])[C@@:7]12[H:16])([H:8])([H:9])[H:10]"
C        1.52353794      -0.61614798       0.86466260
C        0.43726322      -0.26201804      -0.11533797
C        0.40075645       1.07044224      -1.22276448
C       -0.28563663       1.13854525       0.05175494
C       -1.63391642       0.39765342       0.18141012
N       -1.91405957      -0.47898585      -0.92545996
C       -0.96039801      -0.91389676       0.06617055
H        1.14392740      -0.65272089       1.88885217
H        2.34295945       0.10431870       0.84408556
H        1.94038681      -1.59858716       0.62853839
H        1.36301051       1.58638886      -1.17942072
H        0.65101175      -0.28181867      -1.57350575
H        0.03841186       1.79637886       0.85245241
H       -2.44072934       0.70971531       0.82975418
H       -1.48283939      -0.15612267      -1.78793383
H       -1.12368601      -1.84314463       0.59674179
16
Frame=16 idx=007636 GeodesicLength=0.7662922958547184 rxn_smarts="[C:1]([C@:2]12[C:3]([H:11])([H:12])[C@@:4]1([H:13])[C@@:5]1([H:14])[N:6]([H:15])[C@@:7]21[H:16])([H:8])([H:9])[H:10]>>[C:1]([C@:2]1([H:12])[C@:4]([C:3][H:11])([H:13])[C@@:5]2([H:14])[N:6]([H:15])[C@@:7]12[H:16])([H:8])([H:9])[H:10]"
C        1.52076497      -0.61601510       0.86641389
C        0.43953788      -0.26401088      -0.12054698
C        0.40560269       1.06891235      -1.21840539
C       -0.28556446       1.14072541       0.05231527
C       -1.63139739       0.39710475       0.18194489
N       -1.91391363      -0.48056858      -0.92345593
C       -0.95764049      -0.91399233       0.06645965
H        1.13824746      -0.64738203       1.88932382
H        2.34280591       0.10137269       0.84629237
H        1.93568767      -1.60032327       0.63522829
H        1.36291385       1.59323869      -1.17888830
H        0.64808618      -0.28068181      -1.59611954
H        0.03862153       1.79476416       0.85613810
H       -2.43701564       0.70857610       0.83202816
H       -1.48598796      -0.15962560      -1.78782947
H       -1.12074857      -1.84209455       0.59910115
