8
Frame=0 idx=003315 GeodesicLength=0.0 rxn_smarts="[O:1]=[C:2]([C:3]([C:4]#[N:5])([H:7])[H:8])[H:6]>>[O:1]=[C:4]1[C:3]([H:7])([H:8])[C:2]([H:6])=[N:5]1"
O       -0.58178476       0.63592593      -1.30422109
C       -0.22629102       0.58840827       0.32848636
C       -0.07381880      -0.88947498       0.20818913
C        0.56124519       0.10899213      -0.80197197
N        1.28855687       0.94674793      -0.08642189
H       -0.65713030       1.41866827       0.85974385
H       -0.93077649      -1.47155297      -0.11181373
H        0.61999934      -1.33771458       0.90800936
8
Frame=1 idx=003315 GeodesicLength=0.11442577499391737 rxn_smarts="[O:1]=[C:2]([C:3]([C:4]#[N:5])([H:7])[H:8])[H:6]>>[O:1]=[C:4]1[C:3]([H:7])([H:8])[C:2]([H:6])=[N:5]1"
O       -0.59295419       0.63438780      -1.31613647
C       -0.24119891       0.59345176       0.32803980
C       -0.07133357      -0.88402239       0.20618928
C        0.57416402       0.10086614      -0.80718585
N        1.29466386       0.94393127      -0.09252713
H       -0.65208093       1.41955631       0.88227463
H       -0.92116832      -1.47437144      -0.11817715
H        0.60990803      -1.33379944       0.91752289
8
Frame=2 idx=003315 GeodesicLength=0.22888336556994285 rxn_smarts="[O:1]=[C:2]([C:3]([C:4]#[N:5])([H:7])[H:8])[H:6]>>[O:1]=[C:4]1[C:3]([H:7])([H:8])[C:2]([H:6])=[N:5]1"
O       -0.60428152       0.63262369      -1.32854811
C       -0.25652219       0.59877341       0.32727932
C       -0.06893983      -0.87816888       0.20425294
C        0.58764476       0.09243679      -0.81232586
N        1.30079901       0.94137551      -0.09878771
H       -0.64661663       1.41935789       0.90548130
H       -0.91149072      -1.47688156      -0.12435749
H        0.59940714      -1.32951685       0.92700560
8
Frame=3 idx=003315 GeodesicLength=0.34325620053665307 rxn_smarts="[O:1]=[C:2]([C:3]([C:4]#[N:5])([H:7])[H:8])[H:6]>>[O:1]=[C:4]1[C:3]([H:7])([H:8])[C:2]([H:6])=[N:5]1"
O       -0.61577335       0.63059147      -1.34136952
C       -0.27226287       0.60437550       0.32621010
C       -0.06662850      -0.87184184       0.20236409
C        0.60173035       0.08367405      -0.81732360
N        1.30697915       0.93902566      -0.10521902
H       -0.64079443       1.41793463       0.92927822
H       -0.90175711      -1.47894976      -0.13030436
H        0.58850676      -1.32480972       0.93636410
8
Frame=4 idx=003315 GeodesicLength=0.45785971782463314 rxn_smarts="[O:1]=[C:2]([C:3]([C:4]#[N:5])([H:7])[H:8])[H:6]>>[O:1]=[C:4]1[C:3]([H:7])([H:8])[C:2]([H:6])=[N:5]1"
O       -0.62749335       0.62837330      -1.35469735
C       -0.28839777       0.61032631       0.32489409
C       -0.06440251      -0.86510737       0.20054518
C        0.61641940       0.07457957      -0.82219650
N        1.31323843       0.93697342      -0.11180568
H       -0.63460102       1.41535736       0.95361820
H       -0.89200393      -1.48069179      -0.13602292
H        0.57724075      -1.31981079       0.94566497
8
Frame=5 idx=003315 GeodesicLength=0.5720922722027662 rxn_smarts="[O:1]=[C:2]([C:3]([C:4]#[N:5])([H:7])[H:8])[H:6]>>[O:1]=[C:4]1[C:3]([H:7])([H:8])[C:2]([H:6])=[N:5]1"
O       -0.63941025       0.62591210      -1.36823276
C       -0.30489395       0.61652814       0.32338030
C       -0.06226432      -0.85782213       0.19877449
C        0.63175422       0.06516212      -0.82681741
N        1.31960589       0.93510060      -0.11860404
H       -0.62812635       1.41131352       0.97821198
H       -0.88223630      -1.48187028      -0.14142591
H        0.56557105      -1.31432407       0.95471335
8
Frame=6 idx=003315 GeodesicLength=0.6866651275095472 rxn_smarts="[O:1]=[C:2]([C:3]([C:4]#[N:5])([H:7])[H:8])[H:6]>>[O:1]=[C:4]1[C:3]([H:7])([H:8])[C:2]([H:6])=[N:5]1"
O       -0.65167949       0.62335991      -1.38214697
C       -0.32171280       0.62311344       0.32177618
C       -0.06017294      -0.85011945       0.19707134
C        0.64771998       0.05537490      -0.83124182
N        1.32612439       0.93349703      -0.12555736
H       -0.62139663       1.40607087       1.00301830
H       -0.87246841      -1.48267156      -0.14658165
H        0.55358590      -1.30862514       0.96366198
8
Frame=7 idx=003315 GeodesicLength=0.8008825889788733 rxn_smarts="[O:1]=[C:2]([C:3]([C:4]#[N:5])([H:7])[H:8])[H:6]>>[O:1]=[C:4]1[C:3]([H:7])([H:8])[C:2]([H:6])=[N:5]1"
O       -0.66418926       0.62054285      -1.39622284
C       -0.33890223       0.62994016       0.32003169
C       -0.05816537      -0.84185093       0.19539613
C        0.66439335       0.04524332      -0.83532708
N        1.33275297       0.93209406      -0.13275295
H       -0.61440215       1.39940746       1.02798324
H       -0.86269477      -1.48288254      -0.15140180
H        0.54120746      -1.30249437       0.97229362
8
Frame=8 idx=003315 GeodesicLength=0.9154171378054212 rxn_smarts="[O:1]=[C:2]([C:3]([C:4]#[N:5])([H:7])[H:8])[H:6]>>[O:1]=[C:4]1[C:3]([H:7])([H:8])[C:2]([H:6])=[N:5]1"
O       -0.67714112       0.61767452      -1.41051652
C       -0.35637064       0.63711182       0.31834792
C       -0.05617739      -0.83316506       0.19376459
C        0.68175362       0.03470936      -0.83911439
N        1.33958502       0.93093173      -0.14011576
H       -0.60727930       1.39164412       1.05287506
H       -0.85294556      -1.48267563      -0.15596595
H        0.52857536      -1.29623086       0.98072505
8
Frame=9 idx=003315 GeodesicLength=1.0297720607769592 rxn_smarts="[O:1]=[C:2]([C:3]([C:4]#[N:5])([H:7])[H:8])[H:6]>>[O:1]=[C:4]1[C:3]([H:7])([H:8])[C:2]([H:6])=[N:5]1"
O       -0.69054537       0.61475529      -1.42466310
C       -0.37406585       0.64449332       0.31685051
C       -0.05417891      -0.82394875       0.19215502
C        0.69984410       0.02374999      -0.84247839
N        1.34665320       0.92984710      -0.14768451
H       -0.60019239       1.38261703       1.07729346
H       -0.84320369      -1.48182039      -0.16020837
H        0.51568890      -1.28969360       0.98873538
8
Frame=10 idx=003315 GeodesicLength=1.1441825386411586 rxn_smarts="[O:1]=[C:2]([C:3]([C:4]#[N:5])([H:7])[H:8])[H:6]>>[O:1]=[C:4]1[C:3]([H:7])([H:8])[C:2]([H:6])=[N:5]1"
O       -0.70448077       0.61187440      -1.43871654
C       -0.39195467       0.65207772       0.31565109
C       -0.05214120      -0.81433453       0.19055489
C        0.71868511       0.01235995      -0.84543136
N        1.35395920       0.92893481      -0.15544878
H       -0.59318004       1.37271025       1.10119287
H       -0.83347711      -1.48049236      -0.16418410
H        0.50258948      -1.28313025       0.99638193
8
Frame=11 idx=003315 GeodesicLength=1.2585995245658885 rxn_smarts="[O:1]=[C:2]([C:3]([C:4]#[N:5])([H:7])[H:8])[H:6]>>[O:1]=[C:4]1[C:3]([H:7])([H:8])[C:2]([H:6])=[N:5]1"
O       -0.71900692       0.60899796      -1.45254610
C       -0.41004780       0.65980644       0.31479847
C       -0.05003673      -0.80428888       0.18892299
C        0.73833292       0.00046983      -0.84789171
N        1.36152727       0.92810455      -0.16341324
H       -0.58634164       1.36203869       1.12449405
H       -0.82375847      -1.47860669      -0.16793398
H        0.48933138      -1.27652190       1.00356951
8
Frame=12 idx=003315 GeodesicLength=1.3732322592628317 rxn_smarts="[O:1]=[C:2]([C:3]([C:4]#[N:5])([H:7])[H:8])[H:6]>>[O:1]=[C:4]1[C:3]([H:7])([H:8])[C:2]([H:6])=[N:5]1"
O       -0.73422524       0.60627432      -1.46611382
C       -0.42831285       0.66767936       0.31443903
C       -0.04780767      -0.79386928       0.18726750
C        0.75880514      -0.01201947      -0.84989278
N        1.36939209       0.92735267      -0.17156928
H       -0.57977247       1.35076589       1.14704844
H       -0.81401227      -1.47623516      -0.17151333
H        0.47593327      -1.26994834       1.01033424
8
Frame=13 idx=003315 GeodesicLength=1.4876287357912663 rxn_smarts="[O:1]=[C:2]([C:3]([C:4]#[N:5])([H:7])[H:8])[H:6]>>[O:1]=[C:4]1[C:3]([H:7])([H:8])[C:2]([H:6])=[N:5]1"
O       -0.75011255       0.60357875      -1.47926602
C       -0.44681288       0.67552695       0.31455684
C       -0.04547415      -0.78303952       0.18551780
C        0.78021607      -0.02502429      -0.85119065
N        1.37745380       0.92667298      -0.18005652
H       -0.57337066       1.33900003       1.16883052
H       -0.80420096      -1.47331117      -0.17495488
H        0.46230132      -1.26340373       1.01656291
8
Frame=14 idx=003315 GeodesicLength=1.6020463726802012 rxn_smarts="[O:1]=[C:2]([C:3]([C:4]#[N:5])([H:7])[H:8])[H:6]>>[O:1]=[C:4]1[C:3]([H:7])([H:8])[C:2]([H:6])=[N:5]1"
O       -0.76676975       0.60101074      -1.49199511
C       -0.46552951       0.68337500       0.31525797
C       -0.04297836      -0.77183293       0.18367329
C        0.80259654      -0.03870053      -0.85184774
N        1.38577999       0.92603927      -0.18883573
H       -0.56728537       1.32690696       1.18979987
H       -0.79432200      -1.46986723      -0.17831705
H        0.44850845      -1.25693128       1.02226451
8
Frame=15 idx=003315 GeodesicLength=1.7164790874726195 rxn_smarts="[O:1]=[C:2]([C:3]([C:4]#[N:5])([H:7])[H:8])[H:6]>>[O:1]=[C:4]1[C:3]([H:7])([H:8])[C:2]([H:6])=[N:5]1"
O       -0.78425516       0.59859373      -1.50426665
C       -0.48449825       0.69116705       0.31659143
C       -0.04029441      -0.76025803       0.18170847
C        0.82602444      -0.05311427      -0.85177657
N        1.39434200       0.92545326      -0.19795761
H       -0.56151485       1.31463064       1.20994660
H       -0.78434175      -1.46591064      -0.18166512
H        0.43453798      -1.25056173       1.02741945
8
Frame=16 idx=003315 GeodesicLength=1.830941807350667 rxn_smarts="[O:1]=[C:2]([C:3]([C:4]#[N:5])([H:7])[H:8])[H:6]>>[O:1]=[C:4]1[C:3]([H:7])([H:8])[C:2]([H:6])=[N:5]1"
O       -0.80263230       0.59633921      -1.51605170
C       -0.50376560       0.69885234       0.31860040
C       -0.03739727      -0.74831138       0.17959335
C        0.85059416      -0.06834152      -0.85087146
N        1.40311364       0.92491461      -0.20749086
H       -0.55605079       1.30229127       1.22928669
H       -0.77422528      -1.46143753      -0.18507356
H        0.42036344      -1.24430700       1.03200714
