13
Frame=0 idx=008955 GeodesicLength=0.0 rxn_smarts="[O:1]=[C:2]1[C:3]([H:8])([H:9])[C:4]2([C:5]([H:10])([H:11])[O:6]2)[C:7]1([H:12])[H:13]>>[O:1]=[C:2]1[C:3]([H:8])([H:9])[C:4]([C:5][H:11])([O:6][H:10])[C:7]1([H:12])[H:13]"
O       -2.76490298      -0.56097658       0.10510650
C       -1.60892991      -0.29388064       0.00085709
C       -0.79966345       0.99344072       0.15585893
C        0.45961959       0.13031317       0.03003033
C        1.69725994       0.22868457       0.81611536
O        1.48742984       0.48242076      -0.90476040
C       -0.35756942      -1.12630068      -0.28942475
H       -0.92930329       1.53404604       1.09289441
H       -0.94004661       1.67668570      -0.68467787
H        2.06848792       1.10955917      -0.20764356
H        2.19051111      -0.74797319       0.87097535
H       -0.29401105      -1.43047607      -1.33616566
H       -0.20888170      -1.99554302       0.35083424
13
Frame=1 idx=008955 GeodesicLength=0.044636261802507994 rxn_smarts="[O:1]=[C:2]1[C:3]([H:8])([H:9])[C:4]2([C:5]([H:10])([H:11])[O:6]2)[C:7]1([H:12])[H:13]>>[O:1]=[C:2]1[C:3]([H:8])([H:9])[C:4]([C:5][H:11])([O:6][H:10])[C:7]1([H:12])[H:13]"
O       -2.76839340      -0.55555624       0.09200454
C       -1.61062458      -0.29288614      -0.00341292
C       -0.79830835       0.99193425       0.15716680
C        0.45893582       0.12609947       0.03082041
C        1.70178473       0.22737789       0.80664677
O        1.48771362       0.47838297      -0.90267859
C       -0.36040580      -1.12937924      -0.28644680
H       -0.92792289       1.52750949       1.09717243
H       -0.93638591       1.68052901      -0.67935152
H        2.06520544       1.12831576      -0.20509161
H        2.19799181      -0.74735804       0.86436173
H       -0.29333772      -1.43997858      -1.33103809
H       -0.21625278      -1.99499060       0.35984683
13
Frame=2 idx=008955 GeodesicLength=0.08926132303947262 rxn_smarts="[O:1]=[C:2]1[C:3]([H:8])([H:9])[C:4]2([C:5]([H:10])([H:11])[O:6]2)[C:7]1([H:12])[H:13]>>[O:1]=[C:2]1[C:3]([H:8])([H:9])[C:4]([C:5][H:11])([O:6][H:10])[C:7]1([H:12])[H:13]"
O       -2.77173221      -0.55017048       0.07895259
C       -1.61226829      -0.29189170      -0.00770723
C       -0.79696243       0.99043027       0.15847282
C        0.45826753       0.12192722       0.03157974
C        1.70623583       0.22615512       0.79713565
O        1.48791793       0.47447458      -0.90071618
C       -0.36321974      -1.13242345      -0.28348261
H       -0.92659293       1.52093931       1.10142749
H       -0.93276838       1.68436448      -0.67397017
H        2.06200923       1.14664472      -0.20243614
H        2.20537034      -0.74665031       0.85779323
H       -0.29267862      -1.44946007      -1.32586694
H       -0.22357827      -1.99433969       0.36881775
13
Frame=3 idx=008955 GeodesicLength=0.13386980036205198 rxn_smarts="[O:1]=[C:2]1[C:3]([H:8])([H:9])[C:4]2([C:5]([H:10])([H:11])[O:6]2)[C:7]1([H:12])[H:13]>>[O:1]=[C:2]1[C:3]([H:8])([H:9])[C:4]([C:5][H:11])([O:6][H:10])[C:7]1([H:12])[H:13]"
O       -2.77491147      -0.54483958       0.06605650
C       -1.61385912      -0.29090285      -0.01199807
C       -0.79562529       0.98893206       0.15975096
C        0.45761418       0.11779425       0.03230552
C        1.71059811       0.22500265       0.78760402
O        1.48806101       0.47068015      -0.89885908
C       -0.36601372      -1.13542990      -0.28055507
H       -0.92530573       1.51437644       1.10561311
H       -0.92920019       1.68816302      -0.66858587
H        2.05891126       1.16457867      -0.19962613
H        2.21263297      -0.74586231       0.85128831
H       -0.29205819      -1.45888430      -1.32068685
H       -0.23084381      -1.99360829       0.37769267
13
Frame=4 idx=008955 GeodesicLength=0.17845677032772533 rxn_smarts="[O:1]=[C:2]1[C:3]([H:8])([H:9])[C:4]2([C:5]([H:10])([H:11])[O:6]2)[C:7]1([H:12])[H:13]>>[O:1]=[C:2]1[C:3]([H:8])([H:9])[C:4]([C:5][H:11])([O:6][H:10])[C:7]1([H:12])[H:13]"
O       -2.77792517      -0.53958813       0.05343877
C       -1.61539581      -0.28992630      -0.01625275
C       -0.79429703       0.98744410       0.16097162
C        0.45697509       0.11369875       0.03299473
C        1.71485604       0.22390793       0.77807712
O        1.48816332       0.46698511      -0.89709013
C       -0.36878970      -1.13839452      -0.27769162
H       -0.92405279       1.50786949       1.10967733
H       -0.92568956       1.69189255      -0.66325905
H        2.05592605       1.18214494      -0.19660726
H        2.21976321      -0.74500670       0.84487357
H       -0.29150330      -1.46820865      -1.31554032
H       -0.23803037      -1.99281858       0.38640799
13
Frame=5 idx=008955 GeodesicLength=0.22301504429533972 rxn_smarts="[O:1]=[C:2]1[C:3]([H:8])([H:9])[C:4]2([C:5]([H:10])([H:11])[O:6]2)[C:7]1([H:12])[H:13]>>[O:1]=[C:2]1[C:3]([H:8])([H:9])[C:4]([C:5][H:11])([O:6][H:10])[C:7]1([H:12])[H:13]"
O       -2.78076902      -0.53443775       0.04121497
C       -1.61687573      -0.28896882      -0.02043767
C       -0.79297523       0.98596905       0.16210666
C        0.45635021       0.10963855       0.03364533
C        1.71899416       0.22285719       0.76857915
O        1.48824599       0.46337242      -0.89539240
C       -0.37154860      -1.14131235      -0.27491749
H       -0.92282295       1.50146258       1.11357057
H       -0.92224043       1.69552074      -0.65804869
H        2.05305680       1.19937535      -0.19333156
H        2.22674276      -0.74409592       0.83857547
H       -0.29103742      -1.47738932      -1.31046808
H       -0.24512054      -1.99199172       0.39490374
13
Frame=6 idx=008955 GeodesicLength=0.26756082841595713 rxn_smarts="[O:1]=[C:2]1[C:3]([H:8])([H:9])[C:4]2([C:5]([H:10])([H:11])[O:6]2)[C:7]1([H:12])[H:13]>>[O:1]=[C:2]1[C:3]([H:8])([H:9])[C:4]([C:5][H:11])([O:6][H:10])[C:7]1([H:12])[H:13]"
O       -2.78346856      -0.52935794       0.02925309
C       -1.61830644      -0.28802341      -0.02458421
C       -0.79165810       0.98450272       0.16318166
C        0.45573959       0.10560812       0.03425517
C        1.72303269       0.22185198       0.75908063
O        1.48828795       0.45983368      -0.89379205
C       -0.37429409      -1.14419569      -0.27219996
H       -0.92161488       1.49511393       1.11734197
H       -0.91884244       1.69908040      -0.65290144
H        2.05029369       1.21630742      -0.18980817
H        2.23361128      -0.74312099       0.83234026
H       -0.29064117      -1.48648626      -1.30542289
H       -0.25213953      -1.99111397       0.40325593
13
Frame=7 idx=008955 GeodesicLength=0.31209512618522106 rxn_smarts="[O:1]=[C:2]1[C:3]([H:8])([H:9])[C:4]2([C:5]([H:10])([H:11])[O:6]2)[C:7]1([H:12])[H:13]>>[O:1]=[C:2]1[C:3]([H:8])([H:9])[C:4]([C:5][H:11])([O:6][H:10])[C:7]1([H:12])[H:13]"
O       -2.78604176      -0.52432038       0.01743468
C       -1.61969293      -0.28708205      -0.02872770
C       -0.79034177       0.98303908       0.16422022
C        0.45514376       0.10160142       0.03482330
C        1.72698756       0.22089231       0.74955396
O        1.48827167       0.45636106      -0.89231192
C       -0.37702970      -1.14705454      -0.26950813
H       -0.92042925       1.48877710       1.12103681
H       -0.91547860       1.70260100      -0.64776588
H        2.04761918       1.23297882      -0.18605011
H        2.24040338      -0.74207285       0.82611601
H       -0.29029440      -1.49555318      -1.30035818
H       -0.25911715      -1.99016780       0.41153693
13
Frame=8 idx=008955 GeodesicLength=0.3566079095611229 rxn_smarts="[O:1]=[C:2]1[C:3]([H:8])([H:9])[C:4]2([C:5]([H:10])([H:11])[O:6]2)[C:7]1([H:12])[H:13]>>[O:1]=[C:2]1[C:3]([H:8])([H:9])[C:4]([C:5][H:11])([O:6][H:10])[C:7]1([H:12])[H:13]"
O       -2.78848510      -0.51934283       0.00585007
C       -1.62103259      -0.28615204      -0.03283177
C       -0.78902528       0.98158189       0.16519906
C        0.45456272       0.09761793       0.03534751
C        1.73084776       0.21997060       0.74001818
O        1.48821320       0.45294227      -0.89093958
C       -0.37975533      -1.14988508      -0.26686233
H       -0.91925680       1.48249329       1.12461422
H       -0.91215592       1.70605441      -0.64269353
H        2.04503964       1.24940719      -0.18201462
H        2.24710194      -0.74096088       0.81992774
H       -0.29002177      -1.50455302      -1.29530870
H       -0.26603248      -1.98917371       0.41969376
13
Frame=9 idx=008955 GeodesicLength=0.4011111672255109 rxn_smarts="[O:1]=[C:2]1[C:3]([H:8])([H:9])[C:4]2([C:5]([H:10])([H:11])[O:6]2)[C:7]1([H:12])[H:13]>>[O:1]=[C:2]1[C:3]([H:8])([H:9])[C:4]([C:5][H:11])([O:6][H:10])[C:7]1([H:12])[H:13]"
O       -2.79081246      -0.51440457      -0.00558571
C       -1.62232919      -0.28523019      -0.03691329
C       -0.78770650       0.98012737       0.16613327
C        0.45399693       0.09365365       0.03582736
C        1.73462649       0.21908440       0.73045269
O        1.48809934       0.44957287      -0.88969034
C       -0.38247389      -1.15269474      -0.26423964
H       -0.91809767       1.47623720       1.12810081
H       -0.90886654       1.70945587      -0.63765435
H        2.04254685       1.26562235      -0.17769651
H        2.25373484      -0.73978039       0.81373076
H       -0.28981276      -1.51352218      -1.29024067
H       -0.27290545      -1.98812164       0.42777561
13
Frame=10 idx=008955 GeodesicLength=0.44560887696564455 rxn_smarts="[O:1]=[C:2]1[C:3]([H:8])([H:9])[C:4]2([C:5]([H:10])([H:11])[O:6]2)[C:7]1([H:12])[H:13]>>[O:1]=[C:2]1[C:3]([H:8])([H:9])[C:4]([C:5][H:11])([O:6][H:10])[C:7]1([H:12])[H:13]"
O       -2.79303391      -0.50948590      -0.01695905
C       -1.62358610      -0.28431002      -0.04099780
C       -0.78638357       0.97867202       0.16703827
C        0.45344669       0.08970508       0.03626150
C        1.73833597       0.21823038       0.72083545
O        1.48791690       0.44624818      -0.88858167
C       -0.38518775      -1.15549035      -0.26161696
H       -0.91695187       1.46997828       1.13152647
H       -0.90560223       1.71282680      -0.63261214
H        2.04012623       1.28165285      -0.17309420
H        2.26032742      -0.73853027       0.80747991
H       -0.28965196      -1.52250185      -1.28511771
H       -0.27975580      -1.98699520       0.43583793
13
Frame=11 idx=008955 GeodesicLength=0.49010497479983434 rxn_smarts="[O:1]=[C:2]1[C:3]([H:8])([H:9])[C:4]2([C:5]([H:10])([H:11])[O:6]2)[C:7]1([H:12])[H:13]>>[O:1]=[C:2]1[C:3]([H:8])([H:9])[C:4]([C:5][H:11])([O:6][H:10])[C:7]1([H:12])[H:13]"
O       -2.79515686      -0.50456504      -0.02836658
C       -1.62480513      -0.28338574      -0.04511083
C       -0.78505495       0.97721283       0.16793183
C        0.45291243       0.08577028       0.03664728
C        1.74198913       0.21740702       0.71114102
O        1.48765028       0.44296569      -0.88763414
C       -0.38789880      -1.15827880      -0.25896821
H       -0.91582200       1.46368154       1.13492539
H       -0.90235450       1.71619041      -0.62752657
H        2.03776635       1.29752355      -0.16820793
H        2.26690202      -0.73720827       0.80112802
H       -0.28952397      -1.53153666      -1.27989820
H       -0.28660399      -1.98577681       0.44393890
13
Frame=12 idx=008955 GeodesicLength=0.5345926721941316 rxn_smarts="[O:1]=[C:2]1[C:3]([H:8])([H:9])[C:4]2([C:5]([H:10])([H:11])[O:6]2)[C:7]1([H:12])[H:13]>>[O:1]=[C:2]1[C:3]([H:8])([H:9])[C:4]([C:5][H:11])([O:6][H:10])[C:7]1([H:12])[H:13]"
O       -2.79717513      -0.49967103      -0.03967036
C       -1.62598476      -0.28246602      -0.04921480
C       -0.78372050       0.97575342       0.16878117
C        0.45239348       0.08184803       0.03698140
C        1.74557025       0.21660783       0.70139339
O        1.48732181       0.43971386      -0.88682893
C       -0.39060781      -1.16105321      -0.25632487
H       -0.91469774       1.45740047       1.13824001
H       -0.89913174       1.71950926      -0.62246618
H        2.03547835       1.31324021      -0.16297983
H        2.27343647      -0.73582130       0.79471342
H       -0.28945673      -1.54057341      -1.27463120
H       -0.29342596      -1.98448813       0.45200677
13
Frame=13 idx=008955 GeodesicLength=0.5790807466913467 rxn_smarts="[O:1]=[C:2]1[C:3]([H:8])([H:9])[C:4]2([C:5]([H:10])([H:11])[O:6]2)[C:7]1([H:12])[H:13]>>[O:1]=[C:2]1[C:3]([H:8])([H:9])[C:4]([C:5][H:11])([O:6][H:10])[C:7]1([H:12])[H:13]"
O       -2.79909775      -0.49477533      -0.05099217
C       -1.62712760      -0.28154404      -0.05334410
C       -0.78237663       0.97428808       0.16961047
C        0.45189106       0.07793390       0.03726161
C        1.74909508       0.21583663       0.69156139
O        1.48691252       0.43648774      -0.88619075
C       -0.39331840      -1.16382335      -0.25365642
H       -0.91357730       1.45108847       1.14151498
H       -0.89592144       1.72281082      -0.61737731
H        2.03324383       1.32882976      -0.15741800
H        2.27996058      -0.73435965       0.78818677
H       -0.28943542      -1.54966497      -1.26926834
H       -0.30024853      -1.98310807       0.46011187
13
Frame=14 idx=008955 GeodesicLength=0.6235621141929216 rxn_smarts="[O:1]=[C:2]1[C:3]([H:8])([H:9])[C:4]2([C:5]([H:10])([H:11])[O:6]2)[C:7]1([H:12])[H:13]>>[O:1]=[C:2]1[C:3]([H:8])([H:9])[C:4]([C:5][H:11])([O:6][H:10])[C:7]1([H:12])[H:13]"
O       -2.80091706      -0.48991272      -0.06217740
C       -1.62823052      -0.28062893      -0.05745340
C       -0.78102469       0.97282447       0.17038201
C        0.45140411       0.07402905       0.03748271
C        1.75254717       0.21508431       0.68167114
O        1.48644572       0.43327853      -0.88569968
C       -0.39602819      -1.16658201      -0.25099785
H       -0.91245336       1.44481019       1.14468608
H       -0.89273620       1.72605923      -0.61233812
H        2.03107663       1.34429392      -0.15145700
H        2.28644424      -0.73283823       0.78159074
H       -0.28948814      -1.55875529      -1.26386527
H       -0.30703970      -1.98166251       0.46817603
13
Frame=15 idx=008955 GeodesicLength=0.6680418659718983 rxn_smarts="[O:1]=[C:2]1[C:3]([H:8])([H:9])[C:4]2([C:5]([H:10])([H:11])[O:6]2)[C:7]1([H:12])[H:13]>>[O:1]=[C:2]1[C:3]([H:8])([H:9])[C:4]([C:5][H:11])([O:6][H:10])[C:7]1([H:12])[H:13]"
O       -2.80264195      -0.48506202      -0.07331643
C       -1.62929679      -0.27971592      -0.06156841
C       -0.77966246       0.97135830       0.17111194
C        0.45093370       0.07013052       0.03764223
C        1.75593985       0.21435136       0.67169716
O        1.48590764       0.43008534      -0.88537565
C       -0.39874054      -1.16933579      -0.24832431
H       -0.91132642       1.43853258       1.14778418
H       -0.88956617       1.72927345      -0.60731201
H        2.02896290       1.35965297      -0.14508904
H        2.29291352      -0.73125102       0.77487819
H       -0.28960299      -1.56788621      -1.25838208
H       -0.31382028      -1.98013355       0.47625422
13
Frame=16 idx=008955 GeodesicLength=0.7125254430498706 rxn_smarts="[O:1]=[C:2]1[C:3]([H:8])([H:9])[C:4]2([C:5]([H:10])([H:11])[O:6]2)[C:7]1([H:12])[H:13]>>[O:1]=[C:2]1[C:3]([H:8])([H:9])[C:4]([C:5][H:11])([O:6][H:10])[C:7]1([H:12])[H:13]"
O       -2.80427583      -0.48019135      -0.08454996
C       -1.63032699      -0.27879693      -0.06572510
C       -0.77828853       0.96988352       0.17182802
C        0.45047997       0.06623623       0.03773843
C        1.75928854       0.21364087       0.66160199
O        1.48527347       0.42690566      -0.88524763
C       -0.40145794      -1.17209193      -0.24559854
H       -0.91020064       1.43220340       1.15085789
H       -0.88640074       1.73248359      -0.60223666
H        2.02688680       1.37492427      -0.13832149
H        2.29939732      -0.72958919       0.76798660
H       -0.28975726      -1.57711447      -1.25275714
H       -0.32061816      -1.97849368       0.48442359
