12
Frame=0 idx=000966 GeodesicLength=0.0 rxn_smarts="[C:1]([c:2]1[c:3]([H:10])[o:4][c:5]([H:11])[c:6]1[H:12])([H:7])([H:8])[H:9]>>[C:1]([C@:2]([C:3](=[O:4])[H:10])([C:6]#[C:5][H:11])[H:12])([H:7])([H:8])[H:9]"
C       -1.72108220      -0.23668422      -0.07028545
C       -0.23434008      -0.07365573       0.07488159
C        0.49321957       1.09495651      -0.23074533
O        1.76315329       0.83310971      -0.26184534
C        1.92999721      -0.52877604      -0.01446592
C        0.76733995      -1.22410890       0.14776107
H       -2.27013754       0.64177089       0.27302772
H       -2.04980816      -1.10491402       0.49852117
H       -1.97358845      -0.41520599      -1.11592076
H        0.19605264       2.11631664      -0.42089697
H        2.96582421      -0.82629084      -0.04460149
H        0.13336959      -0.27651803       1.16456966
12
Frame=1 idx=000966 GeodesicLength=0.10998701717605101 rxn_smarts="[C:1]([c:2]1[c:3]([H:10])[o:4][c:5]([H:11])[c:6]1[H:12])([H:7])([H:8])[H:9]>>[C:1]([C@:2]([C:3](=[O:4])[H:10])([C:6]#[C:5][H:11])[H:12])([H:7])([H:8])[H:9]"
C       -1.71784698      -0.23548713      -0.07462180
C       -0.23355264      -0.06776171       0.08840232
C        0.48969905       1.10411485      -0.22142794
O        1.75867024       0.84716811      -0.27529332
C        1.93548608      -0.54074613      -0.02291132
C        0.76753935      -1.21216757       0.15291791
H       -2.27090601       0.64965609       0.24412298
H       -2.05597246      -1.09153604       0.50718241
H       -1.95672428      -0.43486782      -1.11973058
H        0.17888033       2.12270340      -0.40832309
H        2.96872301      -0.84509557      -0.05948180
H        0.13600431      -0.29598046       1.18916424
12
Frame=2 idx=000966 GeodesicLength=0.21993460190459616 rxn_smarts="[C:1]([c:2]1[c:3]([H:10])[o:4][c:5]([H:11])[c:6]1[H:12])([H:7])([H:8])[H:9]>>[C:1]([C@:2]([C:3](=[O:4])[H:10])([C:6]#[C:5][H:11])[H:12])([H:7])([H:8])[H:9]"
C       -1.71433799      -0.23427213      -0.07893561
C       -0.23270854      -0.06160502       0.10206223
C        0.48607070       1.11344345      -0.21263744
O        1.75375884       0.86182724      -0.28902484
C        1.94078750      -0.55301235      -0.03154932
C        0.76790115      -1.19983542       0.15858054
H       -2.27111363       0.65706215       0.21502610
H       -2.06212433      -1.07787339       0.51541205
H       -1.93951199      -0.45445610      -1.12295369
H        0.16150225       2.12919294      -0.39551097
H        2.97127534      -0.86444670      -0.07421206
H        0.13850071      -0.31602468       1.21374301
12
Frame=3 idx=000966 GeodesicLength=0.3298418707377427 rxn_smarts="[C:1]([c:2]1[c:3]([H:10])[o:4][c:5]([H:11])[c:6]1[H:12])([H:7])([H:8])[H:9]>>[C:1]([C@:2]([C:3](=[O:4])[H:10])([C:6]#[C:5][H:11])[H:12])([H:7])([H:8])[H:9]"
C       -1.71053558      -0.23304459      -0.08323075
C       -0.23180262      -0.05515797       0.11587714
C        0.48231244       1.12297227      -0.20437359
O        1.74839555       0.87711390      -0.30307107
C        1.94589159      -0.56558569      -0.04033432
C        0.76844997      -1.18706897       0.16480214
H       -2.27075941       0.66397747       0.18572555
H       -2.06824188      -1.06393754       0.52320057
H       -1.92190950      -0.47398546      -1.12559384
H        0.14393010       2.13580582      -0.38244053
H        2.97346271      -0.88441147      -0.08887497
H        0.14080665      -0.33667777       1.23831367
12
Frame=4 idx=000966 GeodesicLength=0.4397319703904842 rxn_smarts="[C:1]([c:2]1[c:3]([H:10])[o:4][c:5]([H:11])[c:6]1[H:12])([H:7])([H:8])[H:9]>>[C:1]([C@:2]([C:3](=[O:4])[H:10])([C:6]#[C:5][H:11])[H:12])([H:7])([H:8])[H:9]"
C       -1.70643239      -0.23180064      -0.08749400
C       -0.23082501      -0.04840253       0.12982882
C        0.47841301       1.13272457      -0.19665355
O        1.74256426       0.89305254      -0.31749459
C        1.95078540      -0.57850465      -0.04931035
C        0.76920759      -1.17383947       0.17156638
H       -2.26983430       0.67039326       0.15628757
H       -2.07429102      -1.04975379       0.53053929
H       -1.90393114      -0.49342677      -1.12765001
H        0.12617247       2.14255451      -0.36912124
H        2.97526197      -0.90499404      -0.10334216
H        0.14290915      -0.35800298       1.26284384
12
Frame=5 idx=000966 GeodesicLength=0.5496151330724172 rxn_smarts="[C:1]([c:2]1[c:3]([H:10])[o:4][c:5]([H:11])[c:6]1[H:12])([H:7])([H:8])[H:9]>>[C:1]([C@:2]([C:3](=[O:4])[H:10])([C:6]#[C:5][H:11])[H:12])([H:7])([H:8])[H:9]"
C       -1.70201362      -0.23053739      -0.09171945
C       -0.22976595      -0.04130784       0.14392755
C        0.47435404       1.14273060      -0.18947709
O        1.73624538       0.90966877      -0.33236998
C        1.95545104      -0.59180909      -0.05849354
C        0.77019816      -1.16010807       0.17888688
H       -2.26834659       0.67630549       0.12675120
H       -2.08023573      -1.03534919       0.53742172
H       -1.88556791      -0.51275796      -1.12912515
H        0.10823429       2.14945618      -0.35555755
H        2.97667320      -0.92622233      -0.11754935
H        0.14477370      -0.38006918       1.28730476
12
Frame=6 idx=000966 GeodesicLength=0.6594942925668771 rxn_smarts="[C:1]([c:2]1[c:3]([H:10])[o:4][c:5]([H:11])[c:6]1[H:12])([H:7])([H:8])[H:9]>>[C:1]([C@:2]([C:3](=[O:4])[H:10])([C:6]#[C:5][H:11])[H:12])([H:7])([H:8])[H:9]"
C       -1.69725699      -0.22924597      -0.09587970
C       -0.22861837      -0.03384948       0.15815650
C        0.47012120       1.15302956      -0.18282274
O        1.72935632       0.92698706      -0.34778731
C        1.95985531      -0.60552681      -0.06798096
C        0.77146613      -1.14581976       0.18673889
H       -2.26626328       0.68168517       0.09718103
H       -2.08604923      -1.02074999       0.54381644
H       -1.86679833      -0.53192259      -1.12997308
H        0.09012015       2.15652064      -0.34178820
H        2.97769116      -0.94814107      -0.13131025
H        0.14637595      -0.40296676       1.31164939
12
Frame=7 idx=000966 GeodesicLength=0.7693619561221541 rxn_smarts="[C:1]([c:2]1[c:3]([H:10])[o:4][c:5]([H:11])[c:6]1[H:12])([H:7])([H:8])[H:9]>>[C:1]([C@:2]([C:3](=[O:4])[H:10])([C:6]#[C:5][H:11])[H:12])([H:7])([H:8])[H:9]"
C       -1.69214396      -0.22791906      -0.09996453
C       -0.22736825      -0.02599997       0.17252216
C        0.46570731       1.16365359      -0.17667868
O        1.72186787       0.94504106      -0.36381241
C        1.96397585      -0.61970287      -0.07781412
C        0.77304294      -1.13093223       0.19514325
H       -2.26357946       0.68652949       0.06763142
H       -2.09168997      -1.00598934       0.54971257
H       -1.84761432      -0.55088492      -1.13019096
H        0.07182136       2.16376136      -0.32784430
H        2.97830027      -0.97077494      -0.14453260
H        0.14768034      -0.42678217       1.33582819
12
Frame=8 idx=000966 GeodesicLength=0.8792525009193725 rxn_smarts="[C:1]([c:2]1[c:3]([H:10])[o:4][c:5]([H:11])[c:6]1[H:12])([H:7])([H:8])[H:9]>>[C:1]([C@:2]([C:3](=[O:4])[H:10])([C:6]#[C:5][H:11])[H:12])([H:7])([H:8])[H:9]"
C       -1.68663859      -0.22655124      -0.10396133
C       -0.22600292      -0.01771277       0.18705306
C        0.46110834       1.17465228      -0.17098210
O        1.71368635       0.96385452      -0.38050984
C        1.96775295      -0.63439625      -0.08803728
C        0.77498908      -1.11536020       0.20415549
H       -2.26026601       0.69081139       0.03811230
H       -2.09711983      -0.99109830       0.55507977
H       -1.82794274      -0.56962061      -1.12976128
H        0.05334576       2.17119368      -0.31377035
H        2.97845044      -0.99417399      -0.15719831
H        0.14863718      -0.45159851       1.35981986
12
Frame=9 idx=000966 GeodesicLength=0.989270884413747 rxn_smarts="[C:1]([c:2]1[c:3]([H:10])[o:4][c:5]([H:11])[c:6]1[H:12])([H:7])([H:8])[H:9]>>[C:1]([C@:2]([C:3](=[O:4])[H:10])([C:6]#[C:5][H:11])[H:12])([H:7])([H:8])[H:9]"
C       -1.68068739      -0.22515566      -0.10787178
C       -0.22449893      -0.00888176       0.20189761
C        0.45626792       1.18608703      -0.16578318
O        1.70484871       0.98351978      -0.39798203
C        1.97113877      -0.64975044      -0.09864757
C        0.77733875      -1.09896644       0.21387750
H       -2.25639135       0.69452615       0.00862698
H       -2.10222192      -0.97615597       0.55991675
H       -1.80770378      -0.58814967      -1.12875530
H        0.03462260       2.17888708      -0.29948417
H        2.97806939      -1.01851512      -0.16931552
H        0.14921721      -0.47744498       1.38352071
12
Frame=10 idx=000966 GeodesicLength=1.0993428067589144 rxn_smarts="[C:1]([c:2]1[c:3]([H:10])[o:4][c:5]([H:11])[c:6]1[H:12])([H:7])([H:8])[H:9]>>[C:1]([C@:2]([C:3](=[O:4])[H:10])([C:6]#[C:5][H:11])[H:12])([H:7])([H:8])[H:9]"
C       -1.67424909      -0.22373232      -0.11169325
C       -0.22285221       0.00050365       0.21699254
C        0.45121891       1.19801686      -0.16091623
O        1.69525087       1.00406072      -0.41610025
C        1.97403617      -0.66575757      -0.10968256
C        0.78019058      -1.08166704       0.22445421
H       -2.25186207       0.69762691      -0.02082861
H       -2.10699964      -0.96117943       0.56417287
H       -1.78676830      -0.60645063      -1.12710917
H        0.01567229       2.18681635      -0.28519361
H        2.97703333      -1.04383848      -0.18107268
H        0.14932916      -0.50439902       1.40697674
12
Frame=11 idx=000966 GeodesicLength=1.2094458898701066 rxn_smarts="[C:1]([c:2]1[c:3]([H:10])[o:4][c:5]([H:11])[c:6]1[H:12])([H:7])([H:8])[H:9]>>[C:1]([C@:2]([C:3](=[O:4])[H:10])([C:6]#[C:5][H:11])[H:12])([H:7])([H:8])[H:9]"
C       -1.66727069      -0.22229351      -0.11543167
C       -0.22104705       0.01050729       0.23240724
C        0.44595728       1.21050276      -0.15631927
O        1.68487846       1.02554482      -0.43481298
C        1.97635348      -0.68249713      -0.12112912
C        0.78362134      -1.06333597       0.23607524
H       -2.24667414       0.70009218      -0.05031185
H       -2.11139216      -0.94621198       0.56783232
H       -1.76499557      -0.62456447      -1.12484344
H       -0.00353703       2.19500739      -0.27094373
H        2.97521049      -1.07026268      -0.19269632
H        0.14889557      -0.53248870       1.43017356
12
Frame=12 idx=000966 GeodesicLength=1.319598365319137 rxn_smarts="[C:1]([c:2]1[c:3]([H:10])[o:4][c:5]([H:11])[c:6]1[H:12])([H:7])([H:8])[H:9]>>[C:1]([C@:2]([C:3](=[O:4])[H:10])([C:6]#[C:5][H:11])[H:12])([H:7])([H:8])[H:9]"
C       -1.65966621      -0.22086246      -0.11910199
C       -0.21907028       0.02121271       0.24821021
C        0.44047632       1.22362665      -0.15191122
O        1.67368752       1.04806268      -0.45402456
C        1.97796740      -0.70004970      -0.13294992
C        0.78773887      -1.04379758       0.24897068
H       -2.24076798       0.70185800      -0.07990082
H       -2.11534049      -0.93129395       0.57085162
H       -1.74217797      -0.64253761      -1.12193501
H       -0.02306784       2.20349917      -0.25681214
H        2.97239425      -1.09797871      -0.20449972
H        0.14782641      -0.56173918       1.45310288
12
Frame=13 idx=000966 GeodesicLength=1.429768581457992 rxn_smarts="[C:1]([c:2]1[c:3]([H:10])[o:4][c:5]([H:11])[c:6]1[H:12])([H:7])([H:8])[H:9]>>[C:1]([C@:2]([C:3](=[O:4])[H:10])([C:6]#[C:5][H:11])[H:12])([H:7])([H:8])[H:9]"
C       -1.65135474      -0.21946778      -0.12272382
C       -0.21690733       0.03272190       0.26450306
C        0.43476608       1.23747840      -0.14761890
O        1.66169010       1.07170892      -0.47361090
C        1.97870754      -0.71852642      -0.14512717
C        0.79265685      -1.02284959       0.26341718
H       -2.23414072       0.70287819      -0.10970285
H       -2.11875372      -0.91649144       0.57321163
H       -1.71809989      -0.66045380      -1.11840425
H       -0.04296951       2.21233644      -0.24286420
H        2.96836242      -1.12717367      -0.21683604
H        0.14604292      -0.59216115       1.47575625
12
Frame=14 idx=000966 GeodesicLength=1.5399554915424245 rxn_smarts="[C:1]([c:2]1[c:3]([H:10])[o:4][c:5]([H:11])[c:6]1[H:12])([H:7])([H:8])[H:9]>>[C:1]([C@:2]([C:3](=[O:4])[H:10])([C:6]#[C:5][H:11])[H:12])([H:7])([H:8])[H:9]"
C       -1.64219301      -0.21815640      -0.12632131
C       -0.21455071       0.04517581       0.28141408
C        0.42880194       1.25219384      -0.14332256
O        1.64885333       1.09663454      -0.49334209
C        1.97835440      -0.73801782      -0.15761258
C        0.79854712      -1.00018679       0.27977023
H       -2.22667749       0.70301775      -0.13991826
H       -2.12153164      -0.90186503       0.57485214
H       -1.69239203      -0.67843106      -1.11419181
H       -0.06335694       2.22158917      -0.22921338
H        2.96268354      -1.15820909      -0.23024826
H        0.14346149      -0.62374492       1.49813380
12
Frame=15 idx=000966 GeodesicLength=1.650131421733507 rxn_smarts="[C:1]([c:2]1[c:3]([H:10])[o:4][c:5]([H:11])[c:6]1[H:12])([H:7])([H:8])[H:9]>>[C:1]([C@:2]([C:3](=[O:4])[H:10])([C:6]#[C:5][H:11])[H:12])([H:7])([H:8])[H:9]"
C       -1.63203432      -0.21698582      -0.12991680
C       -0.21198696       0.05873113       0.29906798
C        0.42255130       1.26791934      -0.13893789
O        1.63521279       1.12300562      -0.51297267
C        1.97661171      -0.75866555      -0.17037236
C        0.80559388      -0.97546764       0.29838685
H       -2.21831322       0.70215224      -0.17069524
H       -2.12352725      -0.88752295       0.57572014
H       -1.66470508      -0.69658041      -1.10926818
H       -0.08434583       2.23133081      -0.21599165
H        2.95490541      -1.19142994      -0.24520708
H        0.14003758      -0.65648684       1.52018692
12
Frame=16 idx=000966 GeodesicLength=1.7603081493289996 rxn_smarts="[C:1]([c:2]1[c:3]([H:10])[o:4][c:5]([H:11])[c:6]1[H:12])([H:7])([H:8])[H:9]>>[C:1]([C@:2]([C:3](=[O:4])[H:10])([C:6]#[C:5][H:11])[H:12])([H:7])([H:8])[H:9]"
C       -1.62066518      -0.21604388      -0.13355039
C       -0.20919045       0.07360628       0.31766086
C        0.41598494       1.28486639      -0.13431689
O        1.62078501       1.15105610      -0.53215386
C        1.97304605      -0.78061827      -0.18332979
C        0.81406922      -0.94819878       0.31976420
H       -2.20892946       0.70007148      -0.20230928
H       -2.12455973      -0.87359262       0.57572997
H       -1.63450327      -0.71509522      -1.10357805
H       -0.10609127       2.24166979      -0.20337094
H        2.94429527      -1.22735358      -0.26242961
H        0.13575890      -0.69036768       1.54188378
