15
Frame=0 idx=006961 GeodesicLength=0.0 rxn_smarts="[C:1]([C:2]1([C:3]([H:11])([H:12])[H:13])[N:4]([H:14])[C@:5]1([C:6]#[N:7])[H:15])([H:8])([H:9])[H:10]>>[C:1]([C:2]1([C:3]([H:11])([H:12])[H:13])[N:4]([H:14])[C:5]([H:15])=[C:6]=[N:7]1)([H:8])([H:9])[H:10]"
C       -0.64065419       1.42277622      -0.33007252
C       -0.14940455       0.02153885      -0.10039450
C       -1.08718626      -0.84129015       0.69924702
N        0.51305358      -0.62573783      -1.17348148
C        1.54211932      -0.86031718      -0.21257005
C        2.45934110       0.17601415       0.36908291
N        1.31753096       0.38477102       0.90260387
H       -0.89164063       1.89029838       0.62146533
H       -1.54127916       1.37803162      -0.95048188
H        0.10814387       2.03373174      -0.83080214
H       -2.07442997      -0.81335060       0.23160163
H       -0.75723765      -1.87709614       0.73570340
H       -1.17477401      -0.45624029       1.71510127
H        0.80895322       0.02181954      -1.89535381
H        1.56746442      -1.85494933       0.21835095
15
Frame=1 idx=006961 GeodesicLength=0.08881513651915197 rxn_smarts="[C:1]([C:2]1([C:3]([H:11])([H:12])[H:13])[N:4]([H:14])[C@:5]1([C:6]#[N:7])[H:15])([H:8])([H:9])[H:10]>>[C:1]([C:2]1([C:3]([H:11])([H:12])[H:13])[N:4]([H:14])[C:5]([H:15])=[C:6]=[N:7]1)([H:8])([H:9])[H:10]"
C       -0.63718202       1.42241585      -0.32672958
C       -0.14246145       0.02280982      -0.08747576
C       -1.09217116      -0.84058810       0.69946981
N        0.51017591      -0.62707038      -1.16840947
C        1.54016679      -0.86093993      -0.21582139
C        2.45319327       0.17967649       0.35777673
N        1.33470269       0.40263422       0.92522033
H       -0.89887322       1.89238764       0.62074834
H       -1.53345831       1.37741831      -0.95315057
H        0.11558280       2.03233084      -0.82297518
H       -2.07344251      -0.81813611       0.21908480
H       -0.76156704      -1.87591937       0.74519528
H       -1.19599398      -0.45343209       1.71300389
H        0.79550285       0.00811059      -1.90455985
H        1.58582538      -1.86169776       0.19862260
15
Frame=2 idx=006961 GeodesicLength=0.1776342248122203 rxn_smarts="[C:1]([C:2]1([C:3]([H:11])([H:12])[H:13])[N:4]([H:14])[C@:5]1([C:6]#[N:7])[H:15])([H:8])([H:9])[H:10]>>[C:1]([C:2]1([C:3]([H:11])([H:12])[H:13])[N:4]([H:14])[C:5]([H:15])=[C:6]=[N:7]1)([H:8])([H:9])[H:10]"
C       -0.63363017       1.42193337      -0.32340099
C       -0.13550358       0.02397164      -0.07451845
C       -1.09707808      -0.83982940       0.69969028
N        0.50724319      -0.62838488      -1.16334789
C        1.53813917      -0.86169704      -0.21907280
C        2.44626104       0.18309005       0.34775601
N        1.35223551       0.42131731       0.94774153
H       -0.90583927       1.89442885       0.61988834
H       -1.52560998       1.37672297      -0.95567918
H        0.12294812       2.03080624      -0.81532602
H       -2.07222475      -0.82287825       0.20672714
H       -0.76603773      -1.87467206       0.75474441
H       -1.21705935      -0.45053840       1.71063043
H        0.78175314      -0.00594919      -1.91355266
H        1.60440274      -1.86832120       0.17771986
15
Frame=3 idx=006961 GeodesicLength=0.2664599582288729 rxn_smarts="[C:1]([C:2]1([C:3]([H:11])([H:12])[H:13])[N:4]([H:14])[C@:5]1([C:6]#[N:7])[H:15])([H:8])([H:9])[H:10]>>[C:1]([C:2]1([C:3]([H:11])([H:12])[H:13])[N:4]([H:14])[C:5]([H:15])=[C:6]=[N:7]1)([H:8])([H:9])[H:10]"
C       -0.63000971       1.42132460      -0.32009162
C       -0.12853506       0.02502259      -0.06152390
C       -1.10190681      -0.83901561       0.69991322
N        0.50426349      -0.62967164      -1.15829616
C        1.53602422      -0.86261687      -0.22231419
C        2.43857477       0.18618173       0.33907801
N        1.37014038       0.44090647       0.97012897
H       -0.91255864       1.89641825       0.61888162
H       -1.51774308       1.37593637      -0.95808055
H        0.13023251       2.02915826      -0.80785618
H       -2.07078722      -0.82757538       0.19454776
H       -0.77066193      -1.87335928       0.76433929
H       -1.23795110      -0.44756298       1.70799040
H        0.76773493      -0.02034938      -1.92230712
H        1.62318325      -1.87479714       0.15559045
15
Frame=4 idx=006961 GeodesicLength=0.35529439204399793 rxn_smarts="[C:1]([C:2]1([C:3]([H:11])([H:12])[H:13])[N:4]([H:14])[C@:5]1([C:6]#[N:7])[H:15])([H:8])([H:9])[H:10]>>[C:1]([C:2]1([C:3]([H:11])([H:12])[H:13])[N:4]([H:14])[C:5]([H:15])=[C:6]=[N:7]1)([H:8])([H:9])[H:10]"
C       -0.62633059       1.42058531      -0.31680570
C       -0.12156016       0.02596053      -0.04849309
C       -1.10665783      -0.83814893       0.70014351
N        0.50124459      -0.63092168      -1.15325372
C        1.53380952      -0.86372944      -0.22553494
C        2.43016023       0.18887475       0.33180585
N        1.38842932       0.46149258       0.99233989
H       -0.91904961       1.89835158       0.61772500
H       -1.50986528       1.37505020      -0.96036674
H        0.13743038       2.02738623      -0.80056663
H       -2.06914139      -0.83222647       0.18256437
H       -0.77545139      -1.87198678       0.77396921
H       -1.25865127      -0.44451017       1.70509438
H        0.75347910      -0.03507968      -1.93079995
H        1.64215439      -1.88109804       0.13217856
15
Frame=5 idx=006961 GeodesicLength=0.44413951016716346 rxn_smarts="[C:1]([C:2]1([C:3]([H:11])([H:12])[H:13])[N:4]([H:14])[C@:5]1([C:6]#[N:7])[H:15])([H:8])([H:9])[H:10]>>[C:1]([C:2]1([C:3]([H:11])([H:12])[H:13])[N:4]([H:14])[C:5]([H:15])=[C:6]=[N:7]1)([H:8])([H:9])[H:10]"
C       -0.62260220       1.41971122      -0.31354708
C       -0.11458355       0.02678308      -0.03542678
C       -1.11133178      -0.83723195       0.70038628
N        0.49819424      -0.63212638      -1.14821992
C        1.53148163      -0.86506673      -0.22872330
C        2.42103778       0.19108541       0.32601286
N        1.40711568       0.48317343       1.01432490
H       -0.92532940       1.90022450       0.61641530
H       -1.50198364       1.37405650      -0.96254899
H        0.14453710       2.02548821      -0.79345815
H       -2.06729928      -0.83683059       0.17079424
H       -0.78041729      -1.87056088       0.78362375
H       -1.27914158      -0.44138451       1.70195422
H        0.73901804      -0.05013004      -1.93900899
H        1.66130423      -1.88719127       0.10742167
15
Frame=6 idx=006961 GeodesicLength=0.5329968080715568 rxn_smarts="[C:1]([C:2]1([C:3]([H:11])([H:12])[H:13])[N:4]([H:14])[C@:5]1([C:6]#[N:7])[H:15])([H:8])([H:9])[H:10]>>[C:1]([C:2]1([C:3]([H:11])([H:12])[H:13])[N:4]([H:14])[C:5]([H:15])=[C:6]=[N:7]1)([H:8])([H:9])[H:10]"
C       -0.61883270       1.41869793      -0.31031910
C       -0.10761041       0.02748715      -0.02232590
C       -1.11592996      -0.83626809       0.70064663
N        0.49512009      -0.63327791      -1.14319450
C        1.52902678      -0.86666270      -0.23186728
C        2.41122084       0.19272425       0.32178280
N        1.42621481       0.50605216       1.03602720
H       -0.93141273       1.90203222       0.61494999
H       -1.49410429       1.37294831      -0.96463734
H        0.15154990       2.02346066      -0.78653163
H       -2.06527411      -0.84138684       0.15925405
H       -0.78557082      -1.86908890       0.79329225
H       -1.29940371      -0.43819150       1.69858304
H        0.72438441      -0.06549059      -1.94691409
H        1.68062190      -1.89303616       0.08125388
15
Frame=7 idx=006961 GeodesicLength=0.6218676450606988 rxn_smarts="[C:1]([C:2]1([C:3]([H:11])([H:12])[H:13])[N:4]([H:14])[C@:5]1([C:6]#[N:7])[H:15])([H:8])([H:9])[H:10]>>[C:1]([C:2]1([C:3]([H:11])([H:12])[H:13])[N:4]([H:14])[C:5]([H:15])=[C:6]=[N:7]1)([H:8])([H:9])[H:10]"
C       -0.61502893       1.41754095      -0.30712442
C       -0.10064669       0.02806874      -0.00919171
C       -1.12045428      -0.83526157       0.70092967
N        0.49202956      -0.63436926      -1.13817766
C        1.52643068      -0.86855354      -0.23495500
C        2.40071422       0.19369442       0.31921284
N        1.44574498       0.53023734       1.05738045
H       -0.93731140       1.90376971       0.61332746
H       -1.48623253       1.37171989      -0.96664039
H        0.15846792       2.02129814      -0.77978820
H       -2.06307995      -0.84589472       0.14795939
H       -0.79092262      -1.86757891       0.80296469
H       -1.31941983      -0.43493698       1.69499496
H        0.70961082      -0.08115176      -1.95449712
H        1.70009805      -1.89858246       0.05360504
15
Frame=8 idx=006961 GeodesicLength=0.71075417018278 rxn_smarts="[C:1]([C:2]1([C:3]([H:11])([H:12])[H:13])[N:4]([H:14])[C@:5]1([C:6]#[N:7])[H:15])([H:8])([H:9])[H:10]>>[C:1]([C:2]1([C:3]([H:11])([H:12])[H:13])[N:4]([H:14])[C:5]([H:15])=[C:6]=[N:7]1)([H:8])([H:9])[H:10]"
C       -0.61119957       1.41623812      -0.30396712
C       -0.09370041       0.02852353       0.00397435
C       -1.12490911      -0.83421789       0.70124328
N        0.48893234      -0.63539321      -1.13317112
C        1.52368045      -0.87077963      -0.23797308
C        2.38951773       0.19388280       0.31842236
N        1.46572869       0.55584474       1.07830568
H       -0.94303866       1.90543462       0.61154587
H       -1.47837688       1.37036937      -0.96856760
H        0.16529055       2.01899577      -0.77323281
H       -2.06073535      -0.85035261       0.13692867
H       -0.79648407      -1.86604192       0.81263360
H       -1.33917363      -0.43162802       1.69120949
H        0.69473540      -0.09710279      -1.96174414
H        1.71973252      -1.90377287       0.02439258
15
Frame=9 idx=006961 GeodesicLength=0.7996571194229851 rxn_smarts="[C:1]([C:2]1([C:3]([H:11])([H:12])[H:13])[N:4]([H:14])[C@:5]1([C:6]#[N:7])[H:15])([H:8])([H:9])[H:10]>>[C:1]([C:2]1([C:3]([H:11])([H:12])[H:13])[N:4]([H:14])[C:5]([H:15])=[C:6]=[N:7]1)([H:8])([H:9])[H:10]"
C       -0.60733721       1.41477698      -0.30084248
C       -0.08677751       0.02884181       0.01716839
C       -1.12929430      -0.83314249       0.70158347
N        0.48582819      -0.63634930      -1.12817244
C        1.52075555      -0.87337359      -0.24091581
C        2.37759194       0.19320020       0.31952712
N        1.48619343       0.58298443       1.09871387
H       -0.94858042       1.90701333       0.60961016
H       -1.47052795       1.36888650      -0.97041576
H        0.17202932       2.01653304      -0.76685892
H       -2.05824783      -0.85476435       0.12616456
H       -0.80226336      -1.86448175       0.82228235
H       -1.35864517      -0.42826882       1.68722893
H        0.67976985      -0.11334239      -1.96863493
H        1.73950546      -1.90851359      -0.00643853
15
Frame=10 idx=006961 GeodesicLength=0.8885789014541063 rxn_smarts="[C:1]([C:2]1([C:3]([H:11])([H:12])[H:13])[N:4]([H:14])[C@:5]1([C:6]#[N:7])[H:15])([H:8])([H:9])[H:10]>>[C:1]([C:2]1([C:3]([H:11])([H:12])[H:13])[N:4]([H:14])[C:5]([H:15])=[C:6]=[N:7]1)([H:8])([H:9])[H:10]"
C       -0.60345567       1.41315990      -0.29775803
C       -0.07989160       0.02901797       0.03038572
C       -1.13361851      -0.83204428       0.70196276
N        0.48273249      -0.63722895      -1.12318903
C        1.51764651      -0.87638441      -0.24376930
C        2.36492150       0.19148978       0.32270757
N        1.50717738       0.61179007       1.11848412
H       -0.95394994       1.90850843       0.60751975
H       -1.46270486       1.36727721      -0.97219391
H        0.17868180       2.01390481      -0.76068254
H       -2.05564715      -0.85912306       0.11569438
H       -0.80827559      -1.86291766       0.83190148
H       -1.37781415      -0.42487246       1.68308556
H        0.66476653      -0.12985388      -1.97516431
H        1.75943127      -1.91272349      -0.03898421
15
Frame=11 idx=006961 GeodesicLength=0.9775215920266543 rxn_smarts="[C:1]([C:2]1([C:3]([H:11])([H:12])[H:13])[N:4]([H:14])[C@:5]1([C:6]#[N:7])[H:15])([H:8])([H:9])[H:10]>>[C:1]([C:2]1([C:3]([H:11])([H:12])[H:13])[N:4]([H:14])[C:5]([H:15])=[C:6]=[N:7]1)([H:8])([H:9])[H:10]"
C       -0.59955316       1.41137993      -0.29471263
C       -0.07305587       0.02904091       0.04361883
C       -1.13788647      -0.83093291       0.70238212
N        0.47965076      -0.63802991      -1.11822413
C        1.51433547      -0.87985294      -0.24652786
C        2.35144449       0.18860924       0.32815410
N        1.52872998       0.64239060       1.13747204
H       -0.95913200       1.90991258       0.60528157
H       -1.45490968       1.36554040      -0.97389747
H        0.18525746       2.01109044      -0.75470948
H       -2.05295176      -0.86342892       0.10552915
H       -0.81453205      -1.86136255       0.84147375
H       -1.39665807      -0.42144864       1.67879431
H        0.64975175      -0.14662943      -1.98132087
H        1.77950915      -1.91627879      -0.07331341
15
Frame=12 idx=006961 GeodesicLength=1.0664892729405688 rxn_smarts="[C:1]([C:2]1([C:3]([H:11])([H:12])[H:13])[N:4]([H:14])[C@:5]1([C:6]#[N:7])[H:15])([H:8])([H:9])[H:10]>>[C:1]([C:2]1([C:3]([H:11])([H:12])[H:13])[N:4]([H:14])[C:5]([H:15])=[C:6]=[N:7]1)([H:8])([H:9])[H:10]"
C       -0.59562752       1.40943157      -0.29170481
C       -0.06628782       0.02889648       0.05685668
C       -1.14210688      -0.82982090       0.70284222
N        0.47659026      -0.63875111      -1.11328498
C        1.51080945      -0.88381953      -0.24919047
C        2.33707481       0.18439718       0.33609468
N        1.55092138       0.67491327       1.15549965
H       -0.96410382       1.91121940       0.60290814
H       -1.44714876       1.36368128      -0.97551879
H        0.19176808       2.00806583      -0.74895116
H       -2.05018710      -0.86768004       0.09567948
H       -0.82104576      -1.85983332       0.85097920
H       -1.41515541      -0.41801092       1.67437406
H        0.63474983      -0.16366066      -1.98710036
H        1.79974928      -1.91902854      -0.10948352
15
Frame=13 idx=006961 GeodesicLength=1.1554887991919032 rxn_smarts="[C:1]([C:2]1([C:3]([H:11])([H:12])[H:13])[N:4]([H:14])[C@:5]1([C:6]#[N:7])[H:15])([H:8])([H:9])[H:10]>>[C:1]([C:2]1([C:3]([H:11])([H:12])[H:13])[N:4]([H:14])[C:5]([H:15])=[C:6]=[N:7]1)([H:8])([H:9])[H:10]"
C       -0.59167623       1.40731079      -0.28873260
C       -0.05961126       0.02856809       0.07008361
C       -1.14629134      -0.82872444       0.70334213
N        0.47355961      -0.63939203      -1.10838188
C        1.50705628      -0.88832196      -0.25176004
C        2.32169113       0.17866333       0.34681028
N        1.57384844       0.70948907       1.17233697
H       -0.96883217       1.91242414       0.60041788
H       -1.43943214       1.36170959      -0.97704454
H        0.19822661       2.00480302      -0.74342463
H       -2.04738367      -0.87187383       0.08615650
H       -0.82783158      -1.85835180       0.86039135
H       -1.43328097      -0.41457724       1.66984649
H        0.61978576      -0.18093777      -1.99250221
H        1.82017151      -1.92078896      -0.14753932
15
Frame=14 idx=006961 GeodesicLength=1.2445304029199857 rxn_smarts="[C:1]([C:2]1([C:3]([H:11])([H:12])[H:13])[N:4]([H:14])[C@:5]1([C:6]#[N:7])[H:15])([H:8])([H:9])[H:10]>>[C:1]([C:2]1([C:3]([H:11])([H:12])[H:13])[N:4]([H:14])[C:5]([H:15])=[C:6]=[N:7]1)([H:8])([H:9])[H:10]"
C       -0.58769557       1.40501489      -0.28579149
C       -0.05305759       0.02803513       0.08327718
C       -1.15045529      -0.82766485       0.70387623
N        0.47056888      -0.63995295      -1.10352935
C        1.50306974      -0.89338867      -0.25424805
C        2.30512403       0.17119090       0.36064104
N        1.59765110       0.74624352       1.18768600
H       -0.97326811       1.91352237       0.59784005
H       -1.43177546       1.35964181      -0.97845200
H        0.20464776       2.00126853      -0.73815248
H       -2.04457834      -0.87600785       0.07696720
H       -0.83490510      -1.85694551       0.86967348
H       -1.45100748      -0.41117218       1.66523326
H        0.60487884      -0.19845014      -1.99753134
H        1.84080260      -1.92133500      -0.18748973
15
Frame=15 idx=006961 GeodesicLength=1.3336305516489169 rxn_smarts="[C:1]([C:2]1([C:3]([H:11])([H:12])[H:13])[N:4]([H:14])[C@:5]1([C:6]#[N:7])[H:15])([H:8])([H:9])[H:10]>>[C:1]([C:2]1([C:3]([H:11])([H:12])[H:13])[N:4]([H:14])[C:5]([H:15])=[C:6]=[N:7]1)([H:8])([H:9])[H:10]"
C       -0.58367996       1.40254332      -0.28287262
C       -0.04666975       0.02727236       0.09640537
C       -1.15461915      -0.82667087       0.70443113
N        0.46762911      -0.64043532      -1.09874801
C        1.49885062      -0.89902968      -0.25667754
C        2.28713463       0.16173325       0.37800102
N        1.62253097       0.78528984       1.20115293
H       -0.97733959       1.91450950       0.59522105
H       -1.42420083       1.35750376      -0.97970462
H        0.21104731       1.99742266      -0.73316408
H       -2.04181466      -0.88008103       0.06811148
H       -0.84228269      -1.85564982       0.87877274
H       -1.46830498      -0.40783056       1.66055460
H        0.59003934      -0.21618553      -2.00219959
H        1.86167961      -1.92039188      -0.22928385
15
Frame=16 idx=006961 GeodesicLength=1.4228123715652932 rxn_smarts="[C:1]([C:2]1([C:3]([H:11])([H:12])[H:13])[N:4]([H:14])[C@:5]1([C:6]#[N:7])[H:15])([H:8])([H:9])[H:10]>>[C:1]([C:2]1([C:3]([H:11])([H:12])[H:13])[N:4]([H:14])[C:5]([H:15])=[C:6]=[N:7]1)([H:8])([H:9])[H:10]"
C       -0.57962440       1.39990098      -0.27996108
C       -0.04050725       0.02624955       0.10942291
C       -1.15880993      -0.82578319       0.70498212
N        0.46475584      -0.64083885      -1.09406534
C        1.49441526      -0.90522101      -0.25908579
C        2.26738991       0.15001034       0.39939864
N        1.64878377       0.82671590       1.21220477
H       -0.98094593       1.91538177       0.59263175
H       -1.41674350       1.35533667      -0.98074535
H        0.21743824       1.99322187      -0.72849876
H       -2.03914454      -0.88409590       0.05957838
H       -0.84997924      -1.85451330       0.88761265
H       -1.48514162      -0.40460496       1.65582709
H        0.57526837      -0.23412690      -2.00652654
H        1.88284504      -1.91763297      -0.27277545
