10
Frame=0 idx=001599 GeodesicLength=0.0 rxn_smarts="[O:1]([C:2]([C:3]#[C:4][C:5](=[O:6])[H:10])([H:8])[H:9])[H:7]>>[O:1]([C:2](=[C:3]=[C:4]([C:5](=[O:6])[H:10])[H:8])[H:9])[H:7]"
O       -1.71993359      -0.15757257       1.10863950
C       -1.18433227       0.19789543      -0.08477470
C       -0.56849622      -0.88530017      -0.95343168
C        0.39410576      -0.10045156      -0.51967492
C        1.81616597       0.01705121      -0.18326329
O        2.27518651       0.79869856       0.60262922
H       -1.61204341      -1.11002808       1.21362444
H       -0.12002833       0.94096421       0.13554910
H       -1.71221982       1.00895528      -0.57736646
H        2.43159539      -0.71021230      -0.74193122
10
Frame=1 idx=001599 GeodesicLength=0.11950313196388607 rxn_smarts="[O:1]([C:2]([C:3]#[C:4][C:5](=[O:6])[H:10])([H:8])[H:9])[H:7]>>[O:1]([C:2](=[C:3]=[C:4]([C:5](=[O:6])[H:10])[H:8])[H:9])[H:7]"
O       -1.74442786      -0.17439609       1.10665894
C       -1.20159873       0.20003992      -0.07942183
C       -0.55617028      -0.85403509      -0.94724498
C        0.41323677      -0.07945173      -0.52150742
C        1.83646611       0.00999690      -0.18401620
O        2.31631891       0.81264816       0.56764311
H       -1.62375395      -1.12555783       1.20686041
H       -0.12813784       0.96199890       0.14431764
H       -1.74835712       0.99701031      -0.57512212
H        2.43642398      -0.74825347      -0.71816755
10
Frame=2 idx=001599 GeodesicLength=0.23896163896940498 rxn_smarts="[O:1]([C:2]([C:3]#[C:4][C:5](=[O:6])[H:10])([H:8])[H:9])[H:7]>>[O:1]([C:2](=[C:3]=[C:4]([C:5](=[O:6])[H:10])[H:8])[H:9])[H:7]"
O       -1.76992225      -0.19164669       1.10404508
C       -1.21936567       0.20220858      -0.07392599
C       -0.54334518      -0.82198476      -0.93935405
C        0.43310214      -0.05780624      -0.52222107
C        1.85729166       0.00313357      -0.18474333
O        2.35943266       0.82519835       0.53063550
H       -1.63629497      -1.14127834       1.19957577
H       -0.13649274       0.98335935       0.15400186
H       -1.78455200       0.98395657      -0.57386668
H        2.44014634      -0.78514039      -0.69414707
10
Frame=3 idx=001599 GeodesicLength=0.3584221488784722 rxn_smarts="[O:1]([C:2]([C:3]#[C:4][C:5](=[O:6])[H:10])([H:8])[H:9])[H:7]>>[O:1]([C:2](=[C:3]=[C:4]([C:5](=[O:6])[H:10])[H:8])[H:9])[H:7]"
O       -1.79677922      -0.20878473       1.10075230
C       -1.23770921       0.20431966      -0.06837346
C       -0.52995376      -0.78969073      -0.92902735
C        0.45377842      -0.03595441      -0.52132990
C        1.87870971      -0.00388152      -0.18500684
O        2.40436491       0.83535965       0.49271414
H       -1.65006379      -1.15659671       1.19229756
H       -0.14512016       1.00499981       0.16445853
H       -1.82064593       0.96943426      -0.57432214
H        2.44341904      -0.81920527      -0.67216283
10
Frame=4 idx=001599 GeodesicLength=0.4778043398214568 rxn_smarts="[O:1]([C:2]([C:3]#[C:4][C:5](=[O:6])[H:10])([H:8])[H:9])[H:7]>>[O:1]([C:2](=[C:3]=[C:4]([C:5](=[O:6])[H:10])[H:8])[H:9])[H:7]"
O       -1.82451708      -0.22619149       1.09690828
C       -1.25667325       0.20645355      -0.06271981
C       -0.51605112      -0.75663141      -0.91658984
C        0.47519461      -0.01331591      -0.51926293
C        1.90082518      -0.01006049      -0.18616881
O        2.45101266       0.84308220       0.45391137
H       -1.66440448      -1.17192854       1.18482048
H       -0.15414196       1.02722149       0.17558902
H       -1.85698517       0.95339340      -0.57618487
H        2.44574062      -0.85202281      -0.65030289
10
Frame=5 idx=001599 GeodesicLength=0.5971675996230432 rxn_smarts="[O:1]([C:2]([C:3]#[C:4][C:5](=[O:6])[H:10])([H:8])[H:9])[H:7]>>[O:1]([C:2](=[C:3]=[C:4]([C:5](=[O:6])[H:10])[H:8])[H:9])[H:7]"
O       -1.85390355      -0.24328698       1.09226868
C       -1.27632926       0.20848571      -0.05703184
C       -0.50154206      -0.72339506      -0.90099169
C        0.49748987       0.00942251      -0.51507815
C        1.92366149      -0.01636232      -0.18692295
O        2.49933877       0.84803886       0.41465638
H       -1.68026756      -1.18656773       1.17759075
H       -0.16353283       1.04978429       0.18759882
H       -1.89303587       0.93545786      -0.58027149
H        2.44812100      -0.88157714      -0.63181851
10
Frame=6 idx=001599 GeodesicLength=0.7164676474593414 rxn_smarts="[O:1]([C:2]([C:3]#[C:4][C:5](=[O:6])[H:10])([H:8])[H:9])[H:7]>>[O:1]([C:2](=[C:3]=[C:4]([C:5](=[O:6])[H:10])[H:8])[H:9])[H:7]"
O       -1.88441265      -0.26049083       1.08699226
C       -1.29672851       0.21053481      -0.05127993
C       -0.48648986      -0.68938134      -0.88265446
C        0.52057923       0.03293659      -0.50927160
C        1.94733702      -0.02190710      -0.18874945
O        2.54925813       0.85026167       0.37499786
H       -1.69687757      -1.20100697       1.17039805
H       -0.17343238       1.07303928       0.20044564
H       -1.92917339       0.91558518      -0.58629080
H        2.44993998      -0.90957129      -0.61458758
10
Frame=7 idx=001599 GeodesicLength=0.8357485999732789 rxn_smarts="[O:1]([C:2]([C:3]#[C:4][C:5](=[O:6])[H:10])([H:8])[H:9])[H:7]>>[O:1]([C:2](=[C:3]=[C:4]([C:5](=[O:6])[H:10])[H:8])[H:9])[H:7]"
O       -1.91652124      -0.27776154       1.08080523
C       -1.31791902       0.21257299      -0.04546336
C       -0.47085373      -0.65458770      -0.86101909
C        0.54455239       0.05701951      -0.50119656
C        1.97187640      -0.02714649      -0.19103652
O        2.60091435       0.85014744       0.33416977
H       -1.71478778      -1.21513199       1.16317609
H       -0.18382761       1.09683976       0.21466169
H       -1.96496398       0.89364212      -0.59456010
H        2.45153023      -0.93559412      -0.59953715
10
Frame=8 idx=001599 GeodesicLength=0.9551751994814127 rxn_smarts="[O:1]([C:2]([C:3]#[C:4][C:5](=[O:6])[H:10])([H:8])[H:9])[H:7]>>[O:1]([C:2](=[C:3]=[C:4]([C:5](=[O:6])[H:10])[H:8])[H:9])[H:7]"
O       -1.95064602      -0.29474322       1.07360454
C       -1.34000919       0.21456695      -0.03970092
C       -0.45452441      -0.61927614      -0.83535482
C        0.56952658       0.08153118      -0.49033418
C        1.99740132      -0.03236034      -0.19349311
O        2.65410580       0.84722704       0.29297404
H       -1.73418065      -1.22851076       1.15652869
H       -0.19490532       1.12130093       0.23030759
H       -2.00018206       0.86915196      -0.60583942
H        2.45341395      -0.95888759      -0.58869242
10
Frame=9 idx=001599 GeodesicLength=1.074150851288408 rxn_smarts="[O:1]([C:2]([C:3]#[C:4][C:5](=[O:6])[H:10])([H:8])[H:9])[H:7]>>[O:1]([C:2](=[C:3]=[C:4]([C:5](=[O:6])[H:10])[H:8])[H:9])[H:7]"
O       -1.98571817      -0.31314544       1.06506030
C       -1.36278569       0.21679260      -0.03366669
C       -0.43784272      -0.58148695      -0.80697410
C        0.59522750       0.10770610      -0.47728455
C        2.02374205      -0.03616414      -0.19847919
O        2.70944817       0.84341739       0.24687472
H       -1.75431772      -1.24299988       1.14803454
H       -0.20629431       1.14631851       0.24883398
H       -2.03473965       0.84298928      -0.61836405
H        2.45328056      -0.98342747      -0.57403496
10
Frame=10 idx=001599 GeodesicLength=1.1932497610877724 rxn_smarts="[O:1]([C:2]([C:3]#[C:4][C:5](=[O:6])[H:10])([H:8])[H:9])[H:7]>>[O:1]([C:2](=[C:3]=[C:4]([C:5](=[O:6])[H:10])[H:8])[H:9])[H:7]"
O       -2.02317191      -0.33134102       1.05502567
C       -1.38648747       0.21896903      -0.02775921
C       -0.42041666      -0.54286868      -0.77354497
C        0.62201038       0.13440308      -0.46043551
C        2.05112328      -0.03990229      -0.20408771
O        2.76621845       0.83704861       0.19909137
H       -1.77632389      -1.25674635       1.13992628
H       -0.21842621       1.17197884       0.26989940
H       -2.06787713       0.81382345      -0.63451914
H        2.45335117      -1.00536466      -0.56359618
10
Frame=11 idx=001599 GeodesicLength=1.3124091552993296 rxn_smarts="[O:1]([C:2]([C:3]#[C:4][C:5](=[O:6])[H:10])([H:8])[H:9])[H:7]>>[O:1]([C:2](=[C:3]=[C:4]([C:5](=[O:6])[H:10])[H:8])[H:9])[H:7]"
O       -2.06242803      -0.35047031       1.04317684
C       -1.41101685       0.22130214      -0.02182211
C       -0.40247986      -0.50208837      -0.73556706
C        0.64974272       0.16253665      -0.44004178
C        2.07959819      -0.04238450      -0.21292204
O        2.82469593       0.82887954       0.14690224
H       -1.79973331      -1.27098127       1.13073101
H       -0.23111055       1.19827663       0.29476502
H       -2.09933824       0.78212234      -0.65344958
H        2.45206999      -1.02719284      -0.55177254
10
Frame=12 idx=001599 GeodesicLength=1.431935585631651 rxn_smarts="[O:1]([C:2]([C:3]#[C:4][C:5](=[O:6])[H:10])([H:8])[H:9])[H:7]>>[O:1]([C:2](=[C:3]=[C:4]([C:5](=[O:6])[H:10])[H:8])[H:9])[H:7]"
O       -2.10612963      -0.36753005       1.02882976
C       -1.43657440       0.22320242      -0.01679540
C       -0.38316241      -0.46204374      -0.68882443
C        0.67909958       0.19010483      -0.41256510
C        2.10931071      -0.04591685      -0.22046736
O        2.88299111       0.81670052       0.09623658
H       -1.82589633      -1.28179417       1.12521190
H       -0.24542358       1.22545979       0.32264399
H       -2.12718065       0.74483603      -0.67959160
H        2.45296560      -1.04301878      -0.55467835
10
Frame=13 idx=001599 GeodesicLength=1.5499422098895448 rxn_smarts="[O:1]([C:2]([C:3]#[C:4][C:5](=[O:6])[H:10])([H:8])[H:9])[H:7]>>[O:1]([C:2](=[C:3]=[C:4]([C:5](=[O:6])[H:10])[H:8])[H:9])[H:7]"
O       -2.14948655      -0.38831394       1.01116003
C       -1.46195642       0.22587611      -0.01117655
C       -0.36397212      -0.41647141      -0.63876727
C        0.70885585       0.22066721      -0.38117395
C        2.13880611      -0.04624423      -0.23658892
O        2.94270372       0.80550090       0.03057812
H       -1.85293040      -1.29645783       1.11278009
H       -0.25924130       1.25257204       0.35890219
H       -2.15118070       0.70699855      -0.70575247
H        2.44840182      -1.06412739      -0.53996124
10
Frame=14 idx=001599 GeodesicLength=1.668390246509768 rxn_smarts="[O:1]([C:2]([C:3]#[C:4][C:5](=[O:6])[H:10])([H:8])[H:9])[H:7]>>[O:1]([C:2](=[C:3]=[C:4]([C:5](=[O:6])[H:10])[H:8])[H:9])[H:7]"
O       -2.19727948      -0.40686679       0.98998361
C       -1.48782444       0.22785312      -0.00690723
C       -0.34354512      -0.37137828      -0.57765349
C        0.74046085       0.24990308      -0.33994297
C        2.16887119      -0.04749411      -0.25263997
O        3.00102079       0.79181040      -0.03699106
H       -1.88414163      -1.30766830       1.10328545
H       -0.27467503       1.28051234       0.40002013
H       -2.16853287       0.66297734      -0.73985364
H        2.44564574      -1.07964878      -0.53930083
10
Frame=15 idx=001599 GeodesicLength=1.7871354600707405 rxn_smarts="[O:1]([C:2]([C:3]#[C:4][C:5](=[O:6])[H:10])([H:8])[H:9])[H:7]>>[O:1]([C:2](=[C:3]=[C:4]([C:5](=[O:6])[H:10])[H:8])[H:9])[H:7]"
O       -2.24708862      -0.42883906       0.96275305
C       -1.51313255       0.23079627      -0.00254848
C       -0.32287683      -0.32118111      -0.50925304
C        0.77363094       0.28029297      -0.28913162
C        2.19829580      -0.04692656      -0.27515661
O        3.05875200       0.78070280      -0.12876354
H       -1.91888232      -1.32278206       1.08576229
H       -0.29010881       1.30780274       0.45389019
H       -2.17787017       0.61913605      -0.77614764
H        2.43928058      -1.09900203      -0.52140460
10
Frame=16 idx=001599 GeodesicLength=1.904337777873552 rxn_smarts="[O:1]([C:2]([C:3]#[C:4][C:5](=[O:6])[H:10])([H:8])[H:9])[H:7]>>[O:1]([C:2](=[C:3]=[C:4]([C:5](=[O:6])[H:10])[H:8])[H:9])[H:7]"
O       -2.29856735      -0.44577277       0.93166877
C       -1.53668707       0.23207724      -0.00144022
C       -0.30072441      -0.27193476      -0.42648045
C        0.80873644       0.30784687      -0.22424597
C        2.22464468      -0.04810096      -0.29537607
O        3.10739224       0.76280616      -0.21279602
H       -1.95488331      -1.33024870       1.07588175
H       -0.30844531       1.33900481       0.50844780
H       -2.17481612       0.56299689      -0.82321376
H        2.43335020      -1.10867478      -0.53244583
