13
Frame=0 idx=005998 GeodesicLength=0.0 rxn_smarts="[C:1]([N:2]1[C:3]([H:10])([H:11])[C@:4]1([C:5](=[O:6])[H:13])[H:12])([H:7])([H:8])[H:9]>>[C:1]([N:2]1[C:3]([H:10])([H:11])/[C:4]1=[C:5](\[O:6][H:12])[H:13])([H:7])([H:8])[H:9]"
C        1.79277452       0.45268617      -0.33880937
N        0.36964413       0.48287528      -0.63421279
C       -0.47317197       1.02195393       0.39687331
C       -0.41481620      -0.45852745       0.13559088
C       -1.51699438      -1.17490812      -0.38985977
O       -1.95368383      -1.93031953       0.52778482
H        2.23345210       1.41537408      -0.60400507
H        2.26409879      -0.32287299      -0.94319060
H        1.99748871       0.24029280       0.71886786
H       -0.01632967       1.35300316       1.32615905
H       -1.31293881       1.61967004       0.05780594
H       -0.99258359      -1.50216976       1.12515879
H       -1.97693986      -1.19705767      -1.37816308
13
Frame=1 idx=005998 GeodesicLength=0.04261100501571204 rxn_smarts="[C:1]([N:2]1[C:3]([H:10])([H:11])[C@:4]1([C:5](=[O:6])[H:13])[H:12])([H:7])([H:8])[H:9]>>[C:1]([N:2]1[C:3]([H:10])([H:11])/[C:4]1=[C:5](\[O:6][H:12])[H:13])([H:7])([H:8])[H:9]"
C        1.78735170       0.44756540      -0.34108455
N        0.36371617       0.48843258      -0.63216855
C       -0.47518426       1.02939448       0.40268237
C       -0.42563317      -0.44780680       0.13587287
C       -1.52158624      -1.17130841      -0.39060732
O       -1.94594616      -1.94078114       0.52315177
H        2.23361473       1.40805797      -0.60485945
H        2.25203386      -0.32878824      -0.94967349
H        1.99454347       0.23138701       0.71544921
H       -0.01381970       1.35473653       1.33182183
H       -1.31204361       1.63284026       0.06667757
H       -0.98843305      -1.48975202       1.13544251
H       -1.94861375      -1.21397761      -1.39270477
13
Frame=2 idx=005998 GeodesicLength=0.08519158340513287 rxn_smarts="[C:1]([N:2]1[C:3]([H:10])([H:11])[C@:4]1([C:5](=[O:6])[H:13])[H:12])([H:7])([H:8])[H:9]>>[C:1]([N:2]1[C:3]([H:10])([H:11])/[C:4]1=[C:5](\[O:6][H:12])[H:13])([H:7])([H:8])[H:9]"
C        1.78173559       0.44231185      -0.34330208
N        0.35773887       0.49400566      -0.63020552
C       -0.47728590       1.03686695       0.40831732
C       -0.43669984      -0.43698294       0.13590520
C       -1.52627085      -1.16782890      -0.39158738
O       -1.93769261      -1.95112031       0.51846023
H        2.23370253       1.40054271      -0.60554510
H        2.23975138      -0.33478645      -0.95606371
H        1.99120637       0.22222197       0.71206809
H       -0.01152818       1.35635987       1.33735272
H       -1.31111971       1.64607253       0.07532056
H       -0.98379053      -1.47739969       1.14540129
H       -1.91974712      -1.23026324      -1.40612163
13
Frame=3 idx=005998 GeodesicLength=0.1278037571266225 rxn_smarts="[C:1]([N:2]1[C:3]([H:10])([H:11])[C@:4]1([C:5](=[O:6])[H:13])[H:12])([H:7])([H:8])[H:9]>>[C:1]([N:2]1[C:3]([H:10])([H:11])/[C:4]1=[C:5](\[O:6][H:12])[H:13])([H:7])([H:8])[H:9]"
C        1.77597553       0.43694716      -0.34546043
N        0.35173688       0.49956670      -0.62832754
C       -0.47949700       1.04433130       0.41377548
C       -0.44797205      -0.42609550       0.13570937
C       -1.53089168      -1.16462900      -0.39284964
O       -1.92907264      -1.96118193       0.51376430
H        2.23373885       1.39285489      -0.60608037
H        2.22733100      -0.34084192      -0.96236325
H        1.98753243       0.21283807       0.70874588
H       -0.00948654       1.35786346       1.34276221
H       -1.31024138       1.65927092       0.08371884
H       -0.97860851      -1.46513541       1.15505708
H       -1.89054490      -1.24578875      -1.41845193
13
Frame=4 idx=005998 GeodesicLength=0.17043543147956236 rxn_smarts="[C:1]([N:2]1[C:3]([H:10])([H:11])[C@:4]1([C:5](=[O:6])[H:13])[H:12])([H:7])([H:8])[H:9]>>[C:1]([N:2]1[C:3]([H:10])([H:11])/[C:4]1=[C:5](\[O:6][H:12])[H:13])([H:7])([H:8])[H:9]"
C        1.77009703       0.43149641      -0.34753718
N        0.34574793       0.50506989      -0.62653318
C       -0.48180664       1.05174134       0.41902828
C       -0.45939105      -0.41519642       0.13529190
C       -1.53531379      -1.16179833      -0.39442141
O       -1.92021626      -1.97086899       0.50913863
H        2.23370119       1.38503943      -0.60644651
H        2.21484018      -0.34690884      -0.96853868
H        1.98354035       0.20328258       0.70550862
H       -0.00771427       1.35923528       1.34802013
H       -1.30939941       1.67236386       0.09180977
H       -0.97280404      -1.45302649       1.16439132
H       -1.86128121      -1.26042973      -1.42971171
13
Frame=5 idx=005998 GeodesicLength=0.21308837458222052 rxn_smarts="[C:1]([N:2]1[C:3]([H:10])([H:11])[C@:4]1([C:5](=[O:6])[H:13])[H:12])([H:7])([H:8])[H:9]>>[C:1]([N:2]1[C:3]([H:10])([H:11])/[C:4]1=[C:5](\[O:6][H:12])[H:13])([H:7])([H:8])[H:9]"
C        1.76415797       0.42597586      -0.34949394
N        0.33982649       0.51045784      -0.62483878
C       -0.48423242       1.05904809       0.42401200
C       -0.47088762      -0.40434761       0.13464326
C       -1.53932862      -1.15953457      -0.39636262
O       -1.91109155      -1.98022807       0.50459680
H        2.23361645       1.37712016      -0.60662426
H        2.20239266      -0.35298365      -0.97451176
H        1.97925741       0.19362092       0.70241324
H       -0.00627589       1.36049290       1.35307128
H       -1.30864737       1.68523753       0.09947806
H       -0.96631392      -1.44105930       1.17344348
H       -1.83247358      -1.27380011      -1.43982677
13
Frame=6 idx=005998 GeodesicLength=0.2557419628208437 rxn_smarts="[C:1]([N:2]1[C:3]([H:10])([H:11])[C@:4]1([C:5](=[O:6])[H:13])[H:12])([H:7])([H:8])[H:9]>>[C:1]([N:2]1[C:3]([H:10])([H:11])/[C:4]1=[C:5](\[O:6][H:12])[H:13])([H:7])([H:8])[H:9]"
C        1.75813120       0.42038767      -0.35134611
N        0.33395259       0.51575564      -0.62321117
C       -0.48675537       1.06626362       0.42877065
C       -0.48247869      -0.39352190       0.13380236
C       -1.54292319      -1.15779703      -0.39861365
O       -1.90177887      -1.98921578       0.50013703
H        2.23347162       1.36909010      -0.60663058
H        2.18991988      -0.35905528      -0.98031325
H        1.97467070       0.18383203       0.69942454
H       -0.00512638       1.36163054       1.35793700
H       -1.30794376       1.69792435       0.10679780
H       -0.95914047      -1.42919384       1.18222510
H       -1.80399926      -1.28610012      -1.44897972
13
Frame=7 idx=005998 GeodesicLength=0.29846701022526834 rxn_smarts="[C:1]([N:2]1[C:3]([H:10])([H:11])[C@:4]1([C:5](=[O:6])[H:13])[H:12])([H:7])([H:8])[H:9]>>[C:1]([N:2]1[C:3]([H:10])([H:11])/[C:4]1=[C:5](\[O:6][H:12])[H:13])([H:7])([H:8])[H:9]"
C        1.75199598       0.41471230      -0.35312335
N        0.32808358       0.52100833      -0.62163683
C       -0.48938435       1.07343522       0.43337044
C       -0.49420601      -0.38267744       0.13278311
C       -1.54615395      -1.15649380      -0.40118124
O       -1.89232922      -1.99782904       0.49577887
H        2.23326704       1.36092611      -0.60647437
H        2.17735661      -0.36515079      -0.98602547
H        1.96978912       0.17385213       0.69651002
H       -0.00422569       1.36266737       1.36268677
H       -1.30729980       1.71052433       0.11388017
H       -0.95129569      -1.41736800       1.19075344
H       -1.77559762      -1.29760671      -1.45732155
13
Frame=8 idx=005998 GeodesicLength=0.3412688455356222 rxn_smarts="[C:1]([N:2]1[C:3]([H:10])([H:11])[C@:4]1([C:5](=[O:6])[H:13])[H:12])([H:7])([H:8])[H:9]>>[C:1]([N:2]1[C:3]([H:10])([H:11])/[C:4]1=[C:5](\[O:6][H:12])[H:13])([H:7])([H:8])[H:9]"
C        1.74574087       0.40894646      -0.35482717
N        0.32221360       0.52622637      -0.62010947
C       -0.49211643       1.08057024       0.43781840
C       -0.50607524      -0.37180059       0.13159337
C       -1.54896968      -1.15563880      -0.40405796
O       -1.88275557      -2.00608006       0.49151949
H        2.23300361       1.35261740      -0.60615018
H        2.16466951      -0.37127186      -0.99165804
H        1.96459616       0.16366182       0.69366734
H       -0.00356310       1.36361323       1.36732490
H       -1.30670968       1.72304308       0.12073781
H       -0.94275928      -1.40555033       1.19904502
H       -1.74727477      -1.30833695      -1.46490352
13
Frame=9 idx=005998 GeodesicLength=0.3842098700405659 rxn_smarts="[C:1]([N:2]1[C:3]([H:10])([H:11])[C@:4]1([C:5](=[O:6])[H:13])[H:12])([H:7])([H:8])[H:9]>>[C:1]([N:2]1[C:3]([H:10])([H:11])/[C:4]1=[C:5](\[O:6][H:12])[H:13])([H:7])([H:8])[H:9]"
C        1.73930577       0.40306043      -0.35650572
N        0.31627403       0.53148931      -0.61858263
C       -0.49495080       1.08773882       0.44222612
C       -0.51816579      -0.36079739       0.13026169
C       -1.55151035      -1.15502994      -0.40721096
O       -1.87311501      -2.01391598       0.48735093
H        2.23266379       1.34411203      -0.60566035
H        2.15171948      -0.37743429      -0.99733563
H        1.95906278       0.15314457       0.69080515
H       -0.00307440       1.36446372       1.37193973
H       -1.30614133       1.73563622       0.12756794
H       -0.93355086      -1.39362717       1.20709178
H       -1.71851731      -1.31884033      -1.47194806
13
Frame=10 idx=005998 GeodesicLength=0.42719813929564154 rxn_smarts="[C:1]([N:2]1[C:3]([H:10])([H:11])[C@:4]1([C:5](=[O:6])[H:13])[H:12])([H:7])([H:8])[H:9]>>[C:1]([N:2]1[C:3]([H:10])([H:11])/[C:4]1=[C:5](\[O:6][H:12])[H:13])([H:7])([H:8])[H:9]"
C        1.73273850       0.39708562      -0.35811615
N        0.31032406       0.53671345      -0.61707830
C       -0.49788194       1.09486681       0.44650945
C       -0.53041789      -0.34975651       0.12878739
C       -1.55362566      -1.15483587      -0.41062227
O       -1.86343228      -2.02137357       0.48328484
H        2.23225266       1.33545928      -0.60501164
H        2.13862228      -0.38361196      -1.00294145
H        1.95320402       0.14241038       0.68799689
H       -0.00280694       1.36521502       1.37645406
H       -1.30559532       1.74816882       0.13421213
H       -0.92358739      -1.38166263       1.21487815
H       -1.68979411      -1.32867886      -1.47835310
13
Frame=11 idx=005998 GeodesicLength=0.4702627647541726 rxn_smarts="[C:1]([N:2]1[C:3]([H:10])([H:11])[C@:4]1([C:5](=[O:6])[H:13])[H:12])([H:7])([H:8])[H:9]>>[C:1]([N:2]1[C:3]([H:10])([H:11])/[C:4]1=[C:5](\[O:6][H:12])[H:13])([H:7])([H:8])[H:9]"
C        1.72608327       0.39102922      -0.35962172
N        0.30440625       0.54183950      -0.61562078
C       -0.50092142       1.10191727       0.45060684
C       -0.54278298      -0.33873822       0.12713426
C       -1.55522810      -1.15511919      -0.41432208
O       -1.85363180      -2.02855815       0.47933569
H        2.23177407       1.32668239      -0.60417616
H        2.12548902      -0.38980736      -1.00840402
H        1.94704334       0.13151362       0.68530371
H       -0.00281248       1.36587723       1.38082668
H       -1.30509211       1.76058495       0.14055193
H       -0.91280387      -1.36966855       1.22243842
H       -1.66152319      -1.33755271      -1.48405277
13
Frame=12 idx=005998 GeodesicLength=0.5134301736435871 rxn_smarts="[C:1]([N:2]1[C:3]([H:10])([H:11])[C@:4]1([C:5](=[O:6])[H:13])[H:12])([H:7])([H:8])[H:9]>>[C:1]([N:2]1[C:3]([H:10])([H:11])/[C:4]1=[C:5](\[O:6][H:12])[H:13])([H:7])([H:8])[H:9]"
C        1.71927035       0.38486650      -0.36108139
N        0.29844424       0.54695204      -0.61416058
C       -0.50406156       1.10895591       0.45463838
C       -0.55535850      -0.32763319       0.12535356
C       -1.55649826      -1.15566421      -0.41824424
O       -1.84380482      -2.03540238       0.47547754
H        2.23121393       1.31772461      -0.60317909
H        2.11215630      -0.39602192      -1.01385554
H        1.94053963       0.12034398       0.68262303
H       -0.00301291       1.36643632       1.38514606
H       -1.30458385       1.77302919       0.14680190
H       -0.90124381      -1.35753607       1.22973498
H       -1.63306074      -1.34605077      -1.48925461
13
Frame=13 idx=005998 GeodesicLength=0.5567335337931731 rxn_smarts="[C:1]([N:2]1[C:3]([H:10])([H:11])[C@:4]1([C:5](=[O:6])[H:13])[H:12])([H:7])([H:8])[H:9]>>[C:1]([N:2]1[C:3]([H:10])([H:11])/[C:4]1=[C:5](\[O:6][H:12])[H:13])([H:7])([H:8])[H:9]"
C        1.71227427       0.37858405      -0.36249964
N        0.29241711       0.55205853      -0.61269228
C       -0.50730412       1.11599437       0.45861711
C       -0.56816221      -0.31644686       0.12343333
C       -1.55741184      -1.15645960      -0.42240421
O       -1.83393024      -2.04192201       0.47171275
H        2.23055209       1.30858159      -0.60199464
H        2.09857247      -0.40226807      -1.01932727
H        1.93366936       0.10884890       0.67994331
H       -0.00339183       1.36690445       1.38942774
H       -1.30406158       1.78553647       0.15298594
H       -0.88889586      -1.34519541       1.23677938
H       -1.60432762      -1.35421643      -1.49398151
13
Frame=14 idx=005998 GeodesicLength=0.6001641917943452 rxn_smarts="[C:1]([N:2]1[C:3]([H:10])([H:11])[C@:4]1([C:5](=[O:6])[H:13])[H:12])([H:7])([H:8])[H:9]>>[C:1]([N:2]1[C:3]([H:10])([H:11])/[C:4]1=[C:5](\[O:6][H:12])[H:13])([H:7])([H:8])[H:9]"
C        1.70512702       0.37219614      -0.36385962
N        0.28635412       0.55711464      -0.61122497
C       -0.51065331       1.12299362       0.46251160
C       -0.58116338      -0.30521626       0.12137231
C       -1.55793966      -1.15753381      -0.42678908
O       -1.82403291      -2.04814632       0.46804392
H        2.22979276       1.29926951      -0.60063764
H        2.08481609      -0.40853531      -1.02476470
H        1.92645084       0.09709549       0.67729801
H       -0.00398229       1.36726935       1.39364526
H       -1.30352681       1.79805246       0.15903922
H       -0.87570964      -1.33267816       1.24356184
H       -1.57553283      -1.36188133      -1.49819616
13
Frame=15 idx=005998 GeodesicLength=0.643698550985887 rxn_smarts="[C:1]([N:2]1[C:3]([H:10])([H:11])[C@:4]1([C:5](=[O:6])[H:13])[H:12])([H:7])([H:8])[H:9]>>[C:1]([N:2]1[C:3]([H:10])([H:11])/[C:4]1=[C:5](\[O:6][H:12])[H:13])([H:7])([H:8])[H:9]"
C        1.69784567       0.36571393      -0.36515366
N        0.28026798       0.56208237      -0.60975579
C       -0.51410664       1.12992157       0.46631376
C       -0.59434064      -0.29398070       0.11918138
C       -1.55809074      -1.15886556      -0.43136732
O       -1.81413390      -2.05409167       0.46446672
H        2.22892495       1.28980912      -0.59911854
H        2.07093417      -0.41481431      -1.03013821
H        1.91890245       0.08512597       0.67469999
H       -0.00479127       1.36752116       1.39778826
H       -1.30296834       1.81054536       0.16493776
H       -0.86166499      -1.31996824       1.25007022
H       -1.54677871      -1.36899900      -1.50192457
13
Frame=16 idx=005998 GeodesicLength=0.687328670443804 rxn_smarts="[C:1]([N:2]1[C:3]([H:10])([H:11])[C@:4]1([C:5](=[O:6])[H:13])[H:12])([H:7])([H:8])[H:9]>>[C:1]([N:2]1[C:3]([H:10])([H:11])/[C:4]1=[C:5](\[O:6][H:12])[H:13])([H:7])([H:8])[H:9]"
C        1.69044787       0.35915048      -0.36637551
N        0.27417177       0.56692478      -0.60828212
C       -0.51765898       1.13674563       0.47001604
C       -0.60766651      -0.28278087       0.11686781
C       -1.55788597      -1.16042296      -0.43611167
O       -1.80426133      -2.05977733       0.46097778
H        2.22793732       1.28022485      -0.59744487
H        2.05697322      -0.42109265      -1.03542376
H        1.91104614       0.07298378       0.67215899
H       -0.00582143       1.36765148       1.40184631
H       -1.30237357       1.82298094       0.17066156
H       -0.84675501      -1.30705264       1.25630131
H       -1.51815351      -1.37553549      -1.50519186
