13
Frame=0 idx=002456 GeodesicLength=0.0 rxn_smarts="[N:1]#[C:2][C:3]([C:4]1([H:9])[C:5]([H:10])([H:11])[C:6]1([H:12])[H:13])([H:7])[H:8]>>[N:1]#[C:2][C:3]([C:4][C:6]([C:5]([H:9])([H:10])[H:11])([H:12])[H:13])([H:7])[H:8]"
N        3.07257312      -0.01225992       1.27901038
C        2.24996761       0.06133251       0.48333212
C        1.18059357       0.11301336      -0.51112041
C       -0.04614935       0.88823858      -0.05660303
C       -1.18413909      -0.38934352       0.69862384
C       -1.26766409       0.32576408      -0.65148617
H        1.00075344      -0.90715344      -0.88104182
H        1.54163384       0.69480918      -1.36663014
H       -0.33336209       0.19135738       1.25286946
H       -2.01114410      -0.16444901       1.36360369
H       -0.91228245      -1.43783163       0.63793788
H       -1.17425410      -0.35719097      -1.49670130
H       -2.11652630       0.99371334      -0.75179452
13
Frame=1 idx=002456 GeodesicLength=0.055742245292972385 rxn_smarts="[N:1]#[C:2][C:3]([C:4]1([H:9])[C:5]([H:10])([H:11])[C:6]1([H:12])[H:13])([H:7])[H:8]>>[N:1]#[C:2][C:3]([C:4][C:6]([C:5]([H:9])([H:10])[H:11])([H:12])[H:13])([H:7])[H:8]"
N        3.08333509      -0.01405753       1.27093349
C        2.25770186       0.05931374       0.47840997
C        1.18432631       0.11124241      -0.51178528
C       -0.04346863       0.87807115      -0.05252108
C       -1.18919816      -0.38983605       0.69976041
C       -1.26765695       0.32429652      -0.65077337
H        1.00503930      -0.90786065      -0.88421828
H        1.54079691       0.69638231      -1.36722920
H       -0.34661274       0.21631930       1.27028548
H       -2.03015367      -0.17957192       1.35180540
H       -0.90762185      -1.43609463       0.64240972
H       -1.17589719      -0.35803897      -1.49660018
H       -2.11059028       0.99983434      -0.75047709
13
Frame=2 idx=002456 GeodesicLength=0.1114937236304756 rxn_smarts="[N:1]#[C:2][C:3]([C:4]1([H:9])[C:5]([H:10])([H:11])[C:6]1([H:12])[H:13])([H:7])[H:8]>>[N:1]#[C:2][C:3]([C:4][C:6]([C:5]([H:9])([H:10])[H:11])([H:12])[H:13])([H:7])[H:8]"
N        3.09417264      -0.01613378       1.26272972
C        2.26537893       0.05709338       0.47353138
C        1.18808752       0.10945470      -0.51245766
C       -0.04077817       0.86764608      -0.04823356
C       -1.19426785      -0.39042207       0.70096454
C       -1.26761334       0.32275801      -0.64999723
H        1.00938312      -0.90850311      -0.88761813
H        1.53995115       0.69820843      -1.36762279
H       -0.36066330       0.24228280       1.28718147
H       -2.04868770      -0.19497339       1.33988101
H       -0.90291993      -1.43434038       0.64711491
H       -1.17752209      -0.35894661      -1.49644057
H       -2.10452097       1.00587594      -0.74903308
13
Frame=3 idx=002456 GeodesicLength=0.16724057271931583 rxn_smarts="[N:1]#[C:2][C:3]([C:4]1([H:9])[C:5]([H:10])([H:11])[C:6]1([H:12])[H:13])([H:7])[H:8]>>[N:1]#[C:2][C:3]([C:4][C:6]([C:5]([H:9])([H:10])[H:11])([H:12])[H:13])([H:7])[H:8]"
N        3.10500589      -0.01852440       1.25447065
C        2.27303280       0.05469196       0.46865531
C        1.19188205       0.10766236      -0.51315109
C       -0.03807433       0.85695148      -0.04372692
C       -1.19934202      -0.39111587       0.70224468
C       -1.26752785       0.32114031      -0.64914845
H        1.01379449      -0.90906767      -0.89126101
H        1.53908072       0.70031451      -1.36782071
H       -0.37550298       0.26924412       1.30347515
H       -2.06670031      -0.21060797       1.32788456
H       -0.89820367      -1.43258940       0.65204618
H       -1.17912544      -0.35992109      -1.49621619
H       -2.09831935       1.01182165      -0.74745216
13
Frame=4 idx=002456 GeodesicLength=0.22300808194895477 rxn_smarts="[N:1]#[C:2][C:3]([C:4]1([H:9])[C:5]([H:10])([H:11])[C:6]1([H:12])[H:13])([H:7])[H:8]>>[N:1]#[C:2][C:3]([C:4][C:6]([C:5]([H:9])([H:10])[H:11])([H:12])[H:13])([H:7])[H:8]"
N        3.11593111      -0.02122100       1.24608528
C        2.28068200       0.05211003       0.46379178
C        1.19571220       0.10586381      -0.51384025
C       -0.03536099       0.84596450      -0.03895856
C       -1.20444370      -0.39192881       0.70360866
C       -1.26739338       0.31944348      -0.64822012
H        1.01828604      -0.90954926      -0.89513277
H        1.53817274       0.70270678      -1.36779479
H       -0.39117827       0.29722002       1.31910879
H       -2.08423362      -0.22647672       1.31581562
H       -0.89351280      -1.43085719       0.65720379
H       -1.18069097      -0.36095773      -1.49592569
H       -2.09197035       1.01768209      -0.74574174
13
Frame=5 idx=002456 GeodesicLength=0.2787643243608081 rxn_smarts="[N:1]#[C:2][C:3]([C:4]1([H:9])[C:5]([H:10])([H:11])[C:6]1([H:12])[H:13])([H:7])[H:8]>>[N:1]#[C:2][C:3]([C:4][C:6]([C:5]([H:9])([H:10])[H:11])([H:12])[H:13])([H:7])[H:8]"
N        3.12688573      -0.02420379       1.23759703
C        2.28834785       0.04937396       0.45889468
C        1.19956972       0.10406360      -0.51451799
C       -0.03261950       0.83465926      -0.03389871
C       -1.20957184      -0.39288078       0.70505006
C       -1.26718570       0.31766114      -0.64719078
H        1.02283811      -0.90994005      -0.89921235
H        1.53719452       0.70539377      -1.36752753
H       -0.40766188       0.32617588       1.33397850
H       -2.10124826      -0.24252964       1.30369306
H       -0.88890677      -1.42916900       0.66255712
H       -1.18221041      -0.36204913      -1.49554307
H       -2.08543156       1.02344479      -0.74388001
13
Frame=6 idx=002456 GeodesicLength=0.33456748022032134 rxn_smarts="[N:1]#[C:2][C:3]([C:4]1([H:9])[C:5]([H:10])([H:11])[C:6]1([H:12])[H:13])([H:7])[H:8]>>[N:1]#[C:2][C:3]([C:4][C:6]([C:5]([H:9])([H:10])[H:11])([H:12])[H:13])([H:7])[H:8]"
N        3.13792724      -0.02746810       1.22904777
C        2.29609064       0.04649100       0.45396302
C        1.20346737       0.10225812      -0.51518646
C       -0.02986970       0.82302915      -0.02851036
C       -1.21474443      -0.39399075       0.70659352
C       -1.26692111       0.31580705      -0.64607367
H        1.02749377      -0.91026361      -0.90351633
H        1.53612050       0.70838698      -1.36704926
H       -0.42496289       0.35610038       1.34804899
H       -2.11776747      -0.25873353       1.29158694
H       -0.88441123      -1.42757921       0.66810315
H       -1.18368145      -0.36318683      -1.49512095
H       -2.07874123       1.02914933      -0.74188636
13
Frame=7 idx=002456 GeodesicLength=0.39031415274611453 rxn_smarts="[N:1]#[C:2][C:3]([C:4]1([H:9])[C:5]([H:10])([H:11])[C:6]1([H:12])[H:13])([H:7])[H:8]>>[N:1]#[C:2][C:3]([C:4][C:6]([C:5]([H:9])([H:10])[H:11])([H:12])[H:13])([H:7])[H:8]"
N        3.14903091      -0.03094630       1.22034873
C        2.30391418       0.04349903       0.44894091
C        1.20739538       0.10044760      -0.51580122
C       -0.02707085       0.81100729      -0.02275312
C       -1.21998554      -0.39526605       0.70819980
C       -1.26655502       0.31386160      -0.64481540
H        1.03220923      -0.91047677      -0.90796471
H        1.53493679       0.71165986      -1.36627330
H       -0.44305157       0.38693167       1.36114786
H       -2.13378800      -0.27505885       1.27945693
H       -0.88014771      -1.42605805       0.67377701
H       -1.18508722      -0.36434607      -1.49456072
H       -2.07180057       1.03474504      -0.73970277
13
Frame=8 idx=002456 GeodesicLength=0.4461170933367969 rxn_smarts="[N:1]#[C:2][C:3]([C:4]1([H:9])[C:5]([H:10])([H:11])[C:6]1([H:12])[H:13])([H:7])[H:8]>>[N:1]#[C:2][C:3]([C:4][C:6]([C:5]([H:9])([H:10])[H:11])([H:12])[H:13])([H:7])[H:8]"
N        3.16039290      -0.03458133       1.21144827
C        2.31187280       0.04039985       0.44386986
C        1.21135631       0.09861510      -0.51633595
C       -0.02425361       0.79858683      -0.01655592
C       -1.22533439      -0.39673749       0.70990046
C       -1.26609904       0.31185586      -0.64344165
H        1.03702914      -0.91063774      -0.91254650
H        1.53359185       0.71521477      -1.36522115
H       -0.46196211       0.41864998       1.37328927
H       -2.14939173      -0.29147445       1.26733555
H       -0.87615499      -1.42470168       0.67958174
H       -1.18641454      -0.36551133      -1.49394558
H       -2.06463259       1.04032162      -0.73737840
13
Frame=9 idx=002456 GeodesicLength=0.5019294541483225 rxn_smarts="[N:1]#[C:2][C:3]([C:4]1([H:9])[C:5]([H:10])([H:11])[C:6]1([H:12])[H:13])([H:7])[H:8]>>[N:1]#[C:2][C:3]([C:4][C:6]([C:5]([H:9])([H:10])[H:11])([H:12])[H:13])([H:7])[H:8]"
N        3.17190945      -0.03837818       1.20239752
C        2.31999194       0.03723012       0.43868671
C        1.21534596       0.09677572      -0.51678938
C       -0.02140554       0.78573748      -0.00990263
C       -1.23079151      -0.39841667       0.71169335
C       -1.26553385       0.30977572      -0.64192724
H        1.04194545      -0.91071812      -0.91725381
H        1.53205879       0.71906772      -1.36387410
H       -0.48161546       0.45120496       1.38435045
H       -2.16455600      -0.30792116       1.25525915
H       -0.87249438      -1.42352816       0.68549098
H       -1.18765331      -0.36668140      -1.49324153
H       -2.05720152       1.04585196      -0.73488946
13
Frame=10 idx=002456 GeodesicLength=0.5577870606125982 rxn_smarts="[N:1]#[C:2][C:3]([C:4]1([H:9])[C:5]([H:10])([H:11])[C:6]1([H:12])[H:13])([H:7])[H:8]>>[N:1]#[C:2][C:3]([C:4][C:6]([C:5]([H:9])([H:10])[H:11])([H:12])[H:13])([H:7])[H:8]"
N        3.18365611      -0.04232702       1.19313932
C        2.32830391       0.03401303       0.43338137
C        1.21936453       0.09493644      -0.51713472
C       -0.01852659       0.77242819      -0.00274432
C       -1.23639038      -0.40031770       0.71358978
C       -1.26484741       0.30761659      -0.64026166
H        1.04696579      -0.91070827      -0.92207247
H        1.53031188       0.72323731      -1.36219949
H       -0.50199612       0.48457834       1.39426103
H       -2.17934668      -0.32437237       1.24322270
H       -0.86922742      -1.42257093       0.69150850
H       -1.18879130      -0.36785957      -1.49244548
H       -2.04947633       1.05134598      -0.73224455
13
Frame=11 idx=002456 GeodesicLength=0.6136299947141568 rxn_smarts="[N:1]#[C:2][C:3]([C:4]1([H:9])[C:5]([H:10])([H:11])[C:6]1([H:12])[H:13])([H:7])[H:8]>>[N:1]#[C:2][C:3]([C:4][C:6]([C:5]([H:9])([H:10])[H:11])([H:12])[H:13])([H:7])[H:8]"
N        3.19563991      -0.04632508       1.18367430
C        2.33684091       0.03077395       0.42792635
C        1.22340012       0.09308031      -0.51733882
C       -0.01561834       0.75860851       0.00495892
C       -1.24214757      -0.40245523       0.71556290
C       -1.26403168       0.30538875      -0.63842553
H        1.05208885      -0.91061607      -0.92694250
H        1.52829929       0.72768319      -1.36016477
H       -0.52300538       0.51866599       1.40290568
H       -2.19376385      -0.34075438       1.23124544
H       -0.86643809      -1.42185959       0.69755249
H       -1.18982798      -0.36900483      -1.49153653
H       -2.04143621       1.05681450      -0.72941792
13
Frame=12 idx=002456 GeodesicLength=0.6695293527814963 rxn_smarts="[N:1]#[C:2][C:3]([C:4]1([H:9])[C:5]([H:10])([H:11])[C:6]1([H:12])[H:13])([H:7])[H:8]>>[N:1]#[C:2][C:3]([C:4][C:6]([C:5]([H:9])([H:10])[H:11])([H:12])[H:13])([H:7])[H:8]"
N        3.20793406      -0.05035724       1.17394287
C        2.34562553       0.02754479       0.42231655
C        1.22745205       0.09122054      -0.51737900
C       -0.01268348       0.74425598       0.01325226
C       -1.24810843      -0.40484850       0.71763832
C       -1.26307111       0.30308847      -0.63641568
H        1.05732434      -0.91043987      -0.93186164
H        1.52600073       0.73243838      -1.35774925
H       -0.54458982       0.55344039       1.41024352
H       -2.20789555      -0.35703640       1.21933464
H       -0.86420766      -1.42145554       0.70364195
H       -1.19074064      -0.37013012      -1.49053303
H       -2.03304001       1.06227913      -0.72643151
13
Frame=13 idx=002456 GeodesicLength=0.7254446985592345 rxn_smarts="[N:1]#[C:2][C:3]([C:4]1([H:9])[C:5]([H:10])([H:11])[C:6]1([H:12])[H:13])([H:7])[H:8]>>[N:1]#[C:2][C:3]([C:4][C:6]([C:5]([H:9])([H:10])[H:11])([H:12])[H:13])([H:7])[H:8]"
N        3.22048769      -0.05438005       1.16399193
C        2.35468030       0.02435878       0.41651801
C        1.23151037       0.08936081      -0.51724058
C       -0.00972503       0.72933290       0.02215141
C       -1.25428245      -0.40750783       0.71980231
C       -1.26196237       0.30071130      -0.63421664
H        1.06266935      -0.91016502      -0.93681001
H        1.52337882       0.73749803      -1.35492661
H       -0.56659831       0.58881602       1.41616822
H       -2.22174604      -0.37314429       1.20752311
H       -0.86260129      -1.42138710       0.70972470
H       -1.19153557      -0.37122110      -1.48941845
H       -2.02427545       1.06772755      -0.72326738
13
Frame=14 idx=002456 GeodesicLength=0.7813978479222614 rxn_smarts="[N:1]#[C:2][C:3]([C:4]1([H:9])[C:5]([H:10])([H:11])[C:6]1([H:12])[H:13])([H:7])[H:8]>>[N:1]#[C:2][C:3]([C:4][C:6]([C:5]([H:9])([H:10])[H:11])([H:12])[H:13])([H:7])[H:8]"
N        3.23341601      -0.05832594       1.15371295
C        2.36401257       0.02124320       0.41054585
C        1.23556235       0.08749732      -0.51687436
C       -0.00675501       0.71379444       0.03170693
C       -1.26071787      -0.41044894       0.72205339
C       -1.26069217       0.29826063      -0.63182033
H        1.06813180      -0.90979539      -0.94174341
H        1.52039224       0.74285973      -1.35164366
H       -0.58894915       0.62473437       1.42062405
H       -2.23540514      -0.38903565       1.19578284
H       -0.86170147      -1.42170219       0.71578593
H       -1.19219261      -0.37226779      -1.48819284
H       -2.01510155       1.07318622      -0.71993735
13
Frame=15 idx=002456 GeodesicLength=0.8373739966550814 rxn_smarts="[N:1]#[C:2][C:3]([C:4]1([H:9])[C:5]([H:10])([H:11])[C:6]1([H:12])[H:13])([H:7])[H:8]>>[N:1]#[C:2][C:3]([C:4][C:6]([C:5]([H:9])([H:10])[H:11])([H:12])[H:13])([H:7])[H:8]"
N        3.24659301      -0.06214921       1.14322082
C        2.37363065       0.01821679       0.40435638
C        1.23959846       0.08563979      -0.51629038
C       -0.00378049       0.69761384       0.04190678
C       -1.26741536      -0.41368027       0.72439166
C       -1.25926279       0.29572807      -0.62921653
H        1.07370961      -0.90931268      -0.94668806
H        1.51701844       0.74853825      -1.34789271
H       -0.61141765       0.66111562       1.42353343
H       -2.24887621      -0.40464166       1.18417046
H       -0.86156248      -1.42244284       0.72178717
H       -1.19272534      -0.37327242      -1.48685311
H       -2.00550986       1.07864671      -0.71642590
13
Frame=16 idx=002456 GeodesicLength=0.893389047255067 rxn_smarts="[N:1]#[C:2][C:3]([C:4]1([H:9])[C:5]([H:10])([H:11])[C:6]1([H:12])[H:13])([H:7])[H:8]>>[N:1]#[C:2][C:3]([C:4][C:6]([C:5]([H:9])([H:10])[H:11])([H:12])[H:13])([H:7])[H:8]"
N        3.26010074      -0.06580082       1.13243082
C        2.38352795       0.01531223       0.39796926
C        1.24360077       0.08379360      -0.51544103
C       -0.00081287       0.68074331       0.05278000
C       -1.27441473      -0.41721156       0.72680676
C       -1.25766786       0.29310434      -0.62639666
H        1.07939805      -0.90869773      -0.95160994
H        1.51322136       0.75453726      -1.34360434
H       -0.63385692       0.69790387       1.42483679
H       -2.26223865      -0.41991695       1.17265299
H       -0.86225948      -1.42363904       0.72770890
H       -1.19313213      -0.37423428      -1.48539070
H       -1.99546623       1.08410576      -0.71274285
