10
Frame=0 idx=006533 GeodesicLength=0.0 rxn_smarts="[O:1]=[c:2]1[n:3]([H:8])[n:4][c:5]([H:9])[c:6]([H:10])[n:7]1>>[O:1]=[C:2]1[N+:4]([N-:3][H:8])=[C:5]([H:9])[C:6]([H:10])=[N:7]1"
O        2.22424867      -1.78370341       0.37124166
C        1.09148816      -1.63119083       0.16027899
N        0.91805365       1.67136425      -0.34819836
N        0.17732551       1.21394028       0.52153779
C       -1.01201325       0.61013335       0.02129138
C       -1.11839241      -0.69154524      -0.20608524
N       -0.08529420      -1.60916045      -0.07939155
H        1.73242354       2.07103853       0.13758441
H       -1.86528100       1.26965230      -0.06926774
H       -2.06255866      -1.12052878      -0.50899135
10
Frame=1 idx=006533 GeodesicLength=0.14276876900244564 rxn_smarts="[O:1]=[c:2]1[n:3]([H:8])[n:4][c:5]([H:9])[c:6]([H:10])[n:7]1>>[O:1]=[C:2]1[N+:4]([N-:3][H:8])=[C:5]([H:9])[C:6]([H:10])=[N:7]1"
O        2.22528960      -1.71160989       0.37654116
C        1.10547564      -1.52935346       0.11591744
N        0.94130995       1.60539437      -0.33772363
N        0.16180195       1.19508099       0.52499569
C       -1.02978443       0.60965799       0.02818173
C       -1.13732817      -0.70106886      -0.17697870
N       -0.08704885      -1.59671576      -0.08257647
H        1.76291634       1.98234610       0.15251226
H       -1.86872062       1.27992678      -0.10236661
H       -2.07391141      -1.13365826      -0.49850287
10
Frame=2 idx=006533 GeodesicLength=0.28596244463388826 rxn_smarts="[O:1]=[c:2]1[n:3]([H:8])[n:4][c:5]([H:9])[c:6]([H:10])[n:7]1>>[O:1]=[C:2]1[N+:4]([N-:3][H:8])=[C:5]([H:9])[C:6]([H:10])=[N:7]1"
O        2.22200415      -1.64491634       0.37899681
C        1.11305090      -1.43783086       0.08339290
N        0.96121658       1.54694563      -0.32878530
N        0.14977780       1.17672722       0.52604509
C       -1.04426478       0.60914350       0.03425859
C       -1.15107643      -0.70942213      -0.15602232
N       -0.08692523      -1.58459834      -0.08753633
H        1.78904718       1.90250587       0.16544707
H       -1.87046239       1.28757930      -0.12767740
H       -2.08236779      -1.14613384      -0.48811911
10
Frame=3 idx=006533 GeodesicLength=0.429279829209709 rxn_smarts="[O:1]=[c:2]1[n:3]([H:8])[n:4][c:5]([H:9])[c:6]([H:10])[n:7]1>>[O:1]=[C:2]1[N+:4]([N-:3][H:8])=[C:5]([H:9])[C:6]([H:10])=[N:7]1"
O        2.21768679      -1.58309573       0.37710285
C        1.11563055      -1.35534844       0.06279721
N        0.97894490       1.49416170      -0.32084188
N        0.14014201       1.15879705       0.52542800
C       -1.05627895       0.60880851       0.03917223
C       -1.16107315      -0.71670012      -0.14222708
N       -0.08605896      -1.57315589      -0.09374566
H        1.81150264       1.83068300       0.17729523
H       -1.87103639       1.29394732      -0.14777303
H       -2.08945943      -1.15809742      -0.47720788
10
Frame=4 idx=006533 GeodesicLength=0.5725086850306083 rxn_smarts="[O:1]=[c:2]1[n:3]([H:8])[n:4][c:5]([H:9])[c:6]([H:10])[n:7]1>>[O:1]=[C:2]1[N+:4]([N-:3][H:8])=[C:5]([H:9])[C:6]([H:10])=[N:7]1"
O        2.21271490      -1.52578518       0.37381425
C        1.11480817      -1.28046476       0.05009654
N        0.99473077       1.44604337      -0.31415414
N        0.13245525       1.14126785       0.52362310
C       -1.06637211       0.60859786       0.04375038
C       -1.16851542      -0.72328984      -0.13283811
N       -0.08473249      -1.56241018      -0.10120522
H        1.83105191       1.76578836       0.18726358
H       -1.87091830       1.29952211      -0.16290947
H       -2.09522267      -1.16926959      -0.46744091
10
Frame=5 idx=006533 GeodesicLength=0.7156325814987585 rxn_smarts="[O:1]=[c:2]1[n:3]([H:8])[n:4][c:5]([H:9])[c:6]([H:10])[n:7]1>>[O:1]=[C:2]1[N+:4]([N-:3][H:8])=[C:5]([H:9])[C:6]([H:10])=[N:7]1"
O        2.20713313      -1.47261856       0.37085786
C        1.11169673      -1.21204103       0.04275648
N        1.00893252       1.40194673      -0.30875933
N        0.12629778       1.12416063       0.52079033
C       -1.07483338       0.60851754       0.04786855
C       -1.17396564      -0.72934541      -0.12700548
N       -0.08308295      -1.55229746      -0.10978117
H        1.84835244       1.70683810       0.19527934
H       -1.87062381       1.30459005      -0.17313542
H       -2.09990682      -1.17975059      -0.45887117
10
Frame=6 idx=006533 GeodesicLength=0.8588091586670398 rxn_smarts="[O:1]=[c:2]1[n:3]([H:8])[n:4][c:5]([H:9])[c:6]([H:10])[n:7]1>>[O:1]=[C:2]1[N+:4]([N-:3][H:8])=[C:5]([H:9])[C:6]([H:10])=[N:7]1"
O        2.20108203      -1.42299738       0.36841353
C        1.10710917      -1.14919151       0.03837165
N        1.02181248       1.36133843      -0.30436939
N        0.12131583       1.10739963       0.51729208
C       -1.08193743       0.60855526       0.05156169
C       -1.17781940      -0.73490305      -0.12425095
N       -0.08153243      -1.54309438      -0.11764730
H        1.86381950       1.65308290       0.20169996
H       -1.87021790       1.30942434      -0.17943584
H       -2.10363187      -1.18961424      -0.45163544
10
Frame=7 idx=006533 GeodesicLength=1.001940595971058 rxn_smarts="[O:1]=[c:2]1[n:3]([H:8])[n:4][c:5]([H:9])[c:6]([H:10])[n:7]1>>[O:1]=[C:2]1[N+:4]([N-:3][H:8])=[C:5]([H:9])[C:6]([H:10])=[N:7]1"
O        2.19446981      -1.37660799       0.36728253
C        1.10147787      -1.09115239       0.03609932
N        1.03362528       1.32380784      -0.30090673
N        0.11725104       1.09102906       0.51320745
C       -1.08785369       0.60870696       0.05475222
C       -1.18036705      -0.74005810      -0.12400000
N       -0.07989640      -1.53456918      -0.12580250
H        1.87785825       1.60380194       0.20666806
H       -1.86986979       1.31411841      -0.18226511
H       -2.10669532      -1.19907655      -0.44503524
10
Frame=8 idx=006533 GeodesicLength=1.1449419434021908 rxn_smarts="[O:1]=[c:2]1[n:3]([H:8])[n:4][c:5]([H:9])[c:6]([H:10])[n:7]1>>[O:1]=[C:2]1[N+:4]([N-:3][H:8])=[C:5]([H:9])[C:6]([H:10])=[N:7]1"
O        2.18727009      -1.33317034       0.36795637
C        1.09510037      -1.03727711       0.03544361
N        1.04461843       1.28900784      -0.29822878
N        0.11387934       1.07508537       0.50856827
C       -1.09271577       0.60897854       0.05725820
C       -1.18184004      -0.74484157      -0.12601877
N       -0.07800479      -1.52653182      -0.13524645
H        1.89077885       1.55838689       0.21046999
H       -1.86967607       1.31873972      -0.18213539
H       -2.10941041      -1.20837753      -0.43806705
10
Frame=9 idx=006533 GeodesicLength=1.2880433447644537 rxn_smarts="[O:1]=[c:2]1[n:3]([H:8])[n:4][c:5]([H:9])[c:6]([H:10])[n:7]1>>[O:1]=[C:2]1[N+:4]([N-:3][H:8])=[C:5]([H:9])[C:6]([H:10])=[N:7]1"
O        2.17933252      -1.29241939       0.36976780
C        1.08844883      -0.98692052       0.03425769
N        1.05537731       1.25714264      -0.29490359
N        0.11069610       1.05926294       0.50363784
C       -1.09657090       0.60946953       0.05760389
C       -1.18183116      -0.74889108      -0.13307307
N       -0.07599733      -1.51878666      -0.14651766
H        1.90269754       1.51634573       0.21573500
H       -1.86909782       1.32359997      -0.18196447
H       -2.11305509      -1.21880316      -0.42454342
10
Frame=10 idx=006533 GeodesicLength=1.4310025352478692 rxn_smarts="[O:1]=[c:2]1[n:3]([H:8])[n:4][c:5]([H:9])[c:6]([H:10])[n:7]1>>[O:1]=[C:2]1[N+:4]([N-:3][H:8])=[C:5]([H:9])[C:6]([H:10])=[N:7]1"
O        2.17083365      -1.25413579       0.37339821
C        1.08134015      -0.93976406       0.03413746
N        1.06553580       1.22739590      -0.29223241
N        0.10790252       1.04392394       0.49825118
C       -1.09968008       0.61008549       0.05736025
C       -1.18110872      -0.75258083      -0.14209518
N       -0.07375468      -1.51135605      -0.15910807
H        1.91385971       1.47716378       0.22003544
H       -1.86877211       1.32845787      -0.17943629
H       -2.11615626      -1.22919023      -0.41031060
10
Frame=11 idx=006533 GeodesicLength=1.573955535961347 rxn_smarts="[O:1]=[c:2]1[n:3]([H:8])[n:4][c:5]([H:9])[c:6]([H:10])[n:7]1>>[O:1]=[C:2]1[N+:4]([N-:3][H:8])=[C:5]([H:9])[C:6]([H:10])=[N:7]1"
O        2.16181729      -1.21808384       0.37842049
C        1.07394754      -0.89542329       0.03447183
N        1.07519688       1.19960998      -0.28990468
N        0.10532661       1.02898953       0.49254705
C       -1.10216839       0.61082751       0.05638711
C       -1.17968366      -0.75582457      -0.15356141
N       -0.07146147      -1.50427625      -0.17244698
H        1.92433570       1.44046948       0.22387758
H       -1.86859297       1.33336366      -0.17523757
H       -2.11871753      -1.23965221      -0.39455344
10
Frame=12 idx=006533 GeodesicLength=1.7168896346181441 rxn_smarts="[O:1]=[c:2]1[n:3]([H:8])[n:4][c:5]([H:9])[c:6]([H:10])[n:7]1>>[O:1]=[C:2]1[N+:4]([N-:3][H:8])=[C:5]([H:9])[C:6]([H:10])=[N:7]1"
O        2.15215508      -1.18417932       0.38468866
C        1.06635232      -0.85353793       0.03472566
N        1.08460964       1.17376883      -0.28737043
N        0.10274210       1.01436311       0.48656803
C       -1.10409273       0.61177316       0.05405791
C       -1.17755440      -0.75846620      -0.16845449
N       -0.06903061      -1.49733937      -0.18753584
H        1.93418984       1.40589717       0.22830112
H       -1.86841718       1.33842832      -0.17042382
H       -2.12095406      -1.25070777      -0.37455680
10
Frame=13 idx=006533 GeodesicLength=1.8598229450449673 rxn_smarts="[O:1]=[c:2]1[n:3]([H:8])[n:4][c:5]([H:9])[c:6]([H:10])[n:7]1>>[O:1]=[C:2]1[N+:4]([N-:3][H:8])=[C:5]([H:9])[C:6]([H:10])=[N:7]1"
O        2.14198967      -1.15217471       0.39208449
C        1.05850292      -0.81392530       0.03535667
N        1.09350952       1.14940697      -0.28525166
N        0.10022349       1.00017389       0.48031480
C       -1.10561613       0.61276419       0.05127534
C       -1.17509169      -0.76078681      -0.18491628
N       -0.06667808      -1.49069112      -0.20290492
H        1.94347205       1.37317751       0.23208763
H       -1.86846912       1.34337911      -0.16410321
H       -2.12184263      -1.26132373      -0.35394286
10
Frame=14 idx=006533 GeodesicLength=2.002746788342181 rxn_smarts="[O:1]=[c:2]1[n:3]([H:8])[n:4][c:5]([H:9])[c:6]([H:10])[n:7]1>>[O:1]=[C:2]1[N+:4]([N-:3][H:8])=[C:5]([H:9])[C:6]([H:10])=[N:7]1"
O        2.13098909      -1.12215831       0.40053909
C        1.05044166      -0.77628884       0.03558436
N        1.10228298       1.12669841      -0.28263181
N        0.09745272       0.98623108       0.47377573
C       -1.10673941       0.61397050       0.04677347
C       -1.17217465      -0.76247689      -0.20497207
N       -0.06423938      -1.48395830      -0.22059858
H        1.95218008       1.34196103       0.23702695
H       -1.86858089       1.34843435      -0.15773347
H       -2.12161220      -1.27241303      -0.32776368
10
Frame=15 idx=006533 GeodesicLength=2.1456946363939426 rxn_smarts="[O:1]=[c:2]1[n:3]([H:8])[n:4][c:5]([H:9])[c:6]([H:10])[n:7]1>>[O:1]=[C:2]1[N+:4]([N-:3][H:8])=[C:5]([H:9])[C:6]([H:10])=[N:7]1"
O        2.11941565      -1.09381101       0.40997747
C        1.04212356      -0.74050897       0.03616504
N        1.11055963       1.10511770      -0.28049474
N        0.09468758       0.97283479       0.46698158
C       -1.10758313       0.61524263       0.04200126
C       -1.16928675      -0.76417419      -0.22425308
N       -0.06188867      -1.47729294      -0.23900236
H        1.96042368       1.31211322       0.24118367
H       -1.86893783       1.35318604      -0.15031108
H       -2.11951372      -1.28270726      -0.30224775
10
Frame=16 idx=006533 GeodesicLength=2.288647241245934 rxn_smarts="[O:1]=[c:2]1[n:3]([H:8])[n:4][c:5]([H:9])[c:6]([H:10])[n:7]1>>[O:1]=[C:2]1[N+:4]([N-:3][H:8])=[C:5]([H:9])[C:6]([H:10])=[N:7]1"
O        2.10749583      -1.06686735       0.42017651
C        1.03361051      -0.70641361       0.03728927
N        1.11824564       1.08444363      -0.27915432
N        0.09206239       0.96012077       0.46004268
C       -1.10820277       0.61656688       0.03767202
C       -1.16657775      -0.76618491      -0.24064156
N       -0.05963734      -1.47076801      -0.25736527
H        1.96831523       1.28353843       0.24387484
H       -1.86946633       1.35752684      -0.14180774
H       -2.11584540      -1.29196267      -0.28008643
