14
Frame=0 idx=004601 GeodesicLength=0.0 rxn_smarts="[C:1]([C@@:2]1([H:9])[C:3]([H:10])([H:11])[N:4]1[C:5]([H:12])([H:13])[H:14])([H:6])([H:7])[H:8]>>[C:1]([C-:2]1[C:3]([H:10])([H:11])[N+:4]1([C:5]([H:12])([H:13])[H:14])[H:9])([H:6])([H:7])[H:8]"
C       -1.97198753       0.49151645      -0.29318974
C       -0.70701730       0.52745443       0.52557501
C       -0.09519922      -0.82467785       0.61330738
N        0.61478383      -0.23372680      -0.52418076
C        2.00654137       0.06555999      -0.15565163
H       -2.76429575       0.28621685       0.43650037
H       -2.20061965       1.45118864      -0.75634000
H       -2.01087151      -0.30215609      -1.04835153
H        0.21666678       0.88028466      -0.37394298
H       -0.70580169      -1.67708708       0.31854946
H        0.53257731      -1.04319264       1.47552382
H        2.07946200       0.59474063       0.80095943
H        2.53985536      -0.88283897      -0.07844633
H        2.46590599       0.66671780      -0.94031247
14
Frame=1 idx=004601 GeodesicLength=0.07161817102584873 rxn_smarts="[C:1]([C@@:2]1([H:9])[C:3]([H:10])([H:11])[N:4]1[C:5]([H:12])([H:13])[H:14])([H:6])([H:7])[H:8]>>[C:1]([C-:2]1[C:3]([H:10])([H:11])[N+:4]1([C:5]([H:12])([H:13])[H:14])[H:9])([H:6])([H:7])[H:8]"
C       -1.97211441       0.49146660      -0.28961136
C       -0.70027521       0.51557399       0.51769482
C       -0.09649944      -0.83773447       0.61229359
N        0.61195235      -0.22422376      -0.51179360
C        2.00583568       0.06834761      -0.15317673
H       -2.76393238       0.29053574       0.44139175
H       -2.19716694       1.45338433      -0.75017029
H       -2.01672223      -0.29872843      -1.04847046
H        0.21458274       0.90262548      -0.38456142
H       -0.70085725      -1.69012322       0.30476577
H        0.52577016      -1.05855698       1.47774993
H        2.08466497       0.61951335       0.79044179
H        2.53704001      -0.87883405      -0.05306990
H        2.46772194       0.64675383      -0.95348388
14
Frame=2 idx=004601 GeodesicLength=0.14319120224856896 rxn_smarts="[C:1]([C@@:2]1([H:9])[C:3]([H:10])([H:11])[N:4]1[C:5]([H:12])([H:13])[H:14])([H:6])([H:7])[H:8]>>[C:1]([C-:2]1[C:3]([H:10])([H:11])[N+:4]1([C:5]([H:12])([H:13])[H:14])[H:9])([H:6])([H:7])[H:8]"
C       -1.97213327       0.49155000      -0.28579848
C       -0.69337365       0.50374095       0.50960595
C       -0.09786085      -0.85094876       0.61086858
N        0.60936750      -0.21510564      -0.49933358
C        2.00514341       0.07125463      -0.15051303
H       -2.76328004       0.29504413       0.44669696
H       -2.19362406       1.45570363      -0.74369395
H       -2.02269347      -0.29502487      -1.04839569
H        0.21209738       0.92415349      -0.39548135
H       -0.69577697      -1.70309786       0.29029366
H        0.51858491      -1.07427669       1.47966770
H        2.08974405       0.64491861       0.77906179
H        2.53453571      -0.87385976      -0.02664506
H        2.46926934       0.62594814      -0.96633350
14
Frame=3 idx=004601 GeodesicLength=0.21479764583341132 rxn_smarts="[C:1]([C@@:2]1([H:9])[C:3]([H:10])([H:11])[N:4]1[C:5]([H:12])([H:13])[H:14])([H:6])([H:7])[H:8]>>[C:1]([C-:2]1[C:3]([H:10])([H:11])[N+:4]1([C:5]([H:12])([H:13])[H:14])[H:9])([H:6])([H:7])[H:8]"
C       -1.97205324       0.49178365      -0.28174954
C       -0.68635518       0.49195577       0.50136884
C       -0.09925487      -0.86433365       0.60901574
N        0.60702132      -0.20636958      -0.48684368
C        2.00446129       0.07427979      -0.14766434
H       -2.76234587       0.29972026       0.45241186
H       -2.19001345       1.45821033      -0.73689547
H       -2.02878280      -0.29102690      -1.04816604
H        0.20920370       0.94491035      -0.40665605
H       -0.69050407      -1.71605242       0.27510397
H        0.51104936      -1.09041062       1.48128278
H        2.09468806       0.67103196       0.76671789
H        2.53231528      -0.86788485       0.00094451
H        2.47057048       0.60418592      -0.97887047
14
Frame=4 idx=004601 GeodesicLength=0.2863322648302039 rxn_smarts="[C:1]([C@@:2]1([H:9])[C:3]([H:10])([H:11])[N:4]1[C:5]([H:12])([H:13])[H:14])([H:6])([H:7])[H:8]>>[C:1]([C-:2]1[C:3]([H:10])([H:11])[N+:4]1([C:5]([H:12])([H:13])[H:14])[H:9])([H:6])([H:7])[H:8]"
C       -1.97187006       0.49212672      -0.27744860
C       -0.67926555       0.48019755       0.49300869
C       -0.10069631      -0.87780390       0.60668859
N        0.60490848      -0.19798416      -0.47432526
C        2.00380528       0.07740926      -0.14463481
H       -2.76116364       0.30450581       0.45849073
H       -2.18630234       1.46081315      -0.72973752
H       -2.03497257      -0.28673424      -1.04772619
H        0.20595627       0.96486424      -0.41798852
H       -0.68505740      -1.72886397       0.25920840
H        0.50312547      -1.10687193       1.48248987
H        2.09951137       0.69775981       0.75328586
H        2.53031558      -0.86080791       0.02965672
H        2.47170544       0.58138958      -0.99096796
14
Frame=5 idx=004601 GeodesicLength=0.35791103452041406 rxn_smarts="[C:1]([C@@:2]1([H:9])[C:3]([H:10])([H:11])[N:4]1[C:5]([H:12])([H:13])[H:14])([H:6])([H:7])[H:8]>>[C:1]([C-:2]1[C:3]([H:10])([H:11])[N+:4]1([C:5]([H:12])([H:13])[H:14])[H:9])([H:6])([H:7])[H:8]"
C       -1.97159865       0.49260541      -0.27292089
C       -0.67214269       0.46850327       0.48459619
C       -0.10215254      -0.89139919       0.60392519
N        0.60301453      -0.18995121      -0.46183062
C        2.00317666       0.08064161      -0.14144191
H       -2.75975245       0.30940668       0.46494366
H       -2.18252027       1.46360573      -0.72229370
H       -2.04126658      -0.28218467      -1.04714901
H        0.20235604       0.98412685      -0.42945816
H       -0.67938984      -1.74164149       0.24264489
H        0.49485852      -1.12373067       1.48338751
H        2.10424048       0.72508844       0.73876459
H        2.52850689      -0.85266200       0.05945843
H        2.47266989       0.55759123      -1.00262618
14
Frame=6 idx=004601 GeodesicLength=0.4294493377089558 rxn_smarts="[C:1]([C@@:2]1([H:9])[C:3]([H:10])([H:11])[N:4]1[C:5]([H:12])([H:13])[H:14])([H:6])([H:7])[H:8]>>[C:1]([C-:2]1[C:3]([H:10])([H:11])[N+:4]1([C:5]([H:12])([H:13])[H:14])[H:9])([H:6])([H:7])[H:8]"
C       -1.97123908       0.49318334      -0.26815938
C       -0.66502966       0.45685063       0.47611969
C       -0.10361004      -0.90503470       0.60068276
N        0.60133707      -0.18224696      -0.44934499
C        2.00257744       0.08395545      -0.13807610
H       -2.75812789       0.31453053       0.47174922
H       -2.17862228       1.46642951      -0.71467433
H       -2.04769591      -0.27746335      -1.04626674
H        0.19842595       1.00269052      -0.44100222
H       -0.67345569      -1.75425402       0.22541753
H        0.48624455      -1.14089262       1.48387776
H        2.10887936       0.75279120       0.72315852
H        2.52683439      -0.84343746       0.09017021
H        2.47348182       0.53289794      -1.01365194
14
Frame=7 idx=004601 GeodesicLength=0.5008881371509126 rxn_smarts="[C:1]([C@@:2]1([H:9])[C:3]([H:10])([H:11])[N:4]1[C:5]([H:12])([H:13])[H:14])([H:6])([H:7])[H:8]>>[C:1]([C-:2]1[C:3]([H:10])([H:11])[N+:4]1([C:5]([H:12])([H:13])[H:14])[H:9])([H:6])([H:7])[H:8]"
C       -1.97079575       0.49385156      -0.26312242
C       -0.65792993       0.44520039       0.46759401
C       -0.10506417      -0.91868911       0.59687896
N        0.59986600      -0.17485164      -0.43687975
C        2.00200691       0.08735101      -0.13452986
H       -2.75629321       0.31959973       0.47885528
H       -2.17469414       1.46936844      -0.70652867
H       -2.05417344      -0.27234777      -1.04521699
H        0.19417725       1.02051032      -0.45255678
H       -0.66727432      -1.76661640       0.20744897
H        0.47728952      -1.15838340       1.48380707
H        2.11338533       0.78107254       0.70605019
H        2.52524269      -0.83282682       0.12222382
H        2.47425725       0.50676115      -1.02402383
14
Frame=8 idx=004601 GeodesicLength=0.5723587367842045 rxn_smarts="[C:1]([C@@:2]1([H:9])[C:3]([H:10])([H:11])[N:4]1[C:5]([H:12])([H:13])[H:14])([H:6])([H:7])[H:8]>>[C:1]([C-:2]1[C:3]([H:10])([H:11])[N+:4]1([C:5]([H:12])([H:13])[H:14])[H:9])([H:6])([H:7])[H:8]"
C       -1.97027163       0.49462531      -0.25783136
C       -0.65086195       0.43358966       0.45907110
C       -0.10649833      -0.93241676       0.59255327
N        0.59858765      -0.16776046      -0.42448821
C        2.00146570       0.09084391      -0.13081477
H       -2.75425054       0.32472459       0.48632735
H       -2.17069869       1.47245431      -0.69804715
H       -2.06075780      -0.26697590      -1.04398178
H        0.18963046       1.03773656      -0.46413761
H       -0.66081882      -1.77885888       0.18876508
H        0.46801328      -1.17627888       1.48328242
H        2.11779873       0.80984917       0.68753172
H        2.52366024      -0.82089959       0.15547114
H        2.47500169       0.47936696      -1.03370120
14
Frame=9 idx=004601 GeodesicLength=0.643810895063341 rxn_smarts="[C:1]([C@@:2]1([H:9])[C:3]([H:10])([H:11])[N:4]1[C:5]([H:12])([H:13])[H:14])([H:6])([H:7])[H:8]>>[C:1]([C-:2]1[C:3]([H:10])([H:11])[N+:4]1([C:5]([H:12])([H:13])[H:14])[H:9])([H:6])([H:7])[H:8]"
C       -1.96966405       0.49549148      -0.25227082
C       -0.64384490       0.42200797       0.45054630
C       -0.10789839      -0.94618602       0.58766931
N        0.59749913      -0.16095992      -0.41216946
C        2.00094914       0.09442507      -0.12692473
H       -2.75200192       0.32988089       0.49415406
H       -2.16664224       1.47565659      -0.68918372
H       -2.06742707      -0.26132995      -1.04252783
H        0.18479462       1.05437786      -0.47571305
H       -0.65405885      -1.79091640       0.16934683
H        0.45842172      -1.19455967       1.48222206
H        2.12209066       0.83903872       0.66746164
H        2.52202719      -0.80752809       0.18993571
H        2.47575495       0.45060147      -1.04254630
14
Frame=10 idx=004601 GeodesicLength=0.7152520651987011 rxn_smarts="[C:1]([C@@:2]1([H:9])[C:3]([H:10])([H:11])[N:4]1[C:5]([H:12])([H:13])[H:14])([H:6])([H:7])[H:8]>>[C:1]([C-:2]1[C:3]([H:10])([H:11])[N+:4]1([C:5]([H:12])([H:13])[H:14])[H:9])([H:6])([H:7])[H:8]"
C       -1.96897870       0.49643896      -0.24643099
C       -0.63688177       0.41045002       0.44202257
C       -0.10925329      -0.95998959       0.58219970
N        0.59658826      -0.15443388      -0.39994186
C        2.00046019       0.09809822      -0.12285454
H       -2.74954655       0.33504799       0.50235066
H       -2.16253325       1.47896326      -0.67992444
H       -2.07420168      -0.25541526      -1.04083929
H        0.17968835       1.07047642      -0.48727255
H       -0.64699418      -1.80276617       0.14917642
H        0.44853535      -1.21323635       1.48057716
H        2.12628550       0.86857346       0.64572353
H        2.52025394      -0.79259788       0.22564114
H        2.47657784       0.42039079      -1.05042750
14
Frame=11 idx=004601 GeodesicLength=0.7866737589379672 rxn_smarts="[C:1]([C@@:2]1([H:9])[C:3]([H:10])([H:11])[N:4]1[C:5]([H:12])([H:13])[H:14])([H:6])([H:7])[H:8]>>[C:1]([C-:2]1[C:3]([H:10])([H:11])[N+:4]1([C:5]([H:12])([H:13])[H:14])[H:9])([H:6])([H:7])[H:8]"
C       -1.96821446       0.49745937      -0.24030240
C       -0.62997916       0.39891567       0.43349718
C       -0.11054704      -0.97381537       0.57612032
N        0.59584527      -0.14816917      -0.38781826
C        1.99999334       0.10186246      -0.11860009
H       -2.74687726       0.34021479       0.51092835
H       -2.15837747       1.48236066      -0.67025742
H       -2.08108232      -0.24923836      -1.03889324
H        0.17432022       1.08607134      -0.49880622
H       -0.63960627      -1.81437999       0.12824168
H        0.43837744      -1.23231161       1.47829485
H        2.13038442       0.89835103       0.62220679
H        2.51825130      -0.77599117       0.26258300
H        2.47751198       0.38867035      -1.05719452
14
Frame=12 idx=004601 GeodesicLength=0.8580751712549274 rxn_smarts="[C:1]([C@@:2]1([H:9])[C:3]([H:10])([H:11])[N:4]1[C:5]([H:12])([H:13])[H:14])([H:6])([H:7])[H:8]>>[C:1]([C-:2]1[C:3]([H:10])([H:11])[N+:4]1([C:5]([H:12])([H:13])[H:14])[H:9])([H:6])([H:7])[H:8]"
C       -1.96737117       0.49854455      -0.23387447
C       -0.62313882       0.38740450       0.42496484
C       -0.11176481      -0.98765532       0.56940652
N        0.59525954      -0.14215298      -0.37581389
C        1.99954481       0.10571943      -0.11415652
H       -2.74398502       0.34536617       0.51990353
H       -2.15418132       1.48583927      -0.66016658
H       -2.08807652      -0.24280422      -1.03666980
H        0.16869976       1.10120363      -0.51031021
H       -0.63188393      -1.82573384       0.10652748
H        0.42797580      -1.25179270       1.47532139
H        2.13439681       0.92826188       0.59679389
H        2.51591994      -0.75757434       0.30075710
H        2.47860494       0.35537398      -1.06268328
14
Frame=13 idx=004601 GeodesicLength=0.9294582274495358 rxn_smarts="[C:1]([C@@:2]1([H:9])[C:3]([H:10])([H:11])[N:4]1[C:5]([H:12])([H:13])[H:14])([H:6])([H:7])[H:8]>>[C:1]([C-:2]1[C:3]([H:10])([H:11])[N+:4]1([C:5]([H:12])([H:13])[H:14])[H:9])([H:6])([H:7])[H:8]"
C       -1.96644844       0.49968747      -0.22713438
C       -0.61636045       0.37591660       0.41641718
C       -0.11289076      -1.00150388       0.56203131
N        0.59482073      -0.13637348      -0.36394735
C        1.99910989       0.10967104      -0.10951881
H       -2.74085806       0.35048468       0.52929837
H       -2.14995339       1.48939382      -0.64962962
H       -2.09519181      -0.23611536      -1.03414981
H        0.16283374       1.11591582      -0.52178626
H       -0.62381549      -1.83680554       0.08401411
H        0.41736292      -1.27169017       1.47159922
H        2.13833412       0.95818753       0.56935890
H        2.51314747      -0.73720001       0.34016100
H        2.47990953       0.32043148      -1.06671386
14
Frame=14 idx=004601 GeodesicLength=1.0008294859802958 rxn_smarts="[C:1]([C@@:2]1([H:9])[C:3]([H:10])([H:11])[N:4]1[C:5]([H:12])([H:13])[H:14])([H:6])([H:7])[H:8]>>[C:1]([C-:2]1[C:3]([H:10])([H:11])[N+:4]1([C:5]([H:12])([H:13])[H:14])[H:9])([H:6])([H:7])[H:8]"
C       -1.96544590       0.50088295      -0.22006723
C       -0.60964091       0.36445264       0.40784174
C       -0.11390702      -1.01535866       0.55396461
N        0.59451851      -0.13082043      -0.35224227
C        1.99868288       0.11372012      -0.10468115
H       -2.73748046       0.35555246       0.53914164
H       -2.14570427       1.49302435      -0.63861896
H       -2.10243933      -0.22917233      -1.03131407
H        0.15672619       1.13025196      -0.53324211
H       -0.61538870      -1.84757666       0.06067744
H        0.40657817      -1.29201790       1.46706722
H        2.14220784       0.98799596       0.53976845
H        2.50980837      -0.71470283       0.38078920
H        2.48148462       0.28376838      -1.06908451
14
Frame=15 idx=004601 GeodesicLength=1.0721894950727124 rxn_smarts="[C:1]([C@@:2]1([H:9])[C:3]([H:10])([H:11])[N:4]1[C:5]([H:12])([H:13])[H:14])([H:6])([H:7])[H:8]>>[C:1]([C-:2]1[C:3]([H:10])([H:11])[N+:4]1([C:5]([H:12])([H:13])[H:14])[H:9])([H:6])([H:7])[H:8]"
C       -1.96436117       0.50212146      -0.21266019
C       -0.60297838       0.35301434       0.39922401
C       -0.11479746      -1.02920747       0.54518050
N        0.59434033      -0.12548164      -0.34071906
C        1.99825738       0.11786596      -0.09964074
H       -2.73383784       0.36054592       0.54945338
H       -2.14144143       1.49672036      -0.62710917
H       -2.10982385      -0.22197735      -1.02814043
H        0.15038276       1.14425524      -0.54467786
H       -0.60659573      -1.85801580       0.03650365
H        0.39566684      -1.31277546       1.46166036
H        2.14604483       1.01751440       0.50789804
H        2.50576355      -0.68991590       0.42259869
H        2.48338018       0.24533595      -1.06957118
14
Frame=16 idx=004601 GeodesicLength=1.1435461761238264 rxn_smarts="[C:1]([C@@:2]1([H:9])[C:3]([H:10])([H:11])[N:4]1[C:5]([H:12])([H:13])[H:14])([H:6])([H:7])[H:8]>>[C:1]([C-:2]1[C:3]([H:10])([H:11])[N+:4]1([C:5]([H:12])([H:13])[H:14])[H:9])([H:6])([H:7])[H:8]"
C       -1.96319240       0.50339668      -0.20489698
C       -0.59636794       0.34160324       0.39054502
C       -0.11554338      -1.04304369       0.53564761
N        0.59427403      -0.12034822      -0.32940678
C        1.99782582       0.12210810      -0.09439370
H       -2.72991082       0.36543953       0.56026295
H       -2.13717566       1.50048112      -0.61506394
H       -2.11735488      -0.21452738      -1.02460857
H        0.14380550       1.15797055      -0.55610043
H       -0.59742776      -1.86809820       0.01147056
H        0.38468280      -1.33396905       1.45530884
H        2.14987119       1.04655905       0.47360954
H        2.50085828      -0.66264738       0.46554872
H        2.48565522       0.20507565      -1.06792284
