14
Frame=0 idx=007354 GeodesicLength=0.0 rxn_smarts="[O:1]=[C:2]1[C:3]([H:8])([H:9])[N:4]2[C:5]([H:10])([H:11])[C:6]([H:12])([H:13])[C@@:7]12[H:14]>>[O:1]([C-:2]1[C:3]([H:8])([H:9])[N+:4]2=[C:5]([H:11])[C:6]([H:12])([H:13])[C@@:7]12[H:14])[H:10]"
O        0.68851468       1.56944041       0.52643677
C        1.09222795       0.68682921      -0.44335141
C        1.51902964      -0.62960276       0.13737482
N        0.04758482      -0.99049572      -0.04187720
C       -0.99138521      -0.56627227       0.69175453
C       -1.54114084       0.31975268      -0.40456835
C       -0.18464886       0.03281361      -1.08658349
H        2.11278261      -1.28351995      -0.49414377
H        1.87522579      -0.64322013       1.17123240
H        0.76005664       1.19445113       1.41930526
H       -1.11899290      -0.66412426       1.75984785
H       -1.75798498       1.34999486      -0.13450769
H       -2.37228129      -0.09976816      -0.97419957
H       -0.12898805      -0.27627870      -2.12672013
14
Frame=1 idx=007354 GeodesicLength=0.11622765848096948 rxn_smarts="[O:1]=[C:2]1[C:3]([H:8])([H:9])[N:4]2[C:5]([H:10])([H:11])[C:6]([H:12])([H:13])[C@@:7]12[H:14]>>[O:1]([C-:2]1[C:3]([H:8])([H:9])[N+:4]2=[C:5]([H:11])[C:6]([H:12])([H:13])[C@@:7]12[H:14])[H:10]"
O        0.70792326       1.57822358       0.51258578
C        1.09694883       0.68806947      -0.44933532
C        1.52046054      -0.63136213       0.13352598
N        0.04971612      -0.99110766      -0.03911136
C       -0.97858118      -0.54523226       0.70518677
C       -1.53725656       0.32276392      -0.40203306
C       -0.18182800       0.03303751      -1.08546113
H        2.11622506      -1.28373933      -0.49795318
H        1.87806115      -0.64597980       1.16689606
H        0.71158024       1.17432647       1.42371232
H       -1.12776664      -0.67738345       1.76612793
H       -1.75402484       1.35653051      -0.14518153
H       -2.37057439      -0.10436556      -0.96239510
H       -0.13088360      -0.27378126      -2.12656415
14
Frame=2 idx=007354 GeodesicLength=0.23196819855909018 rxn_smarts="[O:1]=[C:2]1[C:3]([H:8])([H:9])[N:4]2[C:5]([H:10])([H:11])[C:6]([H:12])([H:13])[C@@:7]12[H:14]>>[O:1]([C-:2]1[C:3]([H:8])([H:9])[N+:4]2=[C:5]([H:11])[C:6]([H:12])([H:13])[C@@:7]12[H:14])[H:10]"
O        0.72733256       1.58632302       0.49950853
C        1.10152229       0.68932990      -0.45509409
C        1.52171536      -0.63306272       0.13000802
N        0.05175644      -0.99171710      -0.03617596
C       -0.96585153      -0.52472375       0.71840388
C       -1.53343510       0.32557293      -0.39914019
C       -0.17910716       0.03332170      -1.08406633
H        2.11956306      -1.28387683      -0.50136735
H        1.88055659      -0.64864128       1.16293458
H        0.66562884       1.15650952       1.42619760
H       -1.13775281      -0.69167261       1.77041491
H       -1.75019228       1.36259471      -0.15515609
H       -2.36884970      -0.10883549      -0.95033374
H       -0.13288656      -0.27112201      -2.12613378
14
Frame=3 idx=007354 GeodesicLength=0.3480699312047138 rxn_smarts="[O:1]=[C:2]1[C:3]([H:8])([H:9])[N:4]2[C:5]([H:10])([H:11])[C:6]([H:12])([H:13])[C@@:7]12[H:14]>>[O:1]([C-:2]1[C:3]([H:8])([H:9])[N+:4]2=[C:5]([H:11])[C:6]([H:12])([H:13])[C@@:7]12[H:14])[H:10]"
O        0.74668249       1.59397227       0.48688057
C        1.10591157       0.69060479      -0.46065291
C        1.52279650      -0.63469014       0.12677976
N        0.05372258      -0.99231888      -0.03306067
C       -0.95321696      -0.50475002       0.73141103
C       -1.52968889       0.32816029      -0.39592089
C       -0.17649417       0.03363015      -1.08242034
H        2.12279315      -1.28392296      -0.50442990
H        1.88275606      -0.65119629       1.15927938
H        0.62207540       1.14046208       1.42744978
H       -1.14868604      -0.70654099       1.77266247
H       -1.74655581       1.36818010      -0.16448555
H       -2.36709901      -0.11321807      -0.93805687
H       -0.13499687      -0.26837235      -2.12543586
14
Frame=4 idx=007354 GeodesicLength=0.46468700644176936 rxn_smarts="[O:1]=[C:2]1[C:3]([H:8])([H:9])[N:4]2[C:5]([H:10])([H:11])[C:6]([H:12])([H:13])[C@@:7]12[H:14]>>[O:1]([C-:2]1[C:3]([H:8])([H:9])[N+:4]2=[C:5]([H:11])[C:6]([H:12])([H:13])[C@@:7]12[H:14])[H:10]"
O        0.76589426       1.60134680       0.47444915
C        1.11012136       0.69189463      -0.46604169
C        1.52374366      -0.63624224       0.12382251
N        0.05562641      -0.99292299      -0.02976582
C       -0.94073920      -0.48535298       0.74422198
C       -1.52605642       0.33051951      -0.39241796
C       -0.17399984       0.03394588      -1.08056490
H        2.12596575      -1.28387040      -0.50716485
H        1.88473653      -0.65365932       1.15591567
H        0.58085381       1.12576078       1.42798555
H       -1.16037533      -0.72162797       1.77293126
H       -1.74317691       1.37329010      -0.17321864
H       -2.36537467      -0.11752249      -0.92563412
H       -0.13721942      -0.26555931      -2.12451814
14
Frame=5 idx=007354 GeodesicLength=0.581287350313867 rxn_smarts="[O:1]=[C:2]1[C:3]([H:8])([H:9])[N:4]2[C:5]([H:10])([H:11])[C:6]([H:12])([H:13])[C@@:7]12[H:14]>>[O:1]([C-:2]1[C:3]([H:8])([H:9])[N+:4]2=[C:5]([H:11])[C:6]([H:12])([H:13])[C@@:7]12[H:14])[H:10]"
O        0.78487733       1.60857176       0.46209732
C        1.11415512       0.69318546      -0.47128377
C        1.52458440      -0.63772944       0.12110825
N        0.05748530      -0.99353208      -0.02632685
C       -0.92846518      -0.46654591       0.75682285
C       -1.52255106       0.33265158      -0.38867652
C       -0.17162215       0.03425984      -1.07853299
H        2.12912140      -1.28372213      -0.50960036
H        1.88654115      -0.65604723       1.15281260
H        0.54180743       1.11202436       1.42812823
H       -1.17261701      -0.73659140       1.77139515
H       -1.74007930       1.37791802      -0.18140156
H       -2.36369502      -0.12175293      -0.91313001
H       -0.13954239      -0.26268991      -2.12341234
14
Frame=6 idx=007354 GeodesicLength=0.6982004034600857 rxn_smarts="[O:1]=[C:2]1[C:3]([H:8])([H:9])[N:4]2[C:5]([H:10])([H:11])[C:6]([H:12])([H:13])[C@@:7]12[H:14]>>[O:1]([C-:2]1[C:3]([H:8])([H:9])[N+:4]2=[C:5]([H:11])[C:6]([H:12])([H:13])[C@@:7]12[H:14])[H:10]"
O        0.80358958       1.61578563       0.44955751
C        1.11799106       0.69447416      -0.47638271
C        1.52530734      -0.63913452       0.11863214
N        0.05929634      -0.99417693      -0.02277552
C       -0.91646247      -0.44843194       0.76917013
C       -1.51917310       0.33454937      -0.38474196
C       -0.16937093       0.03454620      -1.07636116
H        2.13225873      -1.28344657      -0.51173868
H        1.88816124      -0.65833932       1.14997261
H        0.50485019       1.09889360       1.42833974
H       -1.18516079      -0.75111051       1.76814983
H       -1.73725335       1.38207183      -0.18902443
H       -2.36206232      -0.12589146      -0.90063584
H       -0.14197152      -0.25978954      -2.12216166
14
Frame=7 idx=007354 GeodesicLength=0.8155726021753283 rxn_smarts="[O:1]=[C:2]1[C:3]([H:8])([H:9])[N:4]2[C:5]([H:10])([H:11])[C:6]([H:12])([H:13])[C@@:7]12[H:14]>>[O:1]([C-:2]1[C:3]([H:8])([H:9])[N+:4]2=[C:5]([H:11])[C:6]([H:12])([H:13])[C@@:7]12[H:14])[H:10]"
O        0.82199019       1.62311549       0.43659818
C        1.12161636       0.69574507      -0.48136240
C        1.52591450      -0.64044619       0.11638478
N        0.06107219      -0.99487476      -0.01915110
C       -0.90478032      -0.43106582       0.78123198
C       -1.51591454       0.33622426      -0.38064515
C       -0.16724735       0.03478442      -1.07408072
H        2.13540096      -1.28302805      -0.51357293
H        1.88959380      -0.66050136       1.14738783
H        0.46982291       1.08598954       1.42898068
H       -1.19781034      -0.76492919       1.76332239
H       -1.73467635       1.38577335      -0.19608285
H       -2.36047845      -0.12990309      -0.88821521
H       -0.14450355      -0.25688366      -2.12079550
14
Frame=8 idx=007354 GeodesicLength=0.933154025027154 rxn_smarts="[O:1]=[C:2]1[C:3]([H:8])([H:9])[N:4]2[C:5]([H:10])([H:11])[C:6]([H:12])([H:13])[C@@:7]12[H:14]>>[O:1]([C-:2]1[C:3]([H:8])([H:9])[N+:4]2=[C:5]([H:11])[C:6]([H:12])([H:13])[C@@:7]12[H:14])[H:10]"
O        0.84004476       1.63065919       0.42304879
C        1.12502137       0.69698216      -0.48624421
C        1.52640387      -0.64165988       0.11436166
N        0.06282128      -0.99564406      -0.01550450
C       -0.89346828      -0.41449689       0.79296234
C       -1.51276836       0.33769762      -0.37643081
C       -0.16525004       0.03496176      -1.07172633
H        2.13857039      -1.28245650      -0.51508927
H        1.89082096      -0.66250676       1.14505845
H        0.43657386       1.07301142       1.43031077
H       -1.21037283      -0.77786730       1.75711701
H       -1.73232132       1.38904487      -0.20257876
H       -2.35894624      -0.13374238      -0.87593805
H       -0.14712944      -0.25398325      -2.11934709
14
Frame=9 idx=007354 GeodesicLength=1.0495420099411679 rxn_smarts="[O:1]=[C:2]1[C:3]([H:8])([H:9])[N:4]2[C:5]([H:10])([H:11])[C:6]([H:12])([H:13])[C@@:7]12[H:14]>>[O:1]([C-:2]1[C:3]([H:8])([H:9])[N+:4]2=[C:5]([H:11])[C:6]([H:12])([H:13])[C@@:7]12[H:14])[H:10]"
O        0.85774673       1.63840845       0.40891679
C        1.12819715       0.69816360      -0.49101282
C        1.52675233      -0.64279836       0.11256296
N        0.06454220      -0.99652834      -0.01191572
C       -0.88261274      -0.39885423       0.80423299
C       -1.50973641       0.33897624      -0.37215202
C       -0.16337159       0.03508521      -1.06932918
H        2.14177570      -1.28173000      -0.51627157
H        1.89176564      -0.66439351       1.14299756
H        0.40495297       1.05998165       1.43233977
H       -1.22255819      -0.78982046       1.74989447
H       -1.73017554       1.39189505      -0.20849388
H       -2.35745926      -0.13734567      -0.86391195
H       -0.14981898      -0.25103965      -2.11785739
14
Frame=10 idx=007354 GeodesicLength=1.1662112892446366 rxn_smarts="[O:1]=[C:2]1[C:3]([H:8])([H:9])[N:4]2[C:5]([H:10])([H:11])[C:6]([H:12])([H:13])[C@@:7]12[H:14]>>[O:1]([C-:2]1[C:3]([H:8])([H:9])[N+:4]2=[C:5]([H:11])[C:6]([H:12])([H:13])[C@@:7]12[H:14])[H:10]"
O        0.87513570       1.64657261       0.39379223
C        1.13115373       0.69927518      -0.49576142
C        1.52698281      -0.64381826       0.11098749
N        0.06625790      -0.99751698      -0.00839265
C       -0.87219128      -0.38406875       0.81510137
C       -1.50678877       0.34012331      -0.36782488
C       -0.16161567       0.03512261      -1.06692651
H        2.14505081      -1.28083879      -0.51707853
H        1.89247519      -0.66601974       1.14120006
H        0.37475062       1.04634312       1.43553994
H       -1.23441005      -0.80078710       1.74169486
H       -1.72816434       1.39441644      -0.21384590
H       -2.35603135      -0.14065959      -0.85213675
H       -0.15260529      -0.24814406      -2.11634931
14
Frame=11 idx=007354 GeodesicLength=1.2832600585856255 rxn_smarts="[O:1]=[C:2]1[C:3]([H:8])([H:9])[N:4]2[C:5]([H:10])([H:11])[C:6]([H:12])([H:13])[C@@:7]12[H:14]>>[O:1]([C-:2]1[C:3]([H:8])([H:9])[N+:4]2=[C:5]([H:11])[C:6]([H:12])([H:13])[C@@:7]12[H:14])[H:10]"
O        0.89225820       1.65525823       0.37742023
C        1.13389881       0.70029529      -0.50055129
C        1.52710046      -0.64469760       0.10964441
N        0.06798276      -0.99862088      -0.00496707
C       -0.86222067      -0.37015440       0.82554955
C       -1.50390293       0.34119026      -0.36346674
C       -0.15998384       0.03505747      -1.06454744
H        2.14842231      -1.27977827      -0.51745843
H        1.89294004      -0.66729225       1.13968141
H        0.34579314       1.03183747       1.44014115
H       -1.24589400      -0.81083723       1.73265510
H       -1.72621985       1.39668255      -0.21861804
H       -2.35466745      -0.14360374      -0.84063683
H       -0.15550697      -0.24533691      -2.11484600
14
Frame=12 idx=007354 GeodesicLength=1.4005963549047895 rxn_smarts="[O:1]=[C:2]1[C:3]([H:8])([H:9])[N:4]2[C:5]([H:10])([H:11])[C:6]([H:12])([H:13])[C@@:7]12[H:14]>>[O:1]([C-:2]1[C:3]([H:8])([H:9])[N+:4]2=[C:5]([H:11])[C:6]([H:12])([H:13])[C@@:7]12[H:14])[H:10]"
O        0.90916657       1.66455751       0.35956014
C        1.13644041       0.70120314      -0.50544034
C        1.52710978      -0.64541436       0.10854746
N        0.06972997      -0.99984966      -0.00166747
C       -0.85271552      -0.35712405       0.83556494
C       -1.50105700       0.34223000      -0.35909012
C       -0.15847826       0.03487587      -1.06221599
H        2.15191720      -1.27854330      -0.51735528
H        1.89315007      -0.66812002       1.13846183
H        0.31793392       1.01625688       1.44632695
H       -1.25700667      -0.82008860       1.72289368
H       -1.72427201       1.39876643      -0.22279010
H       -2.35337448      -0.14609408      -0.82943030
H       -0.15854400      -0.24265575      -2.11336540
14
Frame=13 idx=007354 GeodesicLength=1.5181824432427395 rxn_smarts="[O:1]=[C:2]1[C:3]([H:8])([H:9])[N:4]2[C:5]([H:10])([H:11])[C:6]([H:12])([H:13])[C@@:7]12[H:14]>>[O:1]([C-:2]1[C:3]([H:8])([H:9])[N+:4]2=[C:5]([H:11])[C:6]([H:12])([H:13])[C@@:7]12[H:14])[H:10]"
O        0.92593507       1.67455612       0.33992867
C        1.13878665       0.70197381      -0.51049078
C        1.52701634      -0.64594124       0.10771733
N        0.07151539      -1.00121751       0.00148106
C       -0.84369159      -0.34501021       0.84513846
C       -1.49822424       0.34329760      -0.35469343
C       -0.15710359       0.03456116      -1.05995115
H        2.15556549      -1.27712541      -0.51669862
H        1.89309024      -0.66839431       1.13756946
H        0.29101689       0.99941579       1.45428458
H       -1.26776375      -0.82869184       1.71247398
H       -1.72223797       1.40074907      -0.22631247
H       -2.35215961      -0.14802979      -0.81852697
H       -0.16174533      -0.24014325      -2.11192014
14
Frame=14 idx=007354 GeodesicLength=1.6357694756438226 rxn_smarts="[O:1]=[C:2]1[C:3]([H:8])([H:9])[N:4]2[C:5]([H:10])([H:11])[C:6]([H:12])([H:13])[C@@:7]12[H:14]>>[O:1]([C-:2]1[C:3]([H:8])([H:9])[N+:4]2=[C:5]([H:11])[C:6]([H:12])([H:13])[C@@:7]12[H:14])[H:10]"
O        0.94263091       1.68532874       0.31828879
C        1.14094826       0.70258542      -0.51576520
C        1.52682952      -0.64625271       0.10717333
N        0.07335479      -1.00272999       0.00445768
C       -0.83515414      -0.33382031       0.85427316
C       -1.49537955       0.34445318      -0.35027537
C       -0.15586388       0.03410130      -1.05776755
H        2.15939691      -1.27551955      -0.51542394
H        1.89275655      -0.66801133       1.13703062
H        0.26491434       0.98116096       1.46414290
H       -1.27822825      -0.83684836       1.70146231
H       -1.72003400       1.40271249      -0.22915847
H       -2.35103087      -0.14931789      -0.80792135
H       -0.16514058      -0.23784195      -2.11051691
14
Frame=15 idx=007354 GeodesicLength=1.7531898395866663 rxn_smarts="[O:1]=[C:2]1[C:3]([H:8])([H:9])[N:4]2[C:5]([H:10])([H:11])[C:6]([H:12])([H:13])[C@@:7]12[H:14]>>[O:1]([C-:2]1[C:3]([H:8])([H:9])[N+:4]2=[C:5]([H:11])[C:6]([H:12])([H:13])[C@@:7]12[H:14])[H:10]"
O        0.95934254       1.69693831       0.29435557
C        1.14293413       0.70301206      -0.52132828
C        1.52655802      -0.64631700       0.10694212
N        0.07526701      -1.00439997       0.00724246
C       -0.82711478      -0.32359381       0.86297055
C       -1.49249331       0.34575657      -0.34582003
C       -0.15476597       0.03348141      -1.05567531
H        2.16344546      -1.27371409      -0.51345179
H        1.89213681      -0.66685174       1.13687968
H        0.23947977       0.96135158       1.47604460
H       -1.28845960      -0.84476240       1.68987041
H       -1.71756643       1.40474246      -0.23126539
H       -2.34999618      -0.14984661      -0.79760642
H       -0.16876747      -0.23579676      -2.10915816
14
Frame=16 idx=007354 GeodesicLength=1.8701809607282678 rxn_smarts="[O:1]=[C:2]1[C:3]([H:8])([H:9])[N:4]2[C:5]([H:10])([H:11])[C:6]([H:12])([H:13])[C@@:7]12[H:14]>>[O:1]([C-:2]1[C:3]([H:8])([H:9])[N+:4]2=[C:5]([H:11])[C:6]([H:12])([H:13])[C@@:7]12[H:14])[H:10]"
O        0.97615812       1.70943314       0.26784609
C        1.14475187       0.70322761      -0.52724283
C        1.52621171      -0.64610116       0.10705299
N        0.07727133      -1.00624174       0.00981531
C       -0.81958811      -0.31438097       0.87123562
C       -1.48953562       0.34726728      -0.34130499
C       -0.15381839       0.03268757      -1.05367976
H        2.16774969      -1.27169425      -0.51069967
H        1.89121753      -0.66479389       1.13715500
H        0.21457921       0.93987343       1.49011197
H       -1.29852929      -0.85265183       1.67768533
H       -1.71473594       1.40692516      -0.23256329
H       -2.34906473      -0.14949924      -0.78757039
H       -0.17266739      -0.23405111      -2.10784137
