11
Frame=0 idx=009445 GeodesicLength=0.0 rxn_smarts="[N:1]#[C:2][C:3]([O:4][C:5]([C:6]#[N:7])([H:10])[H:11])([H:8])[H:9]>>[N:1](=[C:2]=[C:3]([O:4][C:5]([C:6]#[N:7])([H:10])[H:11])[H:8])[H:9]"
N        2.70938018       0.89663130       0.92075482
C        1.90869298       0.33721830       0.21566766
C        0.98558704      -0.28974109      -0.59640274
O        0.09778815      -1.16429571      -0.03222747
C       -1.25636114      -0.78347237      -0.14124726
C       -1.51387174       0.47531553       0.57673193
N       -1.66055276       1.46846318       1.13096977
H        0.86549831       0.01685195      -1.62704578
H        1.26714005       1.28266635       0.44256383
H       -1.55322721      -0.65535899      -1.18776867
H       -1.85007382      -1.58427850       0.29800389
11
Frame=1 idx=009445 GeodesicLength=0.10852553894427497 rxn_smarts="[N:1]#[C:2][C:3]([O:4][C:5]([C:6]#[N:7])([H:10])[H:11])([H:8])[H:9]>>[N:1](=[C:2]=[C:3]([O:4][C:5]([C:6]#[N:7])([H:10])[H:11])[H:8])[H:9]"
N        2.62933669       0.92858183       0.96999941
C        1.88354975       0.31730414       0.25001219
C        0.99084973      -0.29765802      -0.60303843
O        0.09127229      -1.18512843      -0.07881361
C       -1.25539294      -0.77359290      -0.13972222
C       -1.48296031       0.46550531       0.62089186
N       -1.62632783       1.45374950       1.18457659
H        0.94376846      -0.04189375      -1.65257621
H        1.25074094       1.32296552       0.33284422
H       -1.57270244      -0.61274211      -1.17552769
H       -1.85213432      -1.57709108       0.29135389
11
Frame=2 idx=009445 GeodesicLength=0.21763105017034207 rxn_smarts="[N:1]#[C:2][C:3]([O:4][C:5]([C:6]#[N:7])([H:10])[H:11])([H:8])[H:9]>>[N:1](=[C:2]=[C:3]([O:4][C:5]([C:6]#[N:7])([H:10])[H:11])[H:8])[H:9]"
N        2.54671297       0.96190157       1.01050409
C        1.85416099       0.30044949       0.28376164
C        0.99593315      -0.30415897      -0.61043933
O        0.08358394      -1.20183225      -0.12673268
C       -1.25418304      -0.76299284      -0.13815902
C       -1.45222243       0.45620912       0.66139915
N       -1.59490100       1.43762362       1.23685492
H        1.02395471      -0.09884035      -1.67111684
H        1.24127555       1.35203612       0.22958450
H       -1.59163361      -0.57144513      -1.16214787
H       -1.85268122      -1.56895038       0.28649146
11
Frame=3 idx=009445 GeodesicLength=0.3271566877606122 rxn_smarts="[N:1]#[C:2][C:3]([O:4][C:5]([C:6]#[N:7])([H:10])[H:11])([H:8])[H:9]>>[N:1](=[C:2]=[C:3]([O:4][C:5]([C:6]#[N:7])([H:10])[H:11])[H:8])[H:9]"
N        2.46549427       0.99563341       1.04079637
C        1.82242164       0.28584053       0.31599475
C        1.00094510      -0.30891084      -0.61843353
O        0.07490822      -1.21420526      -0.17550368
C       -1.25299602      -0.75197423      -0.13671133
C       -1.42272209       0.44760269       0.69797732
N       -1.56686993       1.42076359       1.28681625
H        1.10524990      -0.15371100      -1.68245675
H        1.23602761       1.37159228       0.13624176
H       -1.61061926      -0.53209337      -1.14794658
H       -1.85183944      -1.56053781       0.28322541
11
Frame=4 idx=009445 GeodesicLength=0.4369204866012487 rxn_smarts="[N:1]#[C:2][C:3]([O:4][C:5]([C:6]#[N:7])([H:10])[H:11])([H:8])[H:9]>>[N:1](=[C:2]=[C:3]([O:4][C:5]([C:6]#[N:7])([H:10])[H:11])[H:8])[H:9]"
N        2.38628738       1.02747686       1.06304551
C        1.78931278       0.27259348       0.34600658
C        1.00563160      -0.31146734      -0.62733814
O        0.06544700      -1.22208946      -0.22534704
C       -1.25177839      -0.74084589      -0.13526003
C       -1.39466322       0.43994854       0.73045227
N       -1.54192508       1.40367450       1.33378073
H        1.18648122      -0.20575577      -1.68690057
H        1.23429918       1.38453809       0.05214847
H       -1.63027911      -0.49571169      -1.13288662
H       -1.84881336      -1.55236132       0.28229883
11
Frame=5 idx=009445 GeodesicLength=0.546676720223624 rxn_smarts="[N:1]#[C:2][C:3]([O:4][C:5]([C:6]#[N:7])([H:10])[H:11])([H:8])[H:9]>>[N:1](=[C:2]=[C:3]([O:4][C:5]([C:6]#[N:7])([H:10])[H:11])[H:8])[H:9]"
N        2.31004619       1.05723974       1.07764256
C        1.75548096       0.26021168       0.37375275
C        1.01018121      -0.31206121      -0.63694877
O        0.05523519      -1.22548392      -0.27598515
C       -1.25053987      -0.72948373      -0.13399357
C       -1.36817537       0.43324195       0.75934838
N       -1.52017708       1.38595889       1.37870811
H        1.26738565      -0.25626984      -1.68432254
H        1.23486343       1.39291999      -0.02389302
H       -1.65058512      -0.46173061      -1.11718190
H       -1.84371520      -1.54454294       0.28287313
11
Frame=6 idx=009445 GeodesicLength=0.6563601134881416 rxn_smarts="[N:1]#[C:2][C:3]([O:4][C:5]([C:6]#[N:7])([H:10])[H:11])([H:8])[H:9]>>[N:1](=[C:2]=[C:3]([O:4][C:5]([C:6]#[N:7])([H:10])[H:11])[H:8])[H:9]"
N        2.23694989       1.08388904       1.08628463
C        1.72137419       0.24805599       0.39925624
C        1.01451701      -0.31051744      -0.64743522
O        0.04433693      -1.22442393      -0.32779278
C       -1.24927892      -0.71811503      -0.13287163
C       -1.34325651       0.42755779       0.78483739
N       -1.50114962       1.36813943       1.42100380
H        1.34698065      -0.30488068      -1.67491309
H        1.23761418       1.39848078      -0.09291631
H       -1.67210001      -0.43064780      -1.10075149
H       -1.83598779      -1.53753816       0.28529845
11
Frame=7 idx=009445 GeodesicLength=0.7658746822234125 rxn_smarts="[N:1]#[C:2][C:3]([O:4][C:5]([C:6]#[N:7])([H:10])[H:11])([H:8])[H:9]>>[N:1](=[C:2]=[C:3]([O:4][C:5]([C:6]#[N:7])([H:10])[H:11])[H:8])[H:9]"
N        2.16712361       1.10728429       1.08983946
C        1.68729953       0.23570338       0.42275109
C        1.01887287      -0.30712660      -0.65861703
O        0.03279339      -1.21895202      -0.38077308
C       -1.24791842      -0.70675462      -0.13198724
C       -1.31983012       0.42292321       0.80717509
N       -1.48451708       1.35026504       1.46078853
H        1.42423665      -0.35172739      -1.65874019
H        1.24221439       1.40226439      -0.15605934
H       -1.69487781      -0.40238823      -1.08363393
H       -1.82539702      -1.53149145       0.28925664
11
Frame=8 idx=009445 GeodesicLength=0.8751669184333998 rxn_smarts="[N:1]#[C:2][C:3]([O:4][C:5]([C:6]#[N:7])([H:10])[H:11])([H:8])[H:9]>>[N:1](=[C:2]=[C:3]([O:4][C:5]([C:6]#[N:7])([H:10])[H:11])[H:8])[H:9]"
N        2.10066366       1.12780558       1.08877658
C        1.65346122       0.22301480       0.44457324
C        1.02358081      -0.30235127      -0.67012056
O        0.02065783      -1.20913153      -0.43465718
C       -1.24636391      -0.69529147      -0.13150391
C       -1.29779674       0.41935659       0.82668251
N       -1.47020453       1.33196134       1.49877954
H        1.49815028      -0.39742035      -1.63597428
H        1.24843330       1.40498838      -0.21460914
H       -1.71863476      -0.37655698      -1.06599512
H       -1.81194718      -1.52637508       0.29404832
11
Frame=9 idx=009445 GeodesicLength=0.9842456126872299 rxn_smarts="[N:1]#[C:2][C:3]([O:4][C:5]([C:6]#[N:7])([H:10])[H:11])([H:8])[H:9]>>[N:1](=[C:2]=[C:3]([O:4][C:5]([C:6]#[N:7])([H:10])[H:11])[H:8])[H:9]"
N        2.03747880       1.14568347       1.08365416
C        1.61998059       0.20987705       0.46507657
C        1.02889128      -0.29654678      -0.68156339
O        0.00800928      -1.19496399      -0.48928254
C       -1.24452464      -0.68367773      -0.13152179
C       -1.27709793       0.41685417       0.84360178
N       -1.45795349       1.31306074       1.53526956
H        1.56770114      -0.44220753      -1.60699934
H        1.25620771       1.40710844      -0.26955555
H       -1.74319461      -0.35299666      -1.04790771
H       -1.79549813      -1.52219116       0.29922827
11
Frame=10 idx=009445 GeodesicLength=1.0931610261258329 rxn_smarts="[N:1]#[C:2][C:3]([O:4][C:5]([C:6]#[N:7])([H:10])[H:11])([H:8])[H:9]>>[N:1](=[C:2]=[C:3]([O:4][C:5]([C:6]#[N:7])([H:10])[H:11])[H:8])[H:9]"
N        1.97737682       1.16107551       1.07504218
C        1.58693130       0.19618175       0.48463740
C        1.03499193      -0.29002386      -0.69254403
O       -0.00507076      -1.17638710      -0.54453967
C       -1.24232244      -0.67190323      -0.13210011
C       -1.25771697       0.41542103       0.85812698
N       -1.44743863       1.29355874       1.57031828
H        1.63197111      -0.48613891      -1.57242277
H        1.26556060       1.40889177      -0.32163189
H       -1.76846082      -0.33171699      -1.02939083
H       -1.77582215      -1.51895872       0.30450447
11
Frame=11 idx=009445 GeodesicLength=1.201923255249249 rxn_smarts="[N:1]#[C:2][C:3]([O:4][C:5]([C:6]#[N:7])([H:10])[H:11])([H:8])[H:9]>>[N:1](=[C:2]=[C:3]([O:4][C:5]([C:6]#[N:7])([H:10])[H:11])[H:8])[H:9]"
N        1.92024863       1.17435305       1.06319518
C        1.55433132       0.18201861       0.50360760
C        1.04205924      -0.28307272      -0.70262927
O       -0.01846840      -1.15323885      -0.60019220
C       -1.23969122      -0.65985723      -0.13332244
C       -1.23965516       0.41509345       0.87047402
N       -1.43865770       1.27307871       1.60441202
H        1.69029756      -0.52973832      -1.53283182
H        1.27654251       1.41051120      -0.37161620
H       -1.79421815      -0.31257307      -1.01051947
H       -1.75278863      -1.51657482       0.30942257
11
Frame=12 idx=009445 GeodesicLength=1.3106348823815344 rxn_smarts="[N:1]#[C:2][C:3]([O:4][C:5]([C:6]#[N:7])([H:10])[H:11])([H:8])[H:9]>>[N:1](=[C:2]=[C:3]([O:4][C:5]([C:6]#[N:7])([H:10])[H:11])[H:8])[H:9]"
N        1.86574095       1.18510550       1.04897123
C        1.52222447       0.16699429       0.52238035
C        1.05005162      -0.27587661      -0.71146343
O       -0.03211930      -1.12527983      -0.65628148
C       -1.23656013      -0.64766342      -0.13510857
C       -1.22297225       0.41603654       0.88059388
N       -1.43128192       1.25229232       1.63674982
H        1.74188464      -0.57219231      -1.48941646
H        1.28948413       1.41192702      -0.41959052
H       -1.82071383      -0.29622256      -0.99111224
H       -1.72573836      -1.51512093       0.31427742
11
Frame=13 idx=009445 GeodesicLength=1.4192593455574314 rxn_smarts="[N:1]#[C:2][C:3]([O:4][C:5]([C:6]#[N:7])([H:10])[H:11])([H:8])[H:9]>>[N:1](=[C:2]=[C:3]([O:4][C:5]([C:6]#[N:7])([H:10])[H:11])[H:8])[H:9]"
N        1.81387469       1.19392148       1.03223522
C        1.49049925       0.15151748       0.54115148
C        1.05898921      -0.26849915      -0.71874670
O       -0.04585472      -1.09211436      -0.71240935
C       -1.23289564      -0.63513799      -0.13754202
C       -1.20771389       0.41811402       0.88892891
N       -1.42557068       1.23050736       1.66813263
H        1.78647951      -0.61485899      -1.44253618
H        1.30441348       1.41332177      -0.46628564
H       -1.84759869      -0.28234103      -0.97124763
H       -1.69462251      -1.51443060       0.31831927
11
Frame=14 idx=009445 GeodesicLength=1.5278935277309942 rxn_smarts="[N:1]#[C:2][C:3]([O:4][C:5]([C:6]#[N:7])([H:10])[H:11])([H:8])[H:9]>>[N:1](=[C:2]=[C:3]([O:4][C:5]([C:6]#[N:7])([H:10])[H:11])[H:8])[H:9]"
N        1.76436326       1.20065471       1.01347067
C        1.45910046       0.13548151       0.56012482
C        1.06868895      -0.26099826      -0.72428303
O       -0.05956350      -1.05339442      -0.76836042
C       -1.22866482      -0.62235010      -0.14055012
C       -1.19395884       0.42130139       0.89566988
N       -1.42140851       1.20810237       1.69814987
H        1.82365344      -0.65759462      -1.39308289
H        1.32168257       1.41464342      -0.51184470
H       -1.87489540      -0.27136898      -0.95078053
H       -1.65899762      -1.51447702       0.32148646
11
Frame=15 idx=009445 GeodesicLength=1.6365994065342202 rxn_smarts="[N:1]#[C:2][C:3]([O:4][C:5]([C:6]#[N:7])([H:10])[H:11])([H:8])[H:9]>>[N:1](=[C:2]=[C:3]([O:4][C:5]([C:6]#[N:7])([H:10])[H:11])[H:8])[H:9]"
N        1.71706665       1.20587607       0.99249914
C        1.42790371       0.11937902       0.57939394
C        1.07904415      -0.25345347      -0.72786013
O       -0.07297842      -1.00885791      -0.82344847
C       -1.22381484      -0.60919025      -0.14416506
C       -1.18174774       0.42542489       0.90118705
N       -1.41886223       1.18439163       1.72745134
H        1.85300914      -0.70134667      -1.34136723
H        1.34137816       1.41585859      -0.55690164
H       -1.90204715      -0.26312376      -0.92989367
H       -1.61895143      -1.51495813       0.32310473
11
Frame=16 idx=009445 GeodesicLength=1.7455056324217324 rxn_smarts="[N:1]#[C:2][C:3]([O:4][C:5]([C:6]#[N:7])([H:10])[H:11])([H:8])[H:9]>>[N:1](=[C:2]=[C:3]([O:4][C:5]([C:6]#[N:7])([H:10])[H:11])[H:8])[H:9]"
N        1.67168588       1.20956360       0.96956748
C        1.39694016       0.10326642       0.59899457
C        1.08971081      -0.24596130      -0.72938707
O       -0.08579559      -0.95873689      -0.87674518
C       -1.21826951      -0.59576182      -0.14822088
C       -1.17102669       0.43031513       0.90580081
N       -1.41804156       1.15956490       1.75572647
H        1.87410302      -0.74558290      -1.28843131
H        1.36382870       1.41671126      -0.60162365
H       -1.92847198      -0.25779040      -0.90869223
H       -1.57466324      -1.51558801       0.32301098
