16
Frame=0 idx=004736 GeodesicLength=0.0 rxn_smarts="[C:1]([C@@:2]([O:3][H:11])([C:4]([C:5]([O:6][H:16])([H:14])[H:15])([H:12])[H:13])[H:10])([H:7])([H:8])[H:9]>>[C:1]([C@:2]1([H:10])[C:4]([H:12])([H:13])[C:5]([H:14])([H:15])[O:6]1)([H:7])([H:8])[H:9].[O:3]([H:11])[H:16]"
C       -1.80088870       0.33406423       0.56833775
C       -0.35209096       0.45749621       0.37030973
O       -0.15407115      -1.85966065       0.96757364
C        0.27430627       0.51346077      -0.96222943
C        1.76308802       0.47404225      -0.62173826
O        1.81624316      -0.41976644       0.41567150
H       -2.04664108      -0.02913116       1.56260731
H       -2.17342207       1.36897068       0.49365345
H       -2.29063405      -0.26514745      -0.19566018
H        0.23286017       0.84371934       1.19527923
H       -0.34463834      -2.57096919       0.35356899
H       -0.15416152       1.35424613      -1.53322810
H        0.00755785      -0.39445506      -1.51167284
H        2.09931048       1.48750807      -0.32718237
H        2.37019720       0.19017637      -1.49514700
H        0.75298469      -1.48455407       0.71985662
16
Frame=1 idx=004736 GeodesicLength=0.1264684247271179 rxn_smarts="[C:1]([C@@:2]([O:3][H:11])([C:4]([C:5]([O:6][H:16])([H:14])[H:15])([H:12])[H:13])[H:10])([H:7])([H:8])[H:9]>>[C:1]([C@:2]1([H:10])[C:4]([H:12])([H:13])[C:5]([H:14])([H:15])[O:6]1)([H:7])([H:8])[H:9].[O:3]([H:11])[H:16]"
C       -1.80434258       0.33374160       0.55329731
C       -0.34763160       0.42282259       0.36950673
O       -0.15205576      -1.85357402       1.01594209
C        0.26902475       0.52485251      -0.96789546
C        1.75809078       0.47625889      -0.63637995
O        1.80877914      -0.46556677       0.35911993
H       -2.07189305      -0.02776499       1.54278631
H       -2.16225666       1.37336443       0.48246029
H       -2.29686865      -0.25654010      -0.21624493
H        0.22503970       0.82409028       1.19680242
H       -0.32828376      -2.57577501       0.41054612
H       -0.14451627       1.39066644      -1.51024212
H       -0.00621504      -0.36337726      -1.54432754
H        2.10152741       1.47269508      -0.29870491
H        2.36306199       0.22338577      -1.52026155
H        0.78853960      -1.49927945       0.76359526
16
Frame=2 idx=004736 GeodesicLength=0.25279561713264487 rxn_smarts="[C:1]([C@@:2]([O:3][H:11])([C:4]([C:5]([O:6][H:16])([H:14])[H:15])([H:12])[H:13])[H:10])([H:7])([H:8])[H:9]>>[C:1]([C@:2]1([H:10])[C:4]([H:12])([H:13])[C:5]([H:14])([H:15])[O:6]1)([H:7])([H:8])[H:9].[O:3]([H:11])[H:16]"
C       -1.80770068       0.33205348       0.53724681
C       -0.34408029       0.38838929       0.36656563
O       -0.14817701      -1.84536236       1.06651694
C        0.26341367       0.53894999      -0.97377466
C        1.75252345       0.47624531      -0.65102408
O        1.79660420      -0.51472808       0.29754240
H       -2.09603844      -0.02807277       1.52163337
H       -2.15256954       1.37570600       0.47126215
H       -2.30252406      -0.24939423      -0.23791882
H        0.21564169       0.80472505       1.19635860
H       -0.30859713      -2.57989330       0.47178768
H       -0.13307475       1.43080079      -1.48410712
H       -0.02226697      -0.32619416      -1.57920835
H        2.10616416       1.45160851      -0.26842372
H        2.35494113       0.25526072      -1.54467445
H        0.82574056      -1.51009424       0.81021762
16
Frame=3 idx=004736 GeodesicLength=0.378946578305081 rxn_smarts="[C:1]([C@@:2]([O:3][H:11])([C:4]([C:5]([O:6][H:16])([H:14])[H:15])([H:12])[H:13])[H:10])([H:7])([H:8])[H:9]>>[C:1]([C@:2]1([H:10])[C:4]([H:12])([H:13])[C:5]([H:14])([H:15])[O:6]1)([H:7])([H:8])[H:9].[O:3]([H:11])[H:16]"
C       -1.81122867       0.32851714       0.51990515
C       -0.34157681       0.35446278       0.36140388
O       -0.14129715      -1.83404724       1.12002347
C        0.25758149       0.55640056      -0.97957477
C        1.74638271       0.47329723      -0.66567676
O        1.77840152      -0.56784172       0.23018345
H       -2.11933322      -0.03083722       1.49882103
H       -2.14513866       1.37539817       0.45972420
H       -2.30740536      -0.24442182      -0.26109151
H        0.20438384       0.78590130       1.19392555
H       -0.28584394      -2.58257223       0.53898708
H       -0.11914259       1.47540716      -1.45369258
H       -0.04089117      -0.28135482      -1.61628335
H        2.11377959       1.42267628      -0.23628470
H        2.34587297       0.28503033      -1.56827823
H        0.86545545      -1.51601588       0.85790809
16
Frame=4 idx=004736 GeodesicLength=0.5046452407799757 rxn_smarts="[C:1]([C@@:2]([O:3][H:11])([C:4]([C:5]([O:6][H:16])([H:14])[H:15])([H:12])[H:13])[H:10])([H:7])([H:8])[H:9]>>[C:1]([C@:2]1([H:10])[C:4]([H:12])([H:13])[C:5]([H:14])([H:15])[O:6]1)([H:7])([H:8])[H:9].[O:3]([H:11])[H:16]"
C       -1.81516957       0.32253184       0.50097500
C       -0.34021928       0.32146220       0.35411592
O       -0.12984153      -1.81822199       1.17735149
C        0.25175767       0.57778831      -0.98470977
C        1.73963794       0.46668886      -0.68022983
O        1.75270011      -0.62481101       0.15686878
H       -2.14204882      -0.03704894       1.47392629
H       -2.14088291       1.37168780       0.44739086
H       -2.31108537      -0.24259332      -0.28620959
H        0.19085997       0.76825491       1.18960587
H       -0.26107936      -2.58248997       0.61410634
H       -0.10184844       1.52491835      -1.41756439
H       -0.06213238      -0.22727888      -1.65503911
H        2.12483601       1.38435071      -0.20264020
H        2.33587469       0.31147015      -1.59073544
H        0.90864128      -1.51670902       0.90278777
16
Frame=5 idx=004736 GeodesicLength=0.6299964101815919 rxn_smarts="[C:1]([C@@:2]([O:3][H:11])([C:4]([C:5]([O:6][H:16])([H:14])[H:15])([H:12])[H:13])[H:10])([H:7])([H:8])[H:9]>>[C:1]([C@:2]1([H:10])[C:4]([H:12])([H:13])[C:5]([H:14])([H:15])[O:6]1)([H:7])([H:8])[H:9].[O:3]([H:11])[H:16]"
C       -1.81988351       0.31363310       0.48028378
C       -0.34008670       0.28998187       0.34514832
O       -0.11235330      -1.79627385       1.23889705
C        0.24626988       0.60333961      -0.98836839
C        1.73230297       0.45575572      -0.69456751
O        1.71830353      -0.68476994       0.07833892
H       -2.16458982      -0.04773514       1.44662780
H       -2.14081332       1.36395833       0.43388223
H       -2.31326847      -0.24466738      -0.31370402
H        0.17464570       0.75266400       1.18386919
H       -0.23527866      -2.57789644       0.69826802
H       -0.08031473       1.57898905      -1.37446248
H       -0.08572375      -0.16282637      -1.69438817
H        2.13946614       1.33542125      -0.16840095
H        2.32514071       0.33302416      -1.61175223
H        0.95618332      -1.51259799       0.94032844
16
Frame=6 idx=004736 GeodesicLength=0.7547161719988613 rxn_smarts="[C:1]([C@@:2]([O:3][H:11])([C:4]([C:5]([O:6][H:16])([H:14])[H:15])([H:12])[H:13])[H:10])([H:7])([H:8])[H:9]>>[C:1]([C@:2]1([H:10])[C:4]([H:12])([H:13])[C:5]([H:14])([H:15])[O:6]1)([H:7])([H:8])[H:9].[O:3]([H:11])[H:16]"
C       -1.82560435       0.30182835       0.45795480
C       -0.34116795       0.26087209       0.33542174
O       -0.08798766      -1.76689155       1.30348484
C        0.24146233       0.63243976      -0.98950011
C        1.72425954       0.44013167      -0.70841878
O        1.67471343      -0.74551094      -0.00295095
H       -2.18729400      -0.06363689       1.41676008
H       -2.14551940       1.35215426       0.41918074
H       -2.31361680      -0.25066403      -0.34380661
H        0.15537972       0.74031724       1.17754770
H       -0.20860571      -2.56699404       0.79023074
H       -0.05402766       1.63575849      -1.32376059
H       -0.11087034      -0.08840346      -1.73225349
H        2.15713172       1.27592850      -0.13530034
H        2.31358033       0.34756712      -1.63091514
H        1.00816683      -1.50489656       0.96632539
16
Frame=7 idx=004736 GeodesicLength=0.8789084120720699 rxn_smarts="[C:1]([C@@:2]([O:3][H:11])([C:4]([C:5]([O:6][H:16])([H:14])[H:15])([H:12])[H:13])[H:10])([H:7])([H:8])[H:9]>>[C:1]([C@:2]1([H:10])[C:4]([H:12])([H:13])[C:5]([H:14])([H:15])[O:6]1)([H:7])([H:8])[H:9].[O:3]([H:11])[H:16]"
C       -1.83236038       0.28770525       0.43441256
C       -0.34336033       0.23497254       0.32614964
O       -0.05705969      -1.72979123       1.36846031
C        0.23761962       0.66372818      -0.98725167
C        1.71527428       0.41999740      -0.72148280
O        1.62257471      -0.80436198      -0.08325349
H       -2.21019228      -0.08484729       1.38447939
H       -2.15483914       1.33688937       0.40352384
H       -2.31195790      -0.25966888      -0.37630666
H        0.13297296       0.73210512       1.17169356
H       -0.18025837      -2.54864371       0.88654907
H       -0.02306542       1.69231077      -1.26617602
H       -0.13634950      -0.00608287      -1.76611623
H        2.17640629       1.20742968      -0.10528597
H        2.30097258       0.35345539      -1.64799434
H        1.06362258      -1.49519775       0.97859882
16
Frame=8 idx=004736 GeodesicLength=1.0027341505614065 rxn_smarts="[C:1]([C@@:2]([O:3][H:11])([C:4]([C:5]([O:6][H:16])([H:14])[H:15])([H:12])[H:13])[H:10])([H:7])([H:8])[H:9]>>[C:1]([C@:2]1([H:10])[C:4]([H:12])([H:13])[C:5]([H:14])([H:15])[O:6]1)([H:7])([H:8])[H:9].[O:3]([H:11])[H:16]"
C       -1.83996696       0.27232457       0.41034555
C       -0.34644623       0.21280685       0.31855676
O       -0.02098896      -1.68602486       1.43057529
C        0.23488862       0.69534224      -0.98126481
C        1.70522944       0.39633834      -0.73343870
O        1.56385592      -0.85853965      -0.15823912
H       -2.23307325      -0.11052376       1.35033402
H       -2.16790467       1.31939107       0.38739180
H       -2.30834496      -0.27015557      -0.41054816
H        0.10769323       0.72838692       1.16732761
H       -0.14933009      -2.52294137       0.98246151
H        0.01171798       1.74531564      -1.20377482
H       -0.16071197       0.08043267      -1.79375425
H        2.19559302       1.13322111      -0.08001924
H        2.28709204       0.35013485      -1.66300745
H        1.12069683      -1.48550904       0.97705401
16
Frame=9 idx=004736 GeodesicLength=1.1265503236907564 rxn_smarts="[C:1]([C@@:2]([O:3][H:11])([C:4]([C:5]([O:6][H:16])([H:14])[H:15])([H:12])[H:13])[H:10])([H:7])([H:8])[H:9]>>[C:1]([C@:2]1([H:10])[C:4]([H:12])([H:13])[C:5]([H:14])([H:15])[O:6]1)([H:7])([H:8])[H:9].[O:3]([H:11])[H:16]"
C       -1.84809438       0.25672836       0.38640484
C       -0.35014525       0.19434188       0.31342415
O        0.01824508      -1.63742622       1.48752676
C        0.23327037       0.72567882      -0.97178830
C        1.69416334       0.37057473      -0.74408938
O        1.50120467      -0.90636524      -0.22477890
H       -2.25557695      -0.13924455       1.31503626
H       -2.18347454       1.30092403       0.37117156
H       -2.30300359      -0.28073323      -0.44563168
H        0.08009258       0.72880147       1.16504077
H       -0.11545200      -2.49097548       1.07395318
H        0.04910603       1.79239818      -1.13912913
H       -0.18278593       0.16735412      -1.81410061
H        2.21325828       1.05706122      -0.06015410
H        2.27178548       0.33851269      -1.67624328
H        1.17740680      -1.47763079       0.96335788
16
Frame=10 idx=004736 GeodesicLength=1.250566148580676 rxn_smarts="[C:1]([C@@:2]([O:3][H:11])([C:4]([C:5]([O:6][H:16])([H:14])[H:15])([H:12])[H:13])[H:10])([H:7])([H:8])[H:9]>>[C:1]([C@:2]1([H:10])[C:4]([H:12])([H:13])[C:5]([H:14])([H:15])[O:6]1)([H:7])([H:8])[H:9].[O:3]([H:11])[H:16]"
C       -1.85639341       0.24160258       0.36295528
C       -0.35419841       0.17915256       0.31099916
O        0.05897425      -1.58568695       1.53854848
C        0.23265160       0.75386670      -0.95938393
C        1.68219556       0.34394014      -0.75338868
O        1.43691822      -0.94748421      -0.28169284
H       -2.27734954      -0.16966482       1.27912294
H       -2.20046827       1.28238583       0.35500054
H       -2.29612405      -0.29055358      -0.48088347
H        0.05073421       0.73259507       1.16495241
H       -0.07867268      -2.45415855       1.15902537
H        0.08795446       1.83264330      -1.07424357
H       -0.20195933       0.25213510      -1.82725853
H        2.22861848       0.98172754      -0.04539434
H        2.25492540       0.32029129      -1.68810130
H        1.23219351      -1.47279199       0.93974247
16
Frame=11 idx=004736 GeodesicLength=1.3749558504180008 rxn_smarts="[C:1]([C@@:2]([O:3][H:11])([C:4]([C:5]([O:6][H:16])([H:14])[H:15])([H:12])[H:13])[H:10])([H:7])([H:8])[H:9]>>[C:1]([C@:2]1([H:10])[C:4]([H:12])([H:13])[C:5]([H:14])([H:15])[O:6]1)([H:7])([H:8])[H:9].[O:3]([H:11])[H:16]"
C       -1.86463792       0.22724610       0.34012665
C       -0.35844722       0.16669600       0.31119922
O        0.10010162      -1.53192837       1.58391512
C        0.23290035       0.77966439      -0.94464500
C        1.66949875       0.31726651      -0.76141201
O        1.37248485      -0.98241644      -0.32920630
H       -2.29821028      -0.20081290       1.24291322
H       -2.21820232       1.26420682       0.33881962
H       -2.28787118      -0.29932468      -0.51588250
H        0.02002019       0.73900075       1.16690213
H       -0.03915824      -2.41366297       1.23726773
H        0.12751946       1.86621648      -1.01029628
H       -0.21811552       0.33356298      -1.83397537
H        2.24153789       0.90874845      -0.03497063
H        2.23648084       0.29721686      -1.69898376
H        1.28409874      -1.47167999       0.90822816
16
Frame=12 idx=004736 GeodesicLength=1.4997989952831505 rxn_smarts="[C:1]([C@@:2]([O:3][H:11])([C:4]([C:5]([O:6][H:16])([H:14])[H:15])([H:12])[H:13])[H:10])([H:7])([H:8])[H:9]>>[C:1]([C@:2]1([H:10])[C:4]([H:12])([H:13])[C:5]([H:14])([H:15])[O:6]1)([H:7])([H:8])[H:9].[O:3]([H:11])[H:16]"
C       -1.87268944       0.21370491       0.31787696
C       -0.36282113       0.15648759       0.31380793
O        0.14107597      -1.47669649       1.62437650
C        0.23389792       0.80320737      -0.92803377
C        1.65620491       0.29099069      -0.76827730
O        1.30866916      -1.01199521      -0.36823684
H       -2.31808269      -0.23210787       1.20652587
H       -2.23631808       1.24651070       0.32242469
H       -2.27830357      -0.30708800      -0.55045518
H       -0.01183622       0.74740048       1.17062182
H        0.00305321      -2.37026357       1.30922022
H        0.16739319       1.89378519      -0.94775617
H       -0.23139501       0.41137728      -1.83514143
H        2.25218315       0.83862806      -0.02802087
H        2.21643372       0.27071954      -1.70918509
H        1.33253492      -1.47466067       0.87025265
16
Frame=13 idx=004736 GeodesicLength=1.6251161986759541 rxn_smarts="[C:1]([C@@:2]([O:3][H:11])([C:4]([C:5]([O:6][H:16])([H:14])[H:15])([H:12])[H:13])[H:10])([H:7])([H:8])[H:9]>>[C:1]([C@:2]1([H:10])[C:4]([H:12])([H:13])[C:5]([H:14])([H:15])[O:6]1)([H:7])([H:8])[H:9].[O:3]([H:11])[H:16]"
C       -1.88042010       0.20093267       0.29608815
C       -0.36730416       0.14813818       0.31858519
O        0.18161190      -1.42023717       1.66067353
C        0.23554158       0.82473609      -0.90985798
C        1.64234315       0.26530648      -0.77407172
O        1.24576293      -1.03705180      -0.39971650
H       -2.33689296      -0.26322315       1.16991831
H       -2.25456294       1.22928300       0.30557129
H       -2.26738706      -0.31396299      -0.58453467
H       -0.04474376       0.75732070       1.17579630
H        0.04816956      -2.32444274       1.37559179
H        0.20740657       1.91608721      -0.88672968
H       -0.24204370       0.48573168      -1.83149235
H        2.26073983       0.77138722      -0.02381351
H        2.19468673       0.24182316      -1.71885914
H        1.37709244      -1.48182853       0.82685098
16
Frame=14 idx=004736 GeodesicLength=1.7510279016484953 rxn_smarts="[C:1]([C@@:2]([O:3][H:11])([C:4]([C:5]([O:6][H:16])([H:14])[H:15])([H:12])[H:13])[H:10])([H:7])([H:8])[H:9]>>[C:1]([C@:2]1([H:10])[C:4]([H:12])([H:13])[C:5]([H:14])([H:15])[O:6]1)([H:7])([H:8])[H:9].[O:3]([H:11])[H:16]"
C       -1.88778771       0.18880682       0.27457619
C       -0.37195228       0.14136794       0.32531503
O        0.22170934      -1.36243535       1.69356969
C        0.23777380       0.84456024      -0.89027748
C        1.62789558       0.24020325      -0.77888814
O        1.18377894      -1.05833997      -0.42467544
H       -2.35468359      -0.29403074       1.13297561
H       -2.27283410       1.21241639       0.28797765
H       -2.25505374      -0.32015917      -0.61819788
H       -0.07874291       0.76843973       1.18217041
H        0.09663619      -2.27631829       1.43729682
H        0.24754033       1.93382713      -0.82696442
H       -0.25025906       0.55710589      -1.82364891
H        2.26737054       0.70658697      -0.02168701
H        2.17113830       0.21122144      -1.72808488
H        1.41747037      -1.49325228       0.77854276
16
Frame=15 idx=004736 GeodesicLength=1.8776232549817296 rxn_smarts="[C:1]([C@@:2]([O:3][H:11])([C:4]([C:5]([O:6][H:16])([H:14])[H:15])([H:12])[H:13])[H:10])([H:7])([H:8])[H:9]>>[C:1]([C@:2]1([H:10])[C:4]([H:12])([H:13])[C:5]([H:14])([H:15])[O:6]1)([H:7])([H:8])[H:9].[O:3]([H:11])[H:16]"
C       -1.89478853       0.17724624       0.25317906
C       -0.37685619       0.13593763       0.33383025
O        0.26134653      -1.30314453       1.72361831
C        0.24054708       0.86290306      -0.86938117
C        1.61283944       0.21562198      -0.78276334
O        1.12263925      -1.07646750      -0.44385303
H       -2.37153564      -0.32442759       1.09556291
H       -2.29107090       1.19585111       0.26940743
H       -2.24126785      -0.32579530      -0.65153158
H       -0.11391253       0.78048321       1.18952905
H        0.14918343      -2.22589309       1.49494499
H        0.28781212       1.94752273      -0.76819506
H       -0.25621501       0.62588477      -1.81204914
H        2.27221546       0.64378745      -0.02111866
H        2.14570893       0.17939188      -1.73687180
H        1.45335444      -1.50890207       0.72569179
16
Frame=16 idx=004736 GeodesicLength=2.0050213505468597 rxn_smarts="[C:1]([C@@:2]([O:3][H:11])([C:4]([C:5]([O:6][H:16])([H:14])[H:15])([H:12])[H:13])[H:10])([H:7])([H:8])[H:9]>>[C:1]([C@:2]1([H:10])[C:4]([H:12])([H:13])[C:5]([H:14])([H:15])[O:6]1)([H:7])([H:8])[H:9].[O:3]([H:11])[H:16]"
C       -1.90144908       0.16620174       0.23173420
C       -0.38214435       0.13162772       0.34399634
O        0.30046660      -1.24218027       1.75125719
C        0.24382278       0.87991668      -0.84719309
C        1.59712917       0.19145675      -0.78569302
O        1.06223007      -1.09193606      -0.45780027
H       -2.38757792      -0.35432139       1.05751992
H       -2.30921707       1.17956724       0.24964063
H       -2.22601871      -0.33092375      -0.68464362
H       -0.15036183       0.79319506       1.19769035
H        0.20680001      -2.17301758       1.54892078
H        0.32825466       1.95753244      -0.71010849
H       -0.26003840       0.69239928      -1.79700567
H        2.27534447       0.58251446      -0.02165811
H        2.11831369       0.14665173      -1.74516930
H        1.48444590      -1.52868406       0.66851218
