10
Frame=0 idx=000433 GeodesicLength=0.0 rxn_smarts="[O:1]([c:2]1[c:3]([H:8])[n:4]([H:9])[n:5][c:6]1[H:10])[H:7]>>[O:1]([C@@:3]1([H:8])[C+:2]=[C:6]([H:10])[N-:5][N:4]1[H:9])[H:7]"
O        1.37249228      -0.80251608      -0.24969998
C        0.96933292       0.59941229       0.57380380
C        0.12240715      -0.57011673       0.79327547
N       -1.09853674      -0.38718508       0.22238997
N       -1.10049227       0.76208780      -0.55259555
C        0.05336864       1.30363876      -0.38417161
H        0.97702645      -0.74770668      -1.12992455
H        0.25360135      -1.33518952       1.54546627
H       -1.80545092      -1.07688256       0.04004026
H        0.25625116       2.25445781      -0.85858409
10
Frame=1 idx=000433 GeodesicLength=0.08957452491004234 rxn_smarts="[O:1]([c:2]1[c:3]([H:8])[n:4]([H:9])[n:5][c:6]1[H:10])[H:7]>>[O:1]([C@@:3]1([H:8])[C+:2]=[C:6]([H:10])[N-:5][N:4]1[H:9])[H:7]"
O        1.37277575      -0.82814541      -0.25362000
C        0.96367458       0.58705872       0.55971165
C        0.11932236      -0.57906206       0.78414844
N       -1.10629451      -0.38897479       0.21986980
N       -1.11497536       0.76487002      -0.53735832
C        0.04201788       1.30778870      -0.36894024
H        1.05801990      -0.71809883      -1.15895743
H        0.24163861      -1.32278375       1.55924913
H       -1.83219210      -1.06528355       0.06501094
H        0.25601289       2.24263095      -0.86911397
10
Frame=2 idx=000433 GeodesicLength=0.17869021837771665 rxn_smarts="[O:1]([c:2]1[c:3]([H:8])[n:4]([H:9])[n:5][c:6]1[H:10])[H:7]>>[O:1]([C@@:3]1([H:8])[C+:2]=[C:6]([H:10])[N-:5][N:4]1[H:9])[H:7]"
O        1.37053221      -0.85467801      -0.26107290
C        0.95751387       0.57369374       0.54390157
C        0.11551126      -0.58878450       0.77375576
N       -1.11533757      -0.39029655       0.21773024
N       -1.12979768       0.76718926      -0.52290640
C        0.03073011       1.31093688      -0.35511293
H        1.14792837      -0.68686077      -1.18297424
H        0.22982271      -1.31074013       1.57075421
H       -1.86105292      -1.05112392       0.09433376
H        0.25414963       2.23066400      -0.87840906
10
Frame=3 idx=000433 GeodesicLength=0.26705144014698945 rxn_smarts="[O:1]([c:2]1[c:3]([H:8])[n:4]([H:9])[n:5][c:6]1[H:10])[H:7]>>[O:1]([C@@:3]1([H:8])[C+:2]=[C:6]([H:10])[N-:5][N:4]1[H:9])[H:7]"
O        1.36543719      -0.88185693      -0.27295915
C        0.95077026       0.55939482       0.52597613
C        0.11096206      -0.59921897       0.76182620
N       -1.12591738      -0.39086201       0.21638205
N       -1.14529354       0.76937072      -0.50889844
C        0.01961324       1.31280155      -0.34354602
H        1.24715142      -0.65554730      -1.19999759
H        0.21857108      -1.29933315       1.57943556
H       -1.89143294      -1.03425438       0.12777293
H        0.25013861       2.21950564      -0.88599168
10
Frame=4 idx=000433 GeodesicLength=0.3541811491642313 rxn_smarts="[O:1]([c:2]1[c:3]([H:8])[n:4]([H:9])[n:5][c:6]1[H:10])[H:7]>>[O:1]([C@@:3]1([H:8])[C+:2]=[C:6]([H:10])[N-:5][N:4]1[H:9])[H:7]"
O        1.35710975      -0.90903774      -0.29042764
C        0.94327472       0.54434454       0.50583040
C        0.10569459      -0.61040644       0.74802695
N       -1.13823994      -0.39039357       0.21643583
N       -1.16198398       0.77212535      -0.49421884
C        0.00853129       1.31354506      -0.33436419
H        1.35560725      -0.62531354      -1.20766320
H        0.20841415      -1.28909079       1.58464200
H       -1.92247770      -1.01492930       0.16450656
H        0.24406988       2.20915644      -0.89276787
10
Frame=5 idx=000433 GeodesicLength=0.43982985096223925 rxn_smarts="[O:1]([c:2]1[c:3]([H:8])[n:4]([H:9])[n:5][c:6]1[H:10])[H:7]>>[O:1]([C@@:3]1([H:8])[C+:2]=[C:6]([H:10])[N-:5][N:4]1[H:9])[H:7]"
O        1.34558111      -0.93569572      -0.31437849
C        0.93514231       0.52880537       0.48270839
C        0.09992311      -0.62193081       0.73201903
N       -1.15237105      -0.38826102       0.21842005
N       -1.18037319       0.77614616      -0.47807730
C       -0.00249103       1.31300247      -0.32872036
H        1.47265951      -0.59979215      -1.20336659
H        0.20015899      -1.28004861       1.58577224
H       -1.95306875      -0.99364566       0.20325819
H        0.23483898       2.20141997      -0.89763515
10
Frame=6 idx=000433 GeodesicLength=0.5228789333783392 rxn_smarts="[O:1]([c:2]1[c:3]([H:8])[n:4]([H:9])[n:5][c:6]1[H:10])[H:7]>>[O:1]([C@@:3]1([H:8])[C+:2]=[C:6]([H:10])[N-:5][N:4]1[H:9])[H:7]"
O        1.33073691      -0.96010656      -0.34643150
C        0.92601455       0.51338254       0.45708914
C        0.09377406      -0.63416162       0.71296663
N       -1.16800208      -0.38473275       0.22252127
N       -1.20073649       0.78239423      -0.45858091
C       -0.01388152       1.31229697      -0.32524707
H        1.59684899      -0.57915343      -1.18374219
H        0.19436539      -1.27320711       1.58167069
H       -1.98277635      -0.97104390       0.24355411
H        0.22365653       2.19433163      -0.90380016
10
Frame=7 idx=000433 GeodesicLength=0.6032689745262402 rxn_smarts="[O:1]([c:2]1[c:3]([H:8])[n:4]([H:9])[n:5][c:6]1[H:10])[H:7]>>[O:1]([C@@:3]1([H:8])[C+:2]=[C:6]([H:10])[N-:5][N:4]1[H:9])[H:7]"
O        1.31340386      -0.98169276      -0.38651382
C        0.91659488       0.49873704       0.42728675
C        0.08803921      -0.64559382       0.69098242
N       -1.18459669      -0.37849787       0.22958750
N       -1.22341015       0.79187409      -0.43455642
C       -0.02581170       1.31152486      -0.32540752
H        1.72411236      -0.57121823      -1.14666907
H        0.19247508      -1.26723413       1.57239547
H       -2.00898722      -0.94956089       0.28096785
H        0.20818037       2.19166171      -0.90807318
10
Frame=8 idx=000433 GeodesicLength=0.6797489036573908 rxn_smarts="[O:1]([c:2]1[c:3]([H:8])[n:4]([H:9])[n:5][c:6]1[H:10])[H:7]>>[O:1]([C@@:3]1([H:8])[C+:2]=[C:6]([H:10])[N-:5][N:4]1[H:9])[H:7]"
O        1.29559503      -0.99785933      -0.43524720
C        0.90650855       0.48595871       0.39438626
C        0.08317579      -0.65679958       0.66468525
N       -1.20091568      -0.37114984       0.23758923
N       -1.24767534       0.80453221      -0.40554392
C       -0.03884255       1.31231694      -0.32693826
H        1.85010881      -0.57612974      -1.08953857
H        0.19465543      -1.26314328       1.55649477
H       -2.03235155      -0.92887121       0.31756563
H        0.18974151       2.19114513      -0.91345320
10
Frame=9 idx=000433 GeodesicLength=0.7526473843926134 rxn_smarts="[O:1]([c:2]1[c:3]([H:8])[n:4]([H:9])[n:5][c:6]1[H:10])[H:7]>>[O:1]([C@@:3]1([H:8])[C+:2]=[C:6]([H:10])[N-:5][N:4]1[H:9])[H:7]"
O        1.28006670      -1.00686443      -0.49197730
C        0.89599543       0.47600056       0.35849433
C        0.07989264      -0.66737932       0.63331394
N       -1.21582943      -0.36365849       0.24460867
N       -1.27279305       0.81998820      -0.37152437
C       -0.05326398       1.31551293      -0.32891162
H        1.96902580      -0.59686311      -1.01134323
H        0.20112809      -1.26051528       1.53338557
H       -2.05209786      -0.90926495       0.35374304
H        0.16787564       2.19304389      -0.91978902
10
Frame=10 idx=000433 GeodesicLength=0.8224059386308105 rxn_smarts="[O:1]([c:2]1[c:3]([H:8])[n:4]([H:9])[n:5][c:6]1[H:10])[H:7]>>[O:1]([C@@:3]1([H:8])[C+:2]=[C:6]([H:10])[N-:5][N:4]1[H:9])[H:7]"
O        1.26843476      -1.00856509      -0.55354719
C        0.88626917       0.46993037       0.31838965
C        0.07944193      -0.67535482       0.59860119
N       -1.22785473      -0.35551841       0.25135181
N       -1.29771159       0.83808047      -0.33206150
C       -0.06908455       1.32197010      -0.33103433
H        2.07143805      -0.63975056      -0.91550874
H        0.21306269      -1.25600325       1.50583254
H       -2.06514698      -0.89532831       0.38221016
H        0.14115125       2.20053949      -0.92423359
10
Frame=11 idx=000433 GeodesicLength=0.8905326184111475 rxn_smarts="[O:1]([c:2]1[c:3]([H:8])[n:4]([H:9])[n:5][c:6]1[H:10])[H:7]>>[O:1]([C@@:3]1([H:8])[C+:2]=[C:6]([H:10])[N-:5][N:4]1[H:9])[H:7]"
O        1.26669778      -1.00157735      -0.61612135
C        0.87671456       0.46769544       0.27802505
C        0.08150564      -0.68237033       0.55933642
N       -1.23644539      -0.34978118       0.25256295
N       -1.32055416       0.85633539      -0.28986042
C       -0.08546568       1.33143404      -0.33085461
H        2.15103518      -0.69632219      -0.80726540
H        0.22746790      -1.25139585       1.47289156
H       -2.07350053      -0.88262407       0.41116936
H        0.11254470       2.20860610      -0.92988356
10
Frame=12 idx=000433 GeodesicLength=0.9593628888463857 rxn_smarts="[O:1]([c:2]1[c:3]([H:8])[n:4]([H:9])[n:5][c:6]1[H:10])[H:7]>>[O:1]([C@@:3]1([H:8])[C+:2]=[C:6]([H:10])[N-:5][N:4]1[H:9])[H:7]"
O        1.27571564      -0.98816044      -0.67474314
C        0.86822870       0.46908931       0.23815742
C        0.08603650      -0.68743709       0.51860243
N       -1.24157978      -0.34610457       0.24884324
N       -1.34040335       0.87410301      -0.24492660
C       -0.10140565       1.34337484      -0.32815315
H        2.20397706      -0.76436371      -0.69657808
H        0.24313494      -1.24408670       1.43893637
H       -2.07624777      -0.87398661       0.43564567
H        0.08254370       2.21757196      -0.93578415
10
Frame=13 idx=000433 GeodesicLength=1.029974722730004 rxn_smarts="[O:1]([c:2]1[c:3]([H:8])[n:4]([H:9])[n:5][c:6]1[H:10])[H:7]>>[O:1]([C@@:3]1([H:8])[C+:2]=[C:6]([H:10])[N-:5][N:4]1[H:9])[H:7]"
O        1.29632063      -0.97046563      -0.72579325
C        0.86046046       0.47270248       0.20086395
C        0.09189747      -0.69148592       0.47733214
N       -1.24426574      -0.34476725       0.23895983
N       -1.35656668       0.89006524      -0.19909722
C       -0.11593284       1.35618101      -0.32318941
H        2.23263530      -0.83558144      -0.59110483
H        0.25728504      -1.23490306       1.40524204
H       -2.07464987      -0.86700775       0.45912679
H        0.05281622       2.22526231      -0.94234003
10
Frame=14 idx=000433 GeodesicLength=1.1021828371977347 rxn_smarts="[O:1]([c:2]1[c:3]([H:8])[n:4]([H:9])[n:5][c:6]1[H:10])[H:7]>>[O:1]([C@@:3]1([H:8])[C+:2]=[C:6]([H:10])[N-:5][N:4]1[H:9])[H:7]"
O        1.32636720      -0.95077759      -0.76777145
C        0.85336372       0.47749633       0.16663256
C        0.09825670      -0.69463094       0.43716438
N       -1.24557536      -0.34449016       0.22514194
N       -1.36904847       0.90382942      -0.15313594
C       -0.12863297       1.36899525      -0.31629725
H        2.24181276      -0.90565365      -0.49593108
H        0.26896157      -1.22386550       1.37353369
H       -2.06949862      -0.86169283       0.48025798
H        0.02399349       2.23078968      -0.94959483
10
Frame=15 idx=000433 GeodesicLength=1.1755091342750525 rxn_smarts="[O:1]([c:2]1[c:3]([H:8])[n:4]([H:9])[n:5][c:6]1[H:10])[H:7]>>[O:1]([C@@:3]1([H:8])[C+:2]=[C:6]([H:10])[N-:5][N:4]1[H:9])[H:7]"
O        1.36353002      -0.93070413      -0.80086353
C        0.84676279       0.48273004       0.13492454
C        0.10459528      -0.69703990       0.39875330
N       -1.24626673      -0.34408827       0.20990728
N       -1.37821682       0.91533882      -0.10771600
C       -0.13954004       1.38129378      -0.30821634
H        2.23653548      -0.97254937      -0.41215168
H        0.27827781      -1.21129524       1.34424022
H       -2.06178779      -0.85790063       0.49830823
H       -0.00389000       2.23421489      -0.95718600
10
Frame=16 idx=000433 GeodesicLength=1.249582482316183 rxn_smarts="[O:1]([c:2]1[c:3]([H:8])[n:4]([H:9])[n:5][c:6]1[H:10])[H:7]>>[O:1]([C@@:3]1([H:8])[C+:2]=[C:6]([H:10])[N-:5][N:4]1[H:9])[H:7]"
O        1.40589038      -0.91098137      -0.82581782
C        0.84058298       0.48812675       0.10490064
C        0.11080716      -0.69868003       0.36249219
N       -1.24662394      -0.34286233       0.19520278
N       -1.38453837       0.92478453      -0.06306438
C       -0.14889918       1.39295144      -0.29947623
H        2.22054870      -1.03633515      -0.33937653
H        0.28595328      -1.19714163       1.31757121
H       -2.05255824      -0.85580510       0.51231408
H       -0.03116276       2.23594290      -0.96474595
