17
Frame=0 idx=011646 GeodesicLength=0.0 rxn_smarts="[O:1]([C:2]([C@@:3]1([H:11])[C:4]([H:12])([H:13])[C:5]([H:14])([H:15])[O:6][C:7]1([H:16])[H:17])([H:9])[H:10])[H:8]>>[H:14][H:16].[O:1]([C:2]([C@@:3]1([H:11])[C:4]([H:12])([H:13])[C-:5]([H:15])[O+:6]=[C:7]1[H:17])([H:9])[H:10])[H:8]"
O        2.44659134       0.08787166       0.76399808
C        1.51378844      -0.53019186      -0.10475453
C        0.14514164      -0.42402897       0.53784567
C       -0.42715962       1.02311139       0.60668557
C       -1.78364897       0.85537803      -0.02992283
O       -2.05714471      -0.42232936      -0.15284955
C       -0.95443090      -1.15223628      -0.19986695
H        3.30433738       0.10171960       0.33835710
H        1.49940500      -0.03958523      -1.08425144
H        1.76335311      -1.58832878      -0.26029344
H        0.24671924      -0.83726203       1.54920626
H       -0.50522374       1.38096034       1.63580181
H        0.20426283       1.73336874       0.07086164
H       -0.98180726       0.63260516      -1.72929394
H       -2.63923305       1.50832241       0.04760366
H       -0.65259080      -0.10967833      -1.79208657
H       -1.12235986      -2.21969652      -0.19704048
17
Frame=1 idx=011646 GeodesicLength=0.08998239583247848 rxn_smarts="[O:1]([C:2]([C@@:3]1([H:11])[C:4]([H:12])([H:13])[C:5]([H:14])([H:15])[O:6][C:7]1([H:16])[H:17])([H:9])[H:10])[H:8]>>[H:14][H:16].[O:1]([C:2]([C@@:3]1([H:11])[C:4]([H:12])([H:13])[C-:5]([H:15])[O+:6]=[C:7]1[H:17])([H:9])[H:10])[H:8]"
O        2.44487957       0.08956504       0.77474401
C        1.51816100      -0.53107667      -0.09862944
C        0.14533307      -0.42301053       0.53399398
C       -0.42401845       1.02355048       0.60258993
C       -1.78301226       0.85863501      -0.02938092
O       -2.05861548      -0.42324507      -0.14188150
C       -0.94899392      -1.14742542      -0.21651287
H        3.30612752       0.09993159       0.35612842
H        1.50967876      -0.04306742      -1.07970416
H        1.76946871      -1.58934265      -0.25020157
H        0.23556854      -0.83782567       1.54595816
H       -0.48834729       1.38990231       1.62921120
H        0.20325692       1.72855130       0.05376318
H       -1.00616379       0.63921545      -1.74583489
H       -2.64064812       1.50500912       0.07951054
H       -0.66850513      -0.12374831      -1.80208899
H       -1.11416963      -2.21561855      -0.21166507
17
Frame=2 idx=011646 GeodesicLength=0.1799586059355412 rxn_smarts="[O:1]([C:2]([C@@:3]1([H:11])[C:4]([H:12])([H:13])[C:5]([H:14])([H:15])[O:6][C:7]1([H:16])[H:17])([H:9])[H:10])[H:8]>>[H:14][H:16].[O:1]([C:2]([C@@:3]1([H:11])[C:4]([H:12])([H:13])[C-:5]([H:15])[O+:6]=[C:7]1[H:17])([H:9])[H:10])[H:8]"
O        2.44309717       0.09128265       0.78553396
C        1.52251690      -0.53197238      -0.09241794
C        0.14556560      -0.42197527       0.53014211
C       -0.42087690       1.02401282       0.59846569
C       -1.78247538       0.86175710      -0.02864714
O       -2.05968647      -0.42433210      -0.13108916
C       -0.94357354      -1.14243593      -0.23300956
H        3.30783484       0.09801486       0.37409481
H        1.52005089      -0.04655978      -1.07502361
H        1.77545988      -1.59037953      -0.23998386
H        0.22445023      -0.83829179       1.54261878
H       -0.47129410       1.39888133       1.62233931
H        0.20211574       1.72357098       0.03662460
H       -1.03152017       0.64648933      -1.76211441
H       -2.64125710       1.50131940       0.11105894
H       -0.68455969      -0.13800063      -1.81219214
H       -1.10584788      -2.21138104      -0.22640038
17
Frame=3 idx=011646 GeodesicLength=0.2699275935420635 rxn_smarts="[O:1]([C:2]([C@@:3]1([H:11])[C:4]([H:12])([H:13])[C:5]([H:14])([H:15])[O:6][C:7]1([H:16])[H:17])([H:9])[H:10])[H:8]>>[H:14][H:16].[O:1]([C:2]([C@@:3]1([H:11])[C:4]([H:12])([H:13])[C-:5]([H:15])[O+:6]=[C:7]1[H:17])([H:9])[H:10])[H:8]"
O        2.44124871       0.09302236       0.79636957
C        1.52686062      -0.53288050      -0.08611784
C        0.14584388      -0.42092554       0.52629072
C       -0.41772682       1.02449657       0.59431239
C       -1.78202444       0.86475046      -0.02772218
O       -2.06036853      -0.42558371      -0.12050557
C       -0.93816024      -1.13726992      -0.24936571
H        3.30945793       0.09597790       0.39225698
H        1.53052420      -0.05006349      -1.07020568
H        1.78133171      -1.59144056      -0.22964017
H        0.21337096      -0.83866347       1.53918849
H       -0.45406728       1.40789020       1.61517788
H        0.20084572       1.71842454       0.01945096
H       -1.05791658       0.65447624      -1.77809868
H       -2.64109394       1.49727139       0.14223851
H       -0.70072544      -0.15249890      -1.82240240
H       -1.09740048      -2.20698357      -0.24122726
17
Frame=4 idx=011646 GeodesicLength=0.3598883262508602 rxn_smarts="[O:1]([C:2]([C@@:3]1([H:11])[C:4]([H:12])([H:13])[C:5]([H:14])([H:15])[O:6][C:7]1([H:16])[H:17])([H:9])[H:10])[H:8]>>[H:14][H:16].[O:1]([C:2]([C@@:3]1([H:11])[C:4]([H:12])([H:13])[C-:5]([H:15])[O+:6]=[C:7]1[H:17])([H:9])[H:10])[H:8]"
O        2.43933820       0.09478202       0.80725279
C        1.53119632      -0.53380257      -0.07972687
C        0.14617199      -0.41986331       0.52244002
C       -0.41456027       1.02500045       0.59012811
C       -1.78164527       0.86762207      -0.02660954
O       -2.06067301      -0.42699220      -0.11016477
C       -0.93274460      -1.13192948      -0.26559012
H        3.31099509       0.09382853       0.41061619
H        1.54110150      -0.05358007      -1.06524633
H        1.78708888      -1.59252697      -0.21916985
H        0.20233626      -0.83894290       1.53566750
H       -0.43667079       1.41692274       1.60771736
H        0.19945363       1.71310920       0.00224612
H       -1.08539599       0.66323238      -1.79375149
H       -2.64019093       1.49288028       0.17304583
H       -0.71696862      -0.16731446      -1.83272774
H       -1.08883239      -2.20242571      -0.25612721
17
Frame=5 idx=011646 GeodesicLength=0.449840815428046 rxn_smarts="[O:1]([C:2]([C@@:3]1([H:11])[C:4]([H:12])([H:13])[C:5]([H:14])([H:15])[O:6][C:7]1([H:16])[H:17])([H:9])[H:10])[H:8]>>[H:14][H:16].[O:1]([C:2]([C@@:3]1([H:11])[C:4]([H:12])([H:13])[C-:5]([H:15])[O+:6]=[C:7]1[H:17])([H:9])[H:10])[H:8]"
O        2.43736887       0.09655983       0.81818623
C        1.53552788      -0.53474002      -0.07324246
C        0.14655347      -0.41879003       0.51858950
C       -0.41136948       1.02552386       0.58590871
C       -1.78132403       0.87037938      -0.02531471
O       -2.06061167      -0.42854932      -0.10010204
C       -0.92731702      -1.12641666      -0.28169211
H        3.31244465       0.09157224       0.42917591
H        1.55178603      -0.05711131      -1.06014137
H        1.79273577      -1.59363993      -0.20857137
H        0.19135024      -0.83913107       1.53205560
H       -0.41910832       1.42597452       1.59994603
H        0.19794625       1.70762235      -0.01498883
H       -1.11400814       0.67282203      -1.80903391
H       -2.63857790       1.48815774       0.20348537
H       -0.73324935      -0.18252650      -1.84317785
H       -1.08014724      -2.19770713      -0.27108269
17
Frame=6 idx=011646 GeodesicLength=0.5397865955572027 rxn_smarts="[O:1]([C:2]([C@@:3]1([H:11])[C:4]([H:12])([H:13])[C:5]([H:14])([H:15])[O:6][C:7]1([H:16])[H:17])([H:9])[H:10])[H:8]>>[H:14][H:16].[O:1]([C:2]([C@@:3]1([H:11])[C:4]([H:12])([H:13])[C-:5]([H:15])[O+:6]=[C:7]1[H:17])([H:9])[H:10])[H:8]"
O        2.43534367       0.09835376       0.82917212
C        1.53985866      -0.53569437      -0.06666220
C        0.14699137      -0.41770710       0.51473851
C       -0.40814699       1.02606622       0.58164969
C       -1.78104671       0.87303036      -0.02384480
O       -2.06019698      -0.43024581      -0.09035446
C       -0.92186794      -1.12073394      -0.29768063
H        3.31380429       0.08921534       0.44793825
H        1.56258035      -0.06065910      -1.05488683
H        1.79827622      -1.59478071      -0.19784354
H        0.18041637      -0.83922861       1.52835255
H       -0.40138500       1.43504102       1.59185232
H        0.19633066       1.70196172      -0.03225229
H       -1.14380645       0.68332077      -1.82390150
H       -2.63628159       1.48311355       0.23356166
H       -0.74952154      -0.19822504      -1.85376462
H       -1.07134841      -2.19282806      -0.28607423
17
Frame=7 idx=011646 GeodesicLength=0.6297289825832129 rxn_smarts="[O:1]([C:2]([C@@:3]1([H:11])[C:4]([H:12])([H:13])[C:5]([H:14])([H:15])[O:6][C:7]1([H:16])[H:17])([H:9])[H:10])[H:8]>>[H:14][H:16].[O:1]([C:2]([C@@:3]1([H:11])[C:4]([H:12])([H:13])[C-:5]([H:15])[O+:6]=[C:7]1[H:17])([H:9])[H:10])[H:8]"
O        2.43326460       0.10016226       0.84021362
C        1.54419189      -0.53666717      -0.05998320
C        0.14748824      -0.41661537       0.51088545
C       -0.40488532       1.02662772       0.57734377
C       -1.78080001       0.87558314      -0.02220806
O       -2.05944176      -0.43207189      -0.08096128
C       -0.91638736      -1.11488404      -0.31356545
H        3.31507168       0.08676152       0.46690825
H        1.57348785      -0.06422604      -1.04947850
H        1.80371397      -1.59595067      -0.18698368
H        0.16953643      -0.83923473       1.52455757
H       -0.38350481       1.44411980       1.58342172
H        0.19461374       1.69612500      -0.04954666
H       -1.17485507       0.69481702      -1.83830509
H       -2.63332575       1.47775324       0.26328661
H       -0.76573040      -0.21451065      -1.86450232
H       -1.06243792      -2.18778916      -0.30108275
17
Frame=8 idx=011646 GeodesicLength=0.719671534119612 rxn_smarts="[O:1]([C:2]([C@@:3]1([H:11])[C:4]([H:12])([H:13])[C:5]([H:14])([H:15])[O:6][C:7]1([H:16])[H:17])([H:9])[H:10])[H:8]>>[H:14][H:16].[O:1]([C:2]([C@@:3]1([H:11])[C:4]([H:12])([H:13])[C-:5]([H:15])[O+:6]=[C:7]1[H:17])([H:9])[H:10])[H:8]"
O        2.43113311       0.10198373       0.85131420
C        1.54853078      -0.53766056      -0.05320234
C        0.14804606      -0.41551577       0.50702818
C       -0.40157719       1.02720910       0.57298207
C       -1.78057122       0.87804625      -0.02041325
O       -2.05835982      -0.43401698      -0.07196446
C       -0.91086496      -1.10887046      -0.32935673
H        3.31624405       0.08421511       0.48609096
H        1.58451259      -0.06781580      -1.04391242
H        1.80905281      -1.59715219      -0.17598799
H        0.15871048      -0.83914824       1.52066976
H       -0.36547189       1.45320987       1.57463841
H        0.19280250       1.69011022      -0.06687651
H       -1.20722748       0.70741580      -1.85218756
H       -2.62973108       1.47207964       0.29267411
H       -0.78181157      -0.23149723      -1.87540881
H       -1.05341716      -2.18259251      -0.31608762
17
Frame=9 idx=011646 GeodesicLength=0.8096338971623968 rxn_smarts="[O:1]([C:2]([C@@:3]1([H:11])[C:4]([H:12])([H:13])[C:5]([H:14])([H:15])[O:6][C:7]1([H:16])[H:17])([H:9])[H:10])[H:8]>>[H:14][H:16].[O:1]([C:2]([C@@:3]1([H:11])[C:4]([H:12])([H:13])[C-:5]([H:15])[O+:6]=[C:7]1[H:17])([H:9])[H:10])[H:8]"
O        2.42894934       0.10381613       0.86247823
C        1.55287698      -0.53867635      -0.04631571
C        0.14866646      -0.41440852       0.50316346
C       -0.39821427       1.02780980       0.56855291
C       -1.78034686       0.88042815      -0.01847117
O       -2.05696441      -0.43607033      -0.06341245
C       -0.90529045      -1.10269673      -0.34506439
H        3.31731606       0.08158339       0.50549170
H        1.59565678      -0.07143295      -1.03818300
H        1.81429435      -1.59838594      -0.16485129
H        0.14793825      -0.83896563       1.51668627
H       -0.34728731       1.46230843       1.56548298
H        0.19090413       1.68391290      -0.08424856
H       -1.24099939       0.72125027      -1.86548698
H       -2.62551536       1.46608817       0.32174333
H       -0.79769606      -0.24932307      -1.88650092
H       -1.04428826      -2.17723773      -0.33106439
17
Frame=10 idx=011646 GeodesicLength=0.8996019293636719 rxn_smarts="[O:1]([C:2]([C@@:3]1([H:11])[C:4]([H:12])([H:13])[C:5]([H:14])([H:15])[O:6][C:7]1([H:16])[H:17])([H:9])[H:10])[H:8]>>[H:14][H:16].[O:1]([C:2]([C@@:3]1([H:11])[C:4]([H:12])([H:13])[C-:5]([H:15])[O+:6]=[C:7]1[H:17])([H:9])[H:10])[H:8]"
O        2.42671304       0.10565893       0.87371155
C        1.55723482      -0.53971802      -0.03931871
C        0.14935079      -0.41329456       0.49928707
C       -0.39478880       1.02843211       0.56404156
C       -1.78011630       0.88273640      -0.01638867
O       -2.05527108      -0.43822058      -0.05535319
C       -0.89965129      -1.09636816      -0.36070153
H        3.31828527       0.07886646       0.52512182
H        1.60692849      -0.07508390      -1.03228587
H        1.81944373      -1.59965660      -0.15356532
H        0.13721577      -0.83868404       1.51260530
H       -0.32895236       1.47142009       1.55593294
H        0.18892493       1.67753019      -0.10167779
H       -1.27628460       0.73646397      -1.87812310
H       -2.62069163       1.45977714       0.35051131
H       -0.81329225      -0.26812864      -1.89780627
H       -1.03504853      -2.17173079      -0.34599111
17
Frame=11 idx=011646 GeodesicLength=0.989576834022425 rxn_smarts="[O:1]([C:2]([C@@:3]1([H:11])[C:4]([H:12])([H:13])[C:5]([H:14])([H:15])[O:6][C:7]1([H:16])[H:17])([H:9])[H:10])[H:8]>>[H:14][H:16].[O:1]([C:2]([C@@:3]1([H:11])[C:4]([H:12])([H:13])[C-:5]([H:15])[O+:6]=[C:7]1[H:17])([H:9])[H:10])[H:8]"
O        2.42442223       0.10751160       0.88502152
C        1.56160730      -0.54078902      -0.03220539
C        0.15010011      -0.41217402       0.49539304
C       -0.39129161       1.02907725       0.55942867
C       -1.77986828       0.88497834      -0.01417431
O       -2.05329477      -0.44045628      -0.04784395
C       -0.89393443      -1.08989033      -0.37628195
H        3.31914640       0.07606735       0.54499469
H        1.61833496      -0.07877712      -1.02621472
H        1.82450402      -1.60096757      -0.14211872
H        0.12653797      -0.83829759       1.50842258
H       -0.31046368       1.48054889       1.54595955
H        0.18687107       1.67095591      -0.11918424
H       -1.31320363       0.75323944      -1.89000521
H       -2.61527062       1.45313496       0.37900272
H       -0.82850126      -0.28808637      -1.90935306
H       -1.02569577      -2.16607544      -0.36084121
17
Frame=12 idx=011646 GeodesicLength=1.079558946615583 rxn_smarts="[O:1]([C:2]([C@@:3]1([H:11])[C:4]([H:12])([H:13])[C:5]([H:14])([H:15])[O:6][C:7]1([H:16])[H:17])([H:9])[H:10])[H:8]>>[H:14][H:16].[O:1]([C:2]([C@@:3]1([H:11])[C:4]([H:12])([H:13])[C-:5]([H:15])[O+:6]=[C:7]1[H:17])([H:9])[H:10])[H:8]"
O        2.42207357       0.10937439       0.89641713
C        1.56599808      -0.54189391      -0.02496836
C        0.15091502      -0.41104693       0.49147367
C       -0.38771283       1.02974742       0.55468962
C       -1.77959259       0.88716092      -0.01183579
O       -2.05105136      -0.44276525      -0.04095017
C       -0.88812499      -1.08327024      -0.39182187
H        3.31989372       0.07318739       0.56512795
H        1.62988640      -0.08252383      -1.01996251
H        1.82947890      -1.60232384      -0.13049610
H        0.11589652      -0.83779855       1.50413273
H       -0.29181524       1.48970254       1.53552729
H        0.18474810       1.66418234      -0.13679636
H       -1.35190617       0.77179580      -1.90102286
H       -2.60925900       1.44614462       0.40724668
H       -0.84320229      -0.30939526      -1.92117616
H       -1.01622584      -2.16027763      -0.37558487
17
Frame=13 idx=011646 GeodesicLength=1.1695496153348124 rxn_smarts="[O:1]([C:2]([C@@:3]1([H:11])[C:4]([H:12])([H:13])[C:5]([H:14])([H:15])[O:6][C:7]1([H:16])[H:17])([H:9])[H:10])[H:8]>>[H:14][H:16].[O:1]([C:2]([C@@:3]1([H:11])[C:4]([H:12])([H:13])[C-:5]([H:15])[O+:6]=[C:7]1[H:17])([H:9])[H:10])[H:8]"
O        2.41966167       0.11124892       0.90790980
C        1.57041133      -0.54303829      -0.01759824
C        0.15179572      -0.40991288       0.48751862
C       -0.38404143       1.03044575       0.54979233
C       -1.77928001       0.88929046      -0.00938019
O       -2.04855728      -0.44513456      -0.03474886
C       -0.88220580      -1.07651639      -0.40734097
H        3.32052039       0.07022593       0.58554588
H        1.64159650      -0.08633880      -1.01352083
H        1.83437232      -1.60373167      -0.11867652
H        0.10527931      -0.83717616       1.49972826
H       -0.27299632       1.49889317       1.52459063
H        0.18256054       1.65719894      -0.15455406
H       -1.39257427       0.79239971      -1.91104102
H       -2.60265917       1.43878015       0.43528044
H       -0.85725082      -0.33228923      -1.93331725
H       -1.00663266      -2.15434506      -0.39018802
17
Frame=14 idx=011646 GeodesicLength=1.2595535781643008 rxn_smarts="[O:1]([C:2]([C@@:3]1([H:11])[C:4]([H:12])([H:13])[C:5]([H:14])([H:15])[O:6][C:7]1([H:16])[H:17])([H:9])[H:10])[H:8]>>[H:14][H:16].[O:1]([C:2]([C@@:3]1([H:11])[C:4]([H:12])([H:13])[C-:5]([H:15])[O+:6]=[C:7]1[H:17])([H:9])[H:10])[H:8]"
O        2.41717879       0.11313781       0.91951330
C        1.57485151      -0.54422954      -0.01008321
C        0.15274168      -0.40877148       0.48351482
C       -0.38026497       1.03117590       0.54469658
C       -1.77892170       0.89137296      -0.00681462
O       -2.04582996      -0.44754973      -0.02933294
C       -0.87615703      -1.06963955      -0.42286290
H        3.32101723       0.06718456       0.60627687
H        1.65348232      -0.09024177      -1.00687963
H        1.83918825      -1.60519934      -0.10663240
H        0.09466951      -0.83641682       1.49519934
H       -0.25399184       1.50813687       1.51309284
H        0.18031218       1.64999133      -0.17250905
H       -1.43542619       0.81537862      -1.91989114
H       -2.59546833       1.43100564       0.46314725
H       -0.87047262      -0.35704767      -1.94582579
H       -0.99690883      -2.14828779      -0.40460932
17
Frame=15 idx=011646 GeodesicLength=1.3495794174479114 rxn_smarts="[O:1]([C:2]([C@@:3]1([H:11])[C:4]([H:12])([H:13])[C:5]([H:14])([H:15])[O:6][C:7]1([H:16])[H:17])([H:9])[H:10])[H:8]>>[H:14][H:16].[O:1]([C:2]([C@@:3]1([H:11])[C:4]([H:12])([H:13])[C-:5]([H:15])[O+:6]=[C:7]1[H:17])([H:9])[H:10])[H:8]"
O        2.41461368       0.11504606       0.93124536
C        1.57932405      -0.54547659      -0.00240810
C        0.15375185      -0.40762171       0.47944462
C       -0.37636893       1.03194302       0.53934946
C       -1.77850987       0.89341344      -0.00414592
O       -2.04288733      -0.44999479      -0.02481542
C       -0.86995470      -1.06265280      -0.43841800
H        3.32137298       0.06406148       0.62736087
H        1.66556704      -0.09425797      -1.00002628
H        1.84393110      -1.60673694      -0.09432722
H        0.08404415      -0.83550205       1.49053218
H       -0.23477939       1.51745661       1.50095959
H        0.17800497       1.64253985      -0.19073210
H       -1.48073355       0.84113304      -1.92736061
H       -2.58767668       1.42277139       0.49090173
H       -0.88265540      -0.38400380      -1.95875959
H       -0.98704396      -2.14211825      -0.41880059
17
Frame=16 idx=011646 GeodesicLength=1.4396398205239058 rxn_smarts="[O:1]([C:2]([C@@:3]1([H:11])[C:4]([H:12])([H:13])[C:5]([H:14])([H:15])[O:6][C:7]1([H:16])[H:17])([H:9])[H:10])[H:8]>>[H:14][H:16].[O:1]([C:2]([C@@:3]1([H:11])[C:4]([H:12])([H:13])[C-:5]([H:15])[O+:6]=[C:7]1[H:17])([H:9])[H:10])[H:8]"
O        2.41195069       0.11698075       0.94312819
C        1.58383505      -0.54679087       0.00544625
C        0.15482416      -0.40646239       0.47528492
C       -0.37233630       1.03275343       0.53368321
C       -1.77803699       0.89541641      -0.00138210
O       -2.03974823      -0.45245098      -0.02133641
C       -0.86356989      -1.05557250      -0.45404514
H        3.32157234       0.06085727       0.64884730
H        1.67788043      -0.09842025      -0.99294509
H        1.84860536      -1.60835736      -0.08171336
H        0.07337222      -0.83440833       1.48570797
H       -0.21532915       1.52688268       1.48809552
H        0.17563924       1.63481790      -0.20931523
H       -1.52882464       0.87015578      -1.93317612
H       -2.57926629       1.41401061       0.51860804
H       -0.89354263      -0.41356013      -1.97218462
H       -0.97702537      -2.13585200      -0.43270333
