18
Frame=0 idx=008117 GeodesicLength=0.0 rxn_smarts="[C:1]([N:2]([C:3](=[O:4])[C:5]([C:6]([H:13])([H:14])[H:15])([C:7]([H:16])([H:17])[H:18])[H:12])[H:11])([H:8])([H:9])[H:10]>>[C:1]([N:2]([C:3]([O:4][H:12])=[C:5]([C:6]([H:13])([H:14])[H:15])[C:7]([H:16])([H:17])[H:18])[H:11])([H:8])([H:9])[H:10]"
C        2.71114430       0.64323011      -0.09083827
N        1.28067117       0.64118297       0.13388979
C        0.47580633      -0.35222278      -0.21101567
O        0.95169140      -1.45974672      -0.68684110
C       -0.96282892      -0.38340035      -0.26509172
C       -1.60559240      -1.24619794       0.81651527
C       -1.68641219       0.92710764      -0.47464460
H        3.25776614       0.36084708       0.81064110
H        3.03575829       1.63327099      -0.41180631
H        2.93506922      -0.08251924      -0.87007635
H        0.85480697       1.43329598       0.58281627
H       -0.20012441      -1.51414114      -1.02583545
H       -1.71777841      -0.70488088       1.76820637
H       -1.03511102      -2.15472937       1.01747038
H       -2.60649462      -1.55392400       0.50501781
H       -2.71710632       0.73974692      -0.78357978
H       -1.74784919       1.53834853       0.44110287
H       -1.22341628       1.53473226      -1.25593067
18
Frame=1 idx=008117 GeodesicLength=0.07552260173415012 rxn_smarts="[C:1]([N:2]([C:3](=[O:4])[C:5]([C:6]([H:13])([H:14])[H:15])([C:7]([H:16])([H:17])[H:18])[H:12])[H:11])([H:8])([H:9])[H:10]>>[C:1]([N:2]([C:3]([O:4][H:12])=[C:5]([C:6]([H:13])([H:14])[H:15])[C:7]([H:16])([H:17])[H:18])[H:11])([H:8])([H:9])[H:10]"
C        2.72271982       0.64460423      -0.09900011
N        1.29166557       0.65532369       0.11843672
C        0.47835540      -0.34794900      -0.18237880
O        0.95754233      -1.46338067      -0.63605213
C       -0.95874230      -0.37814004      -0.25450283
C       -1.62295273      -1.26407223       0.79514984
C       -1.68636426       0.93274759      -0.44627273
H        3.26489625       0.44291368       0.82655878
H        3.04619759       1.60507007      -0.50186119
H        2.96139168      -0.14109217      -0.81274268
H        0.87091985       1.47706575       0.51538768
H       -0.20113538      -1.50471891      -1.02464678
H       -1.74455254      -0.74539601       1.75753587
H       -1.06661256      -2.18392257       0.98384116
H       -2.62017652      -1.56175202       0.46227554
H       -2.71508852       0.75012259      -0.76469579
H       -1.75211407       1.52690654       0.47968648
H       -1.22594959       1.55566947      -1.21671903
18
Frame=2 idx=008117 GeodesicLength=0.15037553491941408 rxn_smarts="[C:1]([N:2]([C:3](=[O:4])[C:5]([C:6]([H:13])([H:14])[H:15])([C:7]([H:16])([H:17])[H:18])[H:12])[H:11])([H:8])([H:9])[H:10]>>[C:1]([N:2]([C:3]([O:4][H:12])=[C:5]([C:6]([H:13])([H:14])[H:15])[C:7]([H:16])([H:17])[H:18])[H:11])([H:8])([H:9])[H:10]"
C        2.73414381       0.64508326      -0.10556173
N        1.30200050       0.66976273       0.10011770
C        0.48053616      -0.34232868      -0.15403823
O        0.96283126      -1.46500382      -0.58629369
C       -0.95492116      -0.37258685      -0.24390809
C       -1.63902980      -1.28168280       0.77288948
C       -1.68714643       0.93838592      -0.41635321
H        3.26911309       0.53010379       0.83884785
H        3.05855373       1.56668469      -0.59101121
H        2.98799617      -0.19805868      -0.74427479
H        0.88642356       1.51887538       0.44021535
H       -0.20165698      -1.49384920      -1.02431676
H       -1.76987545      -0.78653342       1.74570840
H       -1.09600135      -2.21214667       0.94777497
H       -2.63231175      -1.56912348       0.41937159
H       -2.71448116       0.76083087      -0.74225210
H       -1.75519034       1.51514319       0.51972041
H       -1.23098386       1.57644378      -1.17663595
18
Frame=3 idx=008117 GeodesicLength=0.22460322590885262 rxn_smarts="[C:1]([N:2]([C:3](=[O:4])[C:5]([C:6]([H:13])([H:14])[H:15])([C:7]([H:16])([H:17])[H:18])[H:12])[H:11])([H:8])([H:9])[H:10]>>[C:1]([N:2]([C:3]([O:4][H:12])=[C:5]([C:6]([H:13])([H:14])[H:15])[C:7]([H:16])([H:17])[H:18])[H:11])([H:8])([H:9])[H:10]"
C        2.74480955       0.64614800      -0.11314077
N        1.31216694       0.68267997       0.08437163
C        0.48286933      -0.33668070      -0.12184252
O        0.96850524      -1.46613024      -0.53256739
C       -0.95063866      -0.36718605      -0.23250951
C       -1.65582860      -1.29911307       0.74891748
C       -1.68677171       0.94407604      -0.38538202
H        3.27527565       0.62266063       0.84049685
H        3.06783050       1.52038222      -0.68098912
H        3.01207644      -0.24911756      -0.66994310
H        0.90159265       1.55574994       0.36384679
H       -0.19986823      -1.48241469      -1.02232821
H       -1.79760467      -0.82843462       1.73162545
H       -1.12616662      -2.23980015       0.90952158
H       -2.64430585      -1.57542307       0.37328581
H       -2.71269108       0.77260016      -0.71910175
H       -1.75685436       1.50294376       0.56068636
H       -1.23439651       1.59705945      -1.13494756
18
Frame=4 idx=008117 GeodesicLength=0.29839591469564347 rxn_smarts="[C:1]([N:2]([C:3](=[O:4])[C:5]([C:6]([H:13])([H:14])[H:15])([C:7]([H:16])([H:17])[H:18])[H:12])[H:11])([H:8])([H:9])[H:10]>>[C:1]([N:2]([C:3]([O:4][H:12])=[C:5]([C:6]([H:13])([H:14])[H:15])[C:7]([H:16])([H:17])[H:18])[H:11])([H:8])([H:9])[H:10]"
C        2.75526865       0.64612345      -0.11824161
N        1.32140857       0.69612383       0.06428820
C        0.48467034      -0.32912967      -0.09103208
O        0.97350252      -1.46482219      -0.48078946
C       -0.94678834      -0.36126018      -0.22143659
C       -1.67068180      -1.31618069       0.72399195
C       -1.68763890       0.94985554      -0.35232558
H        3.27720200       0.71951096       0.83755149
H        3.08079331       1.46127338      -0.76735695
H        3.03583541      -0.29666840      -0.58190906
H        0.91595681       1.59007234       0.27620569
H       -0.19791952      -1.46914995      -1.02185334
H       -1.82268496      -0.87107217       1.71636752
H       -1.15321771      -2.26625104       0.86832805
H       -2.65425914      -1.58121542       0.32751869
H       -2.71297972       0.78462807      -0.69113309
H       -1.75715213       1.49028619       0.60379812
H       -1.24131539       1.61787595      -1.09197193
18
Frame=5 idx=008117 GeodesicLength=0.3714704467612338 rxn_smarts="[C:1]([N:2]([C:3](=[O:4])[C:5]([C:6]([H:13])([H:14])[H:15])([C:7]([H:16])([H:17])[H:18])[H:12])[H:11])([H:8])([H:9])[H:10]>>[C:1]([N:2]([C:3]([O:4][H:12])=[C:5]([C:6]([H:13])([H:14])[H:15])[C:7]([H:16])([H:17])[H:18])[H:11])([H:8])([H:9])[H:10]"
C        2.76485325       0.64630364      -0.12322995
N        1.32998712       0.70857904       0.04490042
C        0.48633275      -0.32074432      -0.05847367
O        0.97867382      -1.46236405      -0.42663681
C       -0.94275843      -0.35531265      -0.21025893
C       -1.68505150      -1.33261328       0.69774204
C       -1.68807964       0.95558230      -0.31826997
H        3.27912158       0.81815845       0.82404117
H        3.09279379       1.39296423      -0.84947324
H        3.05657767      -0.33576519      -0.48752098
H        0.92948950       1.61853899       0.18475883
H       -0.19421544      -1.45530380      -1.02045481
H       -1.84799059      -0.91375421       1.69910615
H       -1.17923268      -2.29135605       0.82509320
H       -2.66316618      -1.58580430       0.28017226
H       -2.71303641       0.79714723      -0.66165004
H       -1.75628410       1.47708545       0.64777240
H       -1.24801452       1.63865854      -1.04761807
18
Frame=6 idx=008117 GeodesicLength=0.44366891546917187 rxn_smarts="[C:1]([N:2]([C:3](=[O:4])[C:5]([C:6]([H:13])([H:14])[H:15])([C:7]([H:16])([H:17])[H:18])[H:12])[H:11])([H:8])([H:9])[H:10]>>[C:1]([N:2]([C:3]([O:4][H:12])=[C:5]([C:6]([H:13])([H:14])[H:15])[C:7]([H:16])([H:17])[H:18])[H:11])([H:8])([H:9])[H:10]"
C        2.77326192       0.64692647      -0.12924471
N        1.33790822       0.71966911       0.02845773
C        0.48792445      -0.31176367      -0.02325084
O        0.98427493      -1.45912348      -0.36828110
C       -0.93829627      -0.34951826      -0.19897774
C       -1.69919811      -1.34803272       0.67021436
C       -1.68762437       0.96110443      -0.28414891
H        3.28264620       0.91559749       0.79792322
H        3.10138908       1.31807209      -0.92614533
H        3.07376726      -0.36437498      -0.39197380
H        0.94194889       1.63967062       0.09472037
H       -0.18808065      -1.44160652      -1.01701305
H       -1.87428213      -0.95563034       1.67956098
H       -1.20453084      -2.31468278       0.78058920
H       -2.67108002      -1.58881740       0.23094911
H       -2.71194913       0.80991536      -0.63283220
H       -1.75510337       1.46324932       0.69152845
H       -1.25297605       1.65934525      -1.00207572
18
Frame=7 idx=008117 GeodesicLength=0.5152687939221599 rxn_smarts="[C:1]([N:2]([C:3](=[O:4])[C:5]([C:6]([H:13])([H:14])[H:15])([C:7]([H:16])([H:17])[H:18])[H:12])[H:11])([H:8])([H:9])[H:10]>>[C:1]([N:2]([C:3]([O:4][H:12])=[C:5]([C:6]([H:13])([H:14])[H:15])[C:7]([H:16])([H:17])[H:18])[H:11])([H:8])([H:9])[H:10]"
C        2.78072422       0.64741630      -0.13490698
N        1.34487839       0.73024454       0.01174758
C        0.48914998      -0.30139659       0.01237676
O        0.98976409      -1.45430928      -0.30801758
C       -0.93378331      -0.34354795      -0.18808806
C       -1.71207230      -1.36238508       0.64179123
C       -1.68721640       0.96648372      -0.24946017
H        3.28527033       1.01031143       0.76231281
H        3.10976032       1.23562737      -0.99487578
H        3.08797644      -0.38334627      -0.29324193
H        0.95325335       1.65421816       0.00147885
H       -0.18052822      -1.42759520      -1.01285474
H       -1.89941053      -0.99674334       1.65831376
H       -1.22758970      -2.33603839       0.73458965
H       -2.67734265      -1.59049804       0.18135576
H       -2.71099013       0.82265197      -0.60303055
H       -1.75369568       1.44868057       0.73568836
H       -1.25814819       1.68022609      -0.95517897
18
Frame=8 idx=008117 GeodesicLength=0.5865765090157327 rxn_smarts="[C:1]([N:2]([C:3](=[O:4])[C:5]([C:6]([H:13])([H:14])[H:15])([C:7]([H:16])([H:17])[H:18])[H:12])[H:11])([H:8])([H:9])[H:10]>>[C:1]([N:2]([C:3]([O:4][H:12])=[C:5]([C:6]([H:13])([H:14])[H:15])[C:7]([H:16])([H:17])[H:18])[H:11])([H:8])([H:9])[H:10]"
C        2.78719530       0.64777645      -0.14039183
N        1.35089261       0.74028731      -0.00498136
C        0.48999543      -0.28958113       0.04856269
O        0.99507097      -1.44784275      -0.24542902
C       -0.92916163      -0.33731245      -0.17759686
C       -1.72370278      -1.37567587       0.61230949
C       -1.68678123       0.97177796      -0.21406132
H        3.28719769       1.10193210       0.71689745
H        3.11745421       1.14594966      -1.05536206
H        3.09928858      -0.39233890      -0.19196526
H        0.96335630       1.66148125      -0.09503906
H       -0.17145348      -1.41324943      -1.00789198
H       -1.92353849      -1.03720814       1.63519924
H       -1.24838940      -2.35542059       0.68695414
H       -2.68192543      -1.59080189       0.13105709
H       -2.70997007       0.83547102      -0.57246015
H       -1.75236122       1.43314607       0.78047630
H       -1.26316735       1.70160933      -0.90627749
18
Frame=9 idx=008117 GeodesicLength=0.6576246374805006 rxn_smarts="[C:1]([N:2]([C:3](=[O:4])[C:5]([C:6]([H:13])([H:14])[H:15])([C:7]([H:16])([H:17])[H:18])[H:12])[H:11])([H:8])([H:9])[H:10]>>[C:1]([N:2]([C:3]([O:4][H:12])=[C:5]([C:6]([H:13])([H:14])[H:15])[C:7]([H:16])([H:17])[H:18])[H:11])([H:8])([H:9])[H:10]"
C        2.79267172       0.64795272      -0.14558336
N        1.35580108       0.74974889      -0.02265920
C        0.49038628      -0.27632081       0.08440783
O        1.00000887      -1.43965224      -0.18139261
C       -0.92454020      -0.33080045      -0.16780461
C       -1.73380545      -1.38771046       0.58215638
C       -1.68641682       0.97695038      -0.17825975
H        3.28785779       1.18889113       0.66276674
H        3.12507768       1.05043567      -1.10613858
H        3.10776069      -0.39110977      -0.08968402
H        0.97204187       1.66090782      -0.19366803
H       -0.16140064      -1.39882550      -1.00250963
H       -1.94589794      -1.07655693       1.61060422
H       -1.26649988      -2.37258353       0.63815472
H       -2.68480246      -1.58963988       0.08096727
H       -2.70891424       0.84824102      -0.54158688
H       -1.75143454       1.41653053       0.82555986
H       -1.26789380       1.72354142      -0.85533036
18
Frame=10 idx=008117 GeodesicLength=0.7285087691887765 rxn_smarts="[C:1]([N:2]([C:3](=[O:4])[C:5]([C:6]([H:13])([H:14])[H:15])([C:7]([H:16])([H:17])[H:18])[H:12])[H:11])([H:8])([H:9])[H:10]>>[C:1]([N:2]([C:3]([O:4][H:12])=[C:5]([C:6]([H:13])([H:14])[H:15])[C:7]([H:16])([H:17])[H:18])[H:11])([H:8])([H:9])[H:10]"
C        2.79670274       0.64814497      -0.15449751
N        1.36032066       0.75850644      -0.03293733
C        0.49058061      -0.26167427       0.12546365
O        1.00513647      -1.42990945      -0.10813523
C       -0.91880646      -0.32416494      -0.15723516
C       -1.74359358      -1.39830484       0.55072370
C       -1.68532003       0.98160126      -0.14447747
H        3.29382250       1.26637608       0.59494841
H        3.12344692       0.95501596      -1.15183366
H        3.11380870      -0.38011848       0.00067231
H        0.97938346       1.65366776      -0.27810353
H       -0.14708396      -1.38492208      -0.99253916
H       -1.97093203      -1.11395547       1.58302496
H       -1.28320837      -2.38729437       0.58965969
H       -2.68555982      -1.58718250       0.02759637
H       -2.70529556       0.86007205      -0.51741198
H       -1.75483100       1.39869531       0.86802443
H       -1.26857125       1.74544657      -0.80294250
18
Frame=11 idx=008117 GeodesicLength=0.7995255491543443 rxn_smarts="[C:1]([N:2]([C:3](=[O:4])[C:5]([C:6]([H:13])([H:14])[H:15])([C:7]([H:16])([H:17])[H:18])[H:12])[H:11])([H:8])([H:9])[H:10]>>[C:1]([N:2]([C:3]([O:4][H:12])=[C:5]([C:6]([H:13])([H:14])[H:15])[C:7]([H:16])([H:17])[H:18])[H:11])([H:8])([H:9])[H:10]"
C        2.79992329       0.64759885      -0.16162624
N        1.36349886       0.76680117      -0.04823799
C        0.49009507      -0.24531022       0.16309979
O        1.00911981      -1.41785052      -0.03733895
C       -0.91355752      -0.31696727      -0.14800298
C       -1.75095140      -1.40762245       0.51928286
C       -1.68489152       0.98632179      -0.10958861
H        3.29512661       1.33844878       0.52275285
H        3.12568660       0.85413718      -1.18501660
H        3.11758210      -0.36016814       0.09438436
H        0.98525526       1.63856358      -0.36980345
H       -0.13378384      -1.37058865      -0.98428171
H       -1.99177725      -1.15025997       1.55495403
H       -1.29592739      -2.39969179       0.54006009
H       -2.68444499      -1.58336983      -0.02349105
H       -2.70263448       0.87219732      -0.49100545
H       -1.75809225       1.37957491       0.91159403
H       -1.27022696       1.76818527      -0.74773499
18
Frame=12 idx=008117 GeodesicLength=0.8708479539371972 rxn_smarts="[C:1]([N:2]([C:3](=[O:4])[C:5]([C:6]([H:13])([H:14])[H:15])([C:7]([H:16])([H:17])[H:18])[H:12])[H:11])([H:8])([H:9])[H:10]>>[C:1]([N:2]([C:3]([O:4][H:12])=[C:5]([C:6]([H:13])([H:14])[H:15])[C:7]([H:16])([H:17])[H:18])[H:11])([H:8])([H:9])[H:10]"
C        2.80194638       0.64644046      -0.17073773
N        1.36594140       0.77505318      -0.06040713
C        0.48905924      -0.22682795       0.20248916
O        1.01240139      -1.40309298       0.03811673
C       -0.90780266      -0.30920866      -0.13864964
C       -1.75672080      -1.41563001       0.48726164
C       -1.68480040       0.99069966      -0.07598218
H        3.29882679       1.40051319       0.44174504
H        3.12293565       0.75188854      -1.21115617
H        3.11927954      -0.33250532       0.18018719
H        0.98975509       1.61833137      -0.45261759
H       -0.11831487      -1.35584082      -0.97408168
H       -2.01230716      -1.18491239       1.52502456
H       -1.30529323      -2.40960726       0.49076836
H       -2.68064205      -1.57879384      -0.07565803
H       -2.69891369       0.88346154      -0.46897459
H       -1.76531098       1.35907610       0.95334824
H       -1.27003963       1.79095519      -0.69067619
18
Frame=13 idx=008117 GeodesicLength=0.9424496734817465 rxn_smarts="[C:1]([N:2]([C:3](=[O:4])[C:5]([C:6]([H:13])([H:14])[H:15])([C:7]([H:16])([H:17])[H:18])[H:12])[H:11])([H:8])([H:9])[H:10]>>[C:1]([N:2]([C:3]([O:4][H:12])=[C:5]([C:6]([H:13])([H:14])[H:15])[C:7]([H:16])([H:17])[H:18])[H:11])([H:8])([H:9])[H:10]"
C        2.80299541       0.64418781      -0.18039054
N        1.36757454       0.78272554      -0.07227610
C        0.48748847      -0.20684048       0.24119614
O        1.01469956      -1.38595706       0.11434151
C       -0.90190928      -0.30099291      -0.12969440
C       -1.76052533      -1.42228199       0.45544031
C       -1.68510640       0.99483032      -0.04337228
H        3.30169009       1.45325068       0.35550448
H        3.11812700       0.64981979      -1.22814895
H        3.11984535      -0.29817298       0.25993146
H        0.99268089       1.59291810      -0.53009647
H       -0.10261471      -1.34083370      -0.96384559
H       -2.03090215      -1.21758426       1.49426749
H       -1.31096847      -2.41708159       0.44221562
H       -2.67456899      -1.57331783      -0.12684646
H       -2.69471610       0.89433226      -0.44954805
H       -1.77494192       1.33753706       0.99349745
H       -1.26884797       1.81346125      -0.63217564
18
Frame=14 idx=008117 GeodesicLength=1.0142853858941474 rxn_smarts="[C:1]([N:2]([C:3](=[O:4])[C:5]([C:6]([H:13])([H:14])[H:15])([C:7]([H:16])([H:17])[H:18])[H:12])[H:11])([H:8])([H:9])[H:10]>>[C:1]([N:2]([C:3]([O:4][H:12])=[C:5]([C:6]([H:13])([H:14])[H:15])[C:7]([H:16])([H:17])[H:18])[H:11])([H:8])([H:9])[H:10]"
C        2.80313478       0.64073720      -0.19091388
N        1.36857091       0.79009168      -0.08314598
C        0.48532540      -0.18514164       0.27924421
O        1.01586897      -1.36616335       0.19148721
C       -0.89589670      -0.29229865      -0.12103340
C       -1.76227545      -1.42768275       0.42419073
C       -1.68611461       0.99862918      -0.01240996
H        3.30484366       1.49498961       0.26602607
H        3.11067667       0.54984613      -1.23723129
H        3.11929300      -0.25924219       0.33115752
H        0.99431791       1.56461564      -0.59963280
H       -0.08672911      -1.32538417      -0.95363799
H       -2.04752104      -1.24811208       1.46303989
H       -1.31270572      -2.42221296       0.39524337
H       -2.66606259      -1.56747694      -0.17679174
H       -2.69021277       0.90440426      -0.43348292
H       -1.78750320       1.31522841       1.03115702
H       -1.26701010       1.83517265      -0.57326606
18
Frame=15 idx=008117 GeodesicLength=1.0869237320300085 rxn_smarts="[C:1]([N:2]([C:3](=[O:4])[C:5]([C:6]([H:13])([H:14])[H:15])([C:7]([H:16])([H:17])[H:18])[H:12])[H:11])([H:8])([H:9])[H:10]>>[C:1]([N:2]([C:3]([O:4][H:12])=[C:5]([C:6]([H:13])([H:14])[H:15])[C:7]([H:16])([H:17])[H:18])[H:11])([H:8])([H:9])[H:10]"
C        2.80237169       0.63583042      -0.20197033
N        1.36899182       0.79744675      -0.09291130
C        0.48259112      -0.16163857       0.31661007
O        1.01592465      -1.34345707       0.26898420
C       -0.88974549      -0.28293994      -0.11259675
C       -1.76187915      -1.43205873       0.39308750
C       -1.68789309       1.00220790       0.01752582
H        3.30816573       1.52719600       0.17172804
H        3.10019137       0.44914530      -1.23858067
H        3.11790242      -0.21543025       0.39674535
H        0.99477401       1.53409137      -0.66233371
H       -0.07072160      -1.30879667      -0.94410369
H       -2.06207828      -1.27721161       1.43104686
H       -1.31038018      -2.42523569       0.34901455
H       -2.65501159      -1.56131295      -0.22607548
H       -2.68557655       0.91399077      -0.41975111
H       -1.80259744       1.29199480       1.06698160
H       -1.26502945       1.85617818      -0.51340097
18
Frame=16 idx=008117 GeodesicLength=1.1599672756111346 rxn_smarts="[C:1]([N:2]([C:3](=[O:4])[C:5]([C:6]([H:13])([H:14])[H:15])([C:7]([H:16])([H:17])[H:18])[H:12])[H:11])([H:8])([H:9])[H:10]>>[C:1]([N:2]([C:3]([O:4][H:12])=[C:5]([C:6]([H:13])([H:14])[H:15])[C:7]([H:16])([H:17])[H:18])[H:11])([H:8])([H:9])[H:10]"
C        2.80083111       0.62940775      -0.21323967
N        1.36895802       0.80461603      -0.10188540
C        0.47931502      -0.13672916       0.35253437
O        1.01481365      -1.31816642       0.34554350
C       -0.88359265      -0.27309216      -0.10453906
C       -1.75932954      -1.43542690       0.36285642
C       -1.69048666       1.00548207       0.04588183
H        3.31122687       1.54891525       0.07618561
H        3.08738511       0.35091466      -1.23251410
H        3.11596332      -0.16881348       0.45488965
H        0.99424593       1.50274362      -0.71781989
H       -0.05538339      -1.29121239      -0.93599196
H       -2.07407796      -1.30442983       1.39913101
H       -1.30410881      -2.42625169       0.30456157
H       -2.64174692      -1.55508420      -0.27351499
H       -2.68106096       0.92285450      -0.40825783
H       -1.81958614       1.26838935       1.10023526
H       -1.26336602       1.87588299      -0.45405633
