15
Frame=0 idx=007233 GeodesicLength=0.0 rxn_smarts="[C:1]([n:2]1[c:3]([H:11])[n:4][c:5]([C:6]([H:12])([H:13])[H:14])[c:7]1[H:15])([H:8])([H:9])[H:10]>>[C:1]([N:2]1[C:3]([H:11])=[N:4][C:5](=[C:6]([H:12])[H:14])[C:7]1([H:13])[H:15])([H:8])([H:9])[H:10]"
C       -2.20682934      -0.28636918      -0.43212259
N       -0.87500806      -0.16313934       0.10156677
C       -0.49082764      -0.37252339       1.38306962
N        0.75875221      -0.09047834       1.66348240
C        1.26709092       0.26316498       0.44367368
C        2.53217879       0.25487223      -0.18754475
C        0.25494822       0.41148229      -0.54037418
H       -2.22228420      -0.97324106      -1.27937313
H       -2.87438674      -0.66990496       0.33888696
H       -2.58323288       0.68450282      -0.76465029
H       -1.18689812      -0.79312322       2.09970843
H        2.72555139      -0.60948075      -0.81197867
H        1.41169538       0.30711830      -1.33534456
H        3.42558020       0.64516580       0.29401701
H        0.06366991       1.39195382      -0.97301666
15
Frame=1 idx=007233 GeodesicLength=0.04525610598042832 rxn_smarts="[C:1]([n:2]1[c:3]([H:11])[n:4][c:5]([C:6]([H:12])([H:13])[H:14])[c:7]1[H:15])([H:8])([H:9])[H:10]>>[C:1]([N:2]1[C:3]([H:11])=[N:4][C:5](=[C:6]([H:12])[H:14])[C:7]1([H:13])[H:15])([H:8])([H:9])[H:10]"
C       -2.21170134      -0.27546217      -0.42768871
N       -0.87567362      -0.16897613       0.09909088
C       -0.48917694      -0.38285796       1.37924382
N        0.76094274      -0.10549266       1.65636108
C        1.26612447       0.27577491       0.44251636
C        2.53249005       0.25770130      -0.18516248
C        0.25266610       0.40378087      -0.54582430
H       -2.23572847      -0.94597293      -1.28778918
H       -2.87601534      -0.67098002       0.34004514
H       -2.58696435       0.70297736      -0.73893931
H       -1.18330883      -0.80745809       2.09537346
H        2.75558611      -0.62281363      -0.77586871
H        1.42098054       0.27095424      -1.34545225
H        3.41162247       0.69094710       0.28558481
H        0.05815640       1.37787779      -0.99149062
15
Frame=2 idx=007233 GeodesicLength=0.09046074817605493 rxn_smarts="[C:1]([n:2]1[c:3]([H:11])[n:4][c:5]([C:6]([H:12])([H:13])[H:14])[c:7]1[H:15])([H:8])([H:9])[H:10]>>[C:1]([N:2]1[C:3]([H:11])=[N:4][C:5](=[C:6]([H:12])[H:14])[C:7]1([H:13])[H:15])([H:8])([H:9])[H:10]"
C       -2.21642282      -0.26464912      -0.42328254
N       -0.87640753      -0.17497005       0.09648823
C       -0.48757375      -0.39339767       1.37527613
N        0.76321080      -0.12092518       1.64874276
C        1.26493716       0.28738024       0.44111139
C        2.53268429       0.26043035      -0.18277493
C        0.25034787       0.39608598      -0.55125367
H       -2.24898480      -0.91872067      -1.29570983
H       -2.87775436      -0.67175230       0.34094252
H       -2.59007264       0.72095996      -0.71344940
H       -1.18015617      -0.82067355       2.09126869
H        2.78630737      -0.63384960      -0.73915153
H        1.43063702       0.23464733      -1.35454427
H        3.39659317       0.73545527       0.27546875
H        0.05265440       1.36397902      -1.00913230
15
Frame=3 idx=007233 GeodesicLength=0.13559402811283197 rxn_smarts="[C:1]([n:2]1[c:3]([H:11])[n:4][c:5]([C:6]([H:12])([H:13])[H:14])[c:7]1[H:15])([H:8])([H:9])[H:10]>>[C:1]([N:2]1[C:3]([H:11])=[N:4][C:5](=[C:6]([H:12])[H:14])[C:7]1([H:13])[H:15])([H:8])([H:9])[H:10]"
C       -2.22090520      -0.25418769      -0.41901472
N       -0.87719671      -0.18101966       0.09381670
C       -0.48602735      -0.40405039       1.37124036
N        0.76558804      -0.13686502       1.64068051
C        1.26360299       0.29796014       0.43952161
C        2.53276143       0.26286067      -0.18050005
C        0.24794632       0.38873270      -0.55652145
H       -2.26168922      -0.89184771      -1.30320533
H       -2.87951257      -0.67255603       0.34145099
H       -2.59268398       0.73809107      -0.68844855
H       -1.17767296      -0.83198547       2.08769449
H        2.81739805      -0.64256742      -0.70234383
H        1.44053496       0.19882800      -1.36269012
H        3.38080792       0.77783316       0.26380960
H        0.04704827       1.35077365      -1.02549020
15
Frame=4 idx=007233 GeodesicLength=0.18060111585823926 rxn_smarts="[C:1]([n:2]1[c:3]([H:11])[n:4][c:5]([C:6]([H:12])([H:13])[H:14])[c:7]1[H:15])([H:8])([H:9])[H:10]>>[C:1]([N:2]1[C:3]([H:11])=[N:4][C:5](=[C:6]([H:12])[H:14])[C:7]1([H:13])[H:15])([H:8])([H:9])[H:10]"
C       -2.22499609      -0.24436314      -0.41500977
N       -0.87798014      -0.18707204       0.09112716
C       -0.48450259      -0.41485754       1.36715162
N        0.76816569      -0.15368121       1.63214860
C        1.26224032       0.30732934       0.43779846
C        2.53274642       0.26468663      -0.17847660
C        0.24544946       0.38205592      -0.56144129
H       -2.27340920      -0.86570270      -1.31040146
H       -2.88112529      -0.67380493       0.34139631
H       -2.59485652       0.75401287      -0.66415136
H       -1.17619901      -0.84010132       2.08507961
H        2.84834949      -0.64935934      -0.66618300
H        1.45054289       0.16419000      -1.37005501
H        3.36426981       0.81782202       0.25092620
H        0.04130474       1.33884543      -1.03990949
15
Frame=5 idx=007233 GeodesicLength=0.22554009873258257 rxn_smarts="[C:1]([n:2]1[c:3]([H:11])[n:4][c:5]([C:6]([H:12])([H:13])[H:14])[c:7]1[H:15])([H:8])([H:9])[H:10]>>[C:1]([N:2]1[C:3]([H:11])=[N:4][C:5](=[C:6]([H:12])[H:14])[C:7]1([H:13])[H:15])([H:8])([H:9])[H:10]"
C       -2.22886497      -0.23488587      -0.41114942
N       -0.87881551      -0.19303383       0.08839787
C       -0.48304981      -0.42558486       1.36303056
N        0.77071961      -0.17043551       1.62333636
C        1.26078666       0.31592536       0.43596973
C        2.53262878       0.26606090      -0.17657004
C        0.24284805       0.37587826      -0.56619292
H       -2.28452628      -0.83999834      -1.31720687
H       -2.88271925      -0.67513738       0.34098161
H       -2.59670263       0.76908643      -0.64038677
H       -1.17507149      -0.84703248       2.08280328
H        2.87941487      -0.65421174      -0.62991878
H        1.46071174       0.13007704      -1.37666120
H        3.34722230       0.85548136       0.23669296
H        0.03541792       1.32781065      -1.05312637
15
Frame=6 idx=007233 GeodesicLength=0.2704646853019135 rxn_smarts="[C:1]([n:2]1[c:3]([H:11])[n:4][c:5]([C:6]([H:12])([H:13])[H:14])[c:7]1[H:15])([H:8])([H:9])[H:10]>>[C:1]([N:2]1[C:3]([H:11])=[N:4][C:5](=[C:6]([H:12])[H:14])[C:7]1([H:13])[H:15])([H:8])([H:9])[H:10]"
C       -2.23259322      -0.22553782      -0.40733591
N       -0.87969584      -0.19904992       0.08554502
C       -0.48160932      -0.43653548       1.35874090
N        0.77313577      -0.18683599       1.61429688
C        1.25921750       0.32384913       0.43401592
C        2.53243704       0.26707774      -0.17469220
C        0.24018338       0.36991098      -0.57092450
H       -2.29537247      -0.81431100      -1.32367029
H       -2.88434824      -0.67639034       0.34030860
H       -2.59816606       0.78366823      -0.61676932
H       -1.17410303      -0.85338475       2.08064792
H        2.91080068      -0.65714177      -0.59315722
H        1.47116262       0.09597357      -1.38252135
H        3.32949373       0.89144036       0.22109489
H        0.02945745       1.31726706      -1.06557933
15
Frame=7 idx=007233 GeodesicLength=0.315408643952115 rxn_smarts="[C:1]([n:2]1[c:3]([H:11])[n:4][c:5]([C:6]([H:12])([H:13])[H:14])[c:7]1[H:15])([H:8])([H:9])[H:10]>>[C:1]([N:2]1[C:3]([H:11])=[N:4][C:5](=[C:6]([H:12])[H:14])[C:7]1([H:13])[H:15])([H:8])([H:9])[H:10]"
C       -2.23626256      -0.21610688      -0.40347781
N       -0.88063207      -0.20518410       0.08250760
C       -0.48014833      -0.44784566       1.35419778
N        0.77533212      -0.20254327       1.60512024
C        1.25750409       0.33127108       0.43190869
C        2.53219532       0.26784998      -0.17277077
C        0.23748329       0.36392438      -0.57577797
H       -2.30624446      -0.78830805      -1.32977522
H       -2.88608298      -0.67734960       0.33949160
H       -2.59920196       0.79806232      -0.59303096
H       -1.17304949      -0.86001701       2.07831616
H        2.94262697      -0.65808512      -0.55544994
H        1.48199910       0.06138762      -1.38759058
H        3.31100998       0.92609534       0.20405846
H        0.02347097       1.30684898      -1.07772727
15
Frame=8 idx=007233 GeodesicLength=0.360415012401196 rxn_smarts="[C:1]([n:2]1[c:3]([H:11])[n:4][c:5]([C:6]([H:12])([H:13])[H:14])[c:7]1[H:15])([H:8])([H:9])[H:10]>>[C:1]([N:2]1[C:3]([H:11])=[N:4][C:5](=[C:6]([H:12])[H:14])[C:7]1([H:13])[H:15])([H:8])([H:9])[H:10]"
C       -2.23990248      -0.20641644      -0.39948946
N       -0.88161900      -0.21152811       0.07922138
C       -0.47862500      -0.45970057       1.34928948
N        0.77723006      -0.21734868       1.59585024
C        1.25559447       0.33828816       0.42960981
C        2.53189212       0.26846618      -0.17075329
C        0.23476972       0.35768796      -0.58087188
H       -2.31733015      -0.76165896      -1.33549963
H       -2.88794467      -0.67785327       0.33860354
H       -2.59972640       0.81251650      -0.56889305
H       -1.17176389      -0.86744498       2.07558999
H        2.97498887      -0.65688561      -0.51645382
H        1.49334456       0.02593945      -1.39179219
H        3.29162333       0.95973507       0.18550202
H        0.01746846       1.29620329      -1.08991315
15
Frame=9 idx=007233 GeodesicLength=0.40533855861313695 rxn_smarts="[C:1]([n:2]1[c:3]([H:11])[n:4][c:5]([C:6]([H:12])([H:13])[H:14])[c:7]1[H:15])([H:8])([H:9])[H:10]>>[C:1]([N:2]1[C:3]([H:11])=[N:4][C:5](=[C:6]([H:12])[H:14])[C:7]1([H:13])[H:15])([H:8])([H:9])[H:10]"
C       -2.24339751      -0.19677780      -0.39550589
N       -0.88263923      -0.21792663       0.07577232
C       -0.47709376      -0.47185322       1.34412593
N        0.77893647      -0.23157354       1.58650037
C        1.25357792       0.34485634       0.42717561
C        2.53151861       0.26867868      -0.16873690
C        0.23200483       0.35163056      -0.58599773
H       -2.32821130      -0.73484706      -1.34088868
H       -2.88982546      -0.67826373       0.33748295
H       -2.59983857       0.82657869      -0.54472518
H       -1.17051063      -0.87476470       2.07276085
H        3.00742419      -0.65362309      -0.47671329
H        1.50498754      -0.00968609      -1.39518544
H        3.27165732       0.99159838       0.16547462
H        0.01140958       1.28597322      -1.10153954
15
Frame=10 idx=007233 GeodesicLength=0.4503700751493521 rxn_smarts="[C:1]([n:2]1[c:3]([H:11])[n:4][c:5]([C:6]([H:12])([H:13])[H:14])[c:7]1[H:15])([H:8])([H:9])[H:10]>>[C:1]([N:2]1[C:3]([H:11])=[N:4][C:5](=[C:6]([H:12])[H:14])[C:7]1([H:13])[H:15])([H:8])([H:9])[H:10]"
C       -2.24687379      -0.18679907      -0.39136359
N       -0.88375109      -0.22430786       0.07214413
C       -0.47559284      -0.48403992       1.33874964
N        0.78029008      -0.24451198       1.57724256
C        1.25137776       0.35126223       0.42455185
C        2.53110119       0.26862842      -0.16659422
C        0.22920632       0.34542121      -0.59137601
H       -2.33925277      -0.70754222      -1.34572960
H       -2.89188186      -0.67794641       0.33643244
H       -2.59945469       0.84072460      -0.52042264
H       -1.16870380      -0.88417982       2.06911150
H        3.04013057      -0.64816757      -0.43550181
H        1.51711258      -0.04628055      -1.39761625
H        3.25095569       1.02217895       0.14375358
H        0.00533666       1.27555998      -1.11338159
15
Frame=11 idx=007233 GeodesicLength=0.4953451854768282 rxn_smarts="[C:1]([n:2]1[c:3]([H:11])[n:4][c:5]([C:6]([H:12])([H:13])[H:14])[c:7]1[H:15])([H:8])([H:9])[H:10]>>[C:1]([N:2]1[C:3]([H:11])=[N:4][C:5](=[C:6]([H:12])[H:14])[C:7]1([H:13])[H:15])([H:8])([H:9])[H:10]"
C       -2.25019360      -0.17686628      -0.38722696
N       -0.88490408      -0.23063939       0.06839591
C       -0.47414906      -0.49627418       1.33320762
N        0.78144451      -0.25684323       1.56798881
C        1.24909860       0.35731858       0.42180744
C        2.53062729       0.26808128      -0.16444643
C        0.22635898       0.33947530      -0.59676336
H       -2.34999030      -0.68015923      -1.35020366
H       -2.89396407      -0.67750439       0.33518111
H       -2.59870191       0.85446643      -0.49620048
H       -1.16686543      -0.89389507       2.06522628
H        3.07268963      -0.64053150      -0.39354559
H        1.52952357      -0.08304379      -1.39920237
H        3.22981489       1.05075789       0.12044812
H       -0.00078901       1.26565759      -1.12466643
15
Frame=12 idx=007233 GeodesicLength=0.5403811984175921 rxn_smarts="[C:1]([n:2]1[c:3]([H:11])[n:4][c:5]([C:6]([H:12])([H:13])[H:14])[c:7]1[H:15])([H:8])([H:9])[H:10]>>[C:1]([N:2]1[C:3]([H:11])=[N:4][C:5](=[C:6]([H:12])[H:14])[C:7]1([H:13])[H:15])([H:8])([H:9])[H:10]"
C       -2.25345340      -0.16663339      -0.38295796
N       -0.88614223      -0.23694244       0.06448016
C       -0.47274461      -0.50848334       1.32746787
N        0.78231181      -0.26821864       1.55881862
C        1.24667586       0.36316396       0.41888414
C        2.53012712       0.26721945      -0.16217184
C        0.22346515       0.33341264      -0.60235310
H       -2.36080275      -0.65235080      -1.35413930
H       -2.89618231      -0.67636127       0.33397434
H       -2.59743592       0.86822172      -0.47191908
H       -1.16461610      -0.90541491       2.06057337
H        3.10535717      -0.63036578      -0.35032089
H        1.54235421      -0.12068631      -1.39974706
H        3.20803324       1.07779038       0.09544589
H       -0.00694724       1.25564872      -1.13603517
15
Frame=13 idx=007233 GeodesicLength=0.5854151780490263 rxn_smarts="[C:1]([n:2]1[c:3]([H:11])[n:4][c:5]([C:6]([H:12])([H:13])[H:14])[c:7]1[H:15])([H:8])([H:9])[H:10]>>[C:1]([N:2]1[C:3]([H:11])=[N:4][C:5](=[C:6]([H:12])[H:14])[C:7]1([H:13])[H:15])([H:8])([H:9])[H:10]"
C       -2.25654105      -0.15649875      -0.37872341
N       -0.88741646      -0.24316444       0.06046030
C       -0.47140628      -0.52068613       1.32160438
N        0.78302051      -0.27918503       1.54966976
C        1.24422722       0.36866301       0.41586580
C        2.52960649       0.26578820      -0.15989005
C        0.22051352       0.32769724      -0.60792005
H       -2.37122720      -0.62451952      -1.35776385
H       -2.89839678      -0.67520267       0.33253222
H       -2.59586380       0.88151386      -0.44775282
H       -1.16241626      -0.91703369       2.05575200
H        3.13769055      -0.61784538      -0.30649126
H        1.55542013      -0.15840563      -1.39947207
H        3.18597668       1.10257223       0.06887796
H       -0.01318726       1.24630669      -1.14674891
15
Frame=14 idx=007233 GeodesicLength=0.6303457852100925 rxn_smarts="[C:1]([n:2]1[c:3]([H:11])[n:4][c:5]([C:6]([H:12])([H:13])[H:14])[c:7]1[H:15])([H:8])([H:9])[H:10]>>[C:1]([N:2]1[C:3]([H:11])=[N:4][C:5](=[C:6]([H:12])[H:14])[C:7]1([H:13])[H:15])([H:8])([H:9])[H:10]"
C       -2.25937467      -0.14676196      -0.37466071
N       -0.88868368      -0.24928076       0.05638390
C       -0.47014360      -0.53285671       1.31563577
N        0.78369995      -0.29036649       1.54038531
C        1.24185724       0.37359513       0.41282643
C        2.52911147       0.26361589      -0.15768111
C        0.21746975       0.32260979      -0.61325546
H       -2.38091729      -0.59700923      -1.36120259
H       -2.90048254      -0.67443538       0.33062793
H       -2.59417765       0.89393118      -0.42390179
H       -1.16064538      -0.92717630       2.05127043
H        3.16947015      -0.60302477      -0.26284687
H        1.56857052      -0.19558971      -1.39856131
H        3.16386331       1.12463127       0.04114478
H       -0.01961758       1.23811805      -1.15616470
15
Frame=15 idx=007233 GeodesicLength=0.6752965467710753 rxn_smarts="[C:1]([n:2]1[c:3]([H:11])[n:4][c:5]([C:6]([H:12])([H:13])[H:14])[c:7]1[H:15])([H:8])([H:9])[H:10]>>[C:1]([N:2]1[C:3]([H:11])=[N:4][C:5](=[C:6]([H:12])[H:14])[C:7]1([H:13])[H:15])([H:8])([H:9])[H:10]"
C       -2.26205342      -0.13712097      -0.37063807
N       -0.88999196      -0.25518765       0.05225010
C       -0.46897598      -0.54475577       1.30962218
N        0.78423875      -0.30111535       1.53113822
C        1.23952496       0.37824100       0.40971654
C        2.52864826       0.26079639      -0.15543415
C        0.21435180       0.31795941      -0.61853667
H       -2.39018814      -0.56959405      -1.36429146
H       -2.90255547      -0.67360387       0.32851636
H       -2.59229704       0.90585532      -0.40029839
H       -1.15881842      -0.93777824       2.04647722
H        3.20074393      -0.58579241      -0.21866125
H        1.58186961      -0.23288496      -1.39687807
H        3.14165325       1.14426597       0.01191374
H       -0.02615012       1.23071519      -1.16489632
15
Frame=16 idx=007233 GeodesicLength=0.7201859353080287 rxn_smarts="[C:1]([n:2]1[c:3]([H:11])[n:4][c:5]([C:6]([H:12])([H:13])[H:14])[c:7]1[H:15])([H:8])([H:9])[H:10]>>[C:1]([N:2]1[C:3]([H:11])=[N:4][C:5](=[C:6]([H:12])[H:14])[C:7]1([H:13])[H:15])([H:8])([H:9])[H:10]"
C       -2.26450050      -0.12788856      -0.36681769
N       -0.89128969      -0.26083626       0.04812058
C       -0.46790865      -0.55636565       1.30363462
N        0.78476946      -0.31199140       1.52184208
C        1.23734788       0.38242359       0.40663741
C        2.52825344       0.25714329      -0.15322176
C        0.21113878       0.31408833      -0.62355166
H       -2.39869558      -0.54266519      -1.36722056
H       -2.90448923      -0.67316839       0.32596441
H       -2.59044159       0.91690192      -0.37717657
H       -1.15727917      -0.94734760       2.04193103
H        3.23121543      -0.56633480      -0.17470766
H        1.59514023      -0.26967876      -1.39467158
H        3.11960126       1.16103915      -0.01845855
H       -0.03286208       1.22468033      -1.17230408
