11
Frame=0 idx=000884 GeodesicLength=0.0 rxn_smarts="[N:1](=[C:2]1/[C:3]([H:8])=[C:4]([H:9])[C:5]([H:10])([H:11])[O:6]1)\[H:7]>>[N:1](=[C:2]=[C:3]([C:4]([C:5](=[O:6])[H:10])([H:9])[H:11])[H:8])[H:7]"
N        2.39478924      -0.04355825      -0.12990703
C        1.14164041       0.05507496      -0.11660250
C        0.18342511       1.08086322      -0.10126722
C       -1.11776610       0.51722852      -0.00434310
C       -0.94919306      -0.90223782      -0.07006646
O        0.29416160      -1.21736112      -0.06106672
H        2.73463591      -0.99404409      -0.17687063
H        0.42850397       2.12683984      -0.09552600
H       -2.05003958       0.99288268      -0.28395503
H       -1.70232147      -1.67949850      -0.05823833
H       -1.35783606       0.06381055       1.09784297
11
Frame=1 idx=000884 GeodesicLength=0.06811092006232436 rxn_smarts="[N:1](=[C:2]1/[C:3]([H:8])=[C:4]([H:9])[C:5]([H:10])([H:11])[O:6]1)\[H:7]>>[N:1](=[C:2]=[C:3]([C:4]([C:5](=[O:6])[H:10])([H:9])[H:11])[H:8])[H:7]"
N        2.39928284      -0.03782457      -0.11146371
C        1.14693161       0.05766647      -0.11776630
C        0.18616274       1.08016625      -0.09912118
C       -1.11485047       0.51918492       0.00330077
C       -0.95344632      -0.90552127      -0.04978991
O        0.28886240      -1.22904854      -0.05661494
H        2.74254277      -0.98499671      -0.19476806
H        0.42919501       2.12678465      -0.11574115
H       -2.04303443       0.99413783      -0.29092337
H       -1.71741924      -1.67243509      -0.07852375
H       -1.36422692       0.05188607       1.11141161
11
Frame=2 idx=000884 GeodesicLength=0.1362229669508872 rxn_smarts="[N:1](=[C:2]1/[C:3]([H:8])=[C:4]([H:9])[C:5]([H:10])([H:11])[O:6]1)\[H:7]>>[N:1](=[C:2]=[C:3]([C:4]([C:5](=[O:6])[H:10])([H:9])[H:11])[H:8])[H:7]"
N        2.40350710      -0.03252037      -0.09602164
C        1.15224363       0.06028226      -0.11853401
C        0.18888911       1.07942863      -0.09674028
C       -1.11190661       0.52105146       0.01126568
C       -0.95785335      -0.90884954      -0.02966109
O        0.28318226      -1.24089914      -0.05233062
H        2.75057564      -0.97543857      -0.21022794
H        0.42969075       2.12624965      -0.13600161
H       -2.03581975       0.99514514      -0.29766977
H       -1.73175118      -1.66402883      -0.09936094
H       -1.37075760       0.03957931       1.12528223
11
Frame=3 idx=000884 GeodesicLength=0.20430047876602556 rxn_smarts="[N:1](=[C:2]1/[C:3]([H:8])=[C:4]([H:9])[C:5]([H:10])([H:11])[O:6]1)\[H:7]>>[N:1](=[C:2]=[C:3]([C:4]([C:5](=[O:6])[H:10])([H:9])[H:11])[H:8])[H:7]"
N        2.40764224      -0.02751760      -0.08270889
C        1.15761008       0.06293615      -0.11835013
C        0.19163369       1.07866703      -0.09387172
C       -1.10893481       0.52283915       0.01933884
C       -0.96238841      -0.91222297      -0.00975690
O        0.27718014      -1.25289536      -0.04737755
H        2.75849853      -0.96552517      -0.22504772
H        0.43000149       2.12522999      -0.15619607
H       -2.02827642       0.99588439      -0.30476238
H       -1.74511172      -1.65436906      -0.12043196
H       -1.37785481       0.02697346       1.13916447
11
Frame=4 idx=000884 GeodesicLength=0.2723690386838118 rxn_smarts="[N:1](=[C:2]1/[C:3]([H:8])=[C:4]([H:9])[C:5]([H:10])([H:11])[O:6]1)\[H:7]>>[N:1](=[C:2]=[C:3]([C:4]([C:5](=[O:6])[H:10])([H:9])[H:11])[H:8])[H:7]"
N        2.41167662      -0.02271005      -0.07081643
C        1.16298674       0.06568080      -0.11811144
C        0.19435526       1.07793225      -0.09098821
C       -1.10595246       0.52459994       0.02747033
C       -0.96711508      -0.91558927       0.00945949
O        0.27080287      -1.26500444      -0.04257983
H        2.76635963      -0.95544672      -0.23856818
H        0.43010506       2.12379412      -0.17616879
H       -2.02054722       0.99648805      -0.31172695
H       -1.75758409      -1.64361951      -0.14097702
H       -1.38508733       0.01387484       1.15300702
11
Frame=5 idx=000884 GeodesicLength=0.34073707780722784 rxn_smarts="[N:1](=[C:2]1/[C:3]([H:8])=[C:4]([H:9])[C:5]([H:10])([H:11])[O:6]1)\[H:7]>>[N:1](=[C:2]=[C:3]([C:4]([C:5](=[O:6])[H:10])([H:9])[H:11])[H:8])[H:7]"
N        2.41568166      -0.01802442      -0.05988173
C        1.16841181       0.06859438      -0.11796897
C        0.19710030       1.07732158      -0.08802708
C       -1.10294589       0.52639051       0.03572043
C       -0.97208243      -0.91893798       0.02772699
O        0.26400773      -1.27722462      -0.03831178
H        2.77413527      -0.94529471      -0.25067069
H        0.43001894       2.12205148      -0.19636940
H       -2.01268685       0.99711977      -0.31828572
H       -1.76933065      -1.63201491      -0.16076255
H       -1.39230989       0.00001892       1.16683049
11
Frame=6 idx=000884 GeodesicLength=0.4085190343884392 rxn_smarts="[N:1](=[C:2]1/[C:3]([H:8])=[C:4]([H:9])[C:5]([H:10])([H:11])[O:6]1)\[H:7]>>[N:1](=[C:2]=[C:3]([C:4]([C:5](=[O:6])[H:10])([H:9])[H:11])[H:8])[H:7]"
N        2.41959013      -0.01356956      -0.04991469
C        1.17382879       0.07154109      -0.11747674
C        0.19980624       1.07664021      -0.08507731
C       -1.09990998       0.52816674       0.04374073
C       -0.97716992      -0.92218100       0.04525109
O        0.25692330      -1.28950099      -0.03354048
H        2.78178272      -0.93487743      -0.26271986
H        0.42975916       2.11978983      -0.21571962
H       -2.00449395       0.99758145      -0.32522457
H       -1.78011427      -1.61951206      -0.17954355
H       -1.40000222      -0.01407827       1.18022500
11
Frame=7 idx=000884 GeodesicLength=0.4766346430349308 rxn_smarts="[N:1](=[C:2]1/[C:3]([H:8])=[C:4]([H:9])[C:5]([H:10])([H:11])[O:6]1)\[H:7]>>[N:1](=[C:2]=[C:3]([C:4]([C:5](=[O:6])[H:10])([H:9])[H:11])[H:8])[H:7]"
N        2.42352322      -0.00917035      -0.04055383
C        1.17931994       0.07466116      -0.11738605
C        0.20252752       1.07608220      -0.08256685
C       -1.09686747       0.52999983       0.05159110
C       -0.98249144      -0.92539374       0.06181219
O        0.24945855      -1.30191780      -0.02919658
H        2.78943246      -0.92442888      -0.27368445
H        0.42942198       2.11738247      -0.23439227
H       -1.99623526       0.99806124      -0.33203027
H       -1.79045349      -1.60655867      -0.19700513
H       -1.40763602      -0.02871745       1.19341214
11
Frame=8 idx=000884 GeodesicLength=0.54465351762483 rxn_smarts="[N:1](=[C:2]1/[C:3]([H:8])=[C:4]([H:9])[C:5]([H:10])([H:11])[O:6]1)\[H:7]>>[N:1](=[C:2]=[C:3]([C:4]([C:5](=[O:6])[H:10])([H:9])[H:11])[H:8])[H:7]"
N        2.42735001      -0.00475152      -0.03176011
C        1.18482354       0.07794757      -0.11811577
C        0.20520313       1.07555538      -0.08072486
C       -1.09377422       0.53187699       0.05932540
C       -0.98797423      -0.92851204       0.07735101
O        0.24161001      -1.31441456      -0.02575312
H        2.79708194      -0.91406881      -0.28290730
H        0.42893176       2.11485891      -0.25241962
H       -1.98792249       0.99856776      -0.33835423
H       -1.80038909      -1.59314626      -0.21306729
H       -1.41494035      -0.04391343       1.20642587
11
Frame=9 idx=000884 GeodesicLength=0.6127229541421515 rxn_smarts="[N:1](=[C:2]1/[C:3]([H:8])=[C:4]([H:9])[C:5]([H:10])([H:11])[O:6]1)\[H:7]>>[N:1](=[C:2]=[C:3]([C:4]([C:5](=[O:6])[H:10])([H:9])[H:11])[H:8])[H:7]"
N        2.43116651      -0.00034565      -0.02344076
C        1.19039447       0.08138615      -0.11927520
C        0.20786912       1.07508404      -0.07944355
C       -1.09064824       0.53380258       0.06682727
C       -0.99362314      -0.93156519       0.09207254
O        0.23342021      -1.32704014      -0.02261781
H        2.80476765      -0.90369697      -0.29124750
H        0.42837183       2.11222778      -0.26960189
H       -1.97952581       0.99906465      -0.34459937
H       -1.80999829      -1.57940635      -0.22786537
H       -1.42219429      -0.05951090       1.21919164
11
Frame=10 idx=000884 GeodesicLength=0.6808069799520028 rxn_smarts="[N:1](=[C:2]1/[C:3]([H:8])=[C:4]([H:9])[C:5]([H:10])([H:11])[O:6]1)\[H:7]>>[N:1](=[C:2]=[C:3]([C:4]([C:5](=[O:6])[H:10])([H:9])[H:11])[H:8])[H:7]"
N        2.43496329       0.00403485      -0.01524097
C        1.19604814       0.08498273      -0.12073495
C        0.21054314       1.07465760      -0.07855048
C       -1.08746025       0.53578484       0.07425590
C       -0.99943154      -0.93454183       0.10598020
O        0.22486653      -1.33979816      -0.01999023
H        2.81252663      -0.89324334      -0.29877611
H        0.42770971       2.10944639      -0.28662696
H       -1.97104010       0.99962474      -0.35049509
H       -1.81937680      -1.56531467      -0.24162446
H       -1.42934874      -0.07563314       1.23180317
11
Frame=11 idx=000884 GeodesicLength=0.7489075326001655 rxn_smarts="[N:1](=[C:2]1/[C:3]([H:8])=[C:4]([H:9])[C:5]([H:10])([H:11])[O:6]1)\[H:7]>>[N:1](=[C:2]=[C:3]([C:4]([C:5](=[O:6])[H:10])([H:9])[H:11])[H:8])[H:7]"
N        2.43875987       0.00837031      -0.00701189
C        1.20180499       0.08873801      -0.12231141
C        0.21324661       1.07428134      -0.07793627
C       -1.08419491       0.53782949       0.08165251
C       -1.00539664      -0.93744264       0.11915444
O        0.21594988      -1.35269601      -0.01777022
H        2.82038060      -0.88263038      -0.30576152
H        0.42693417       2.10643024      -0.30374963
H       -1.96244442       1.00027110      -0.35602283
H       -1.82856703      -1.55087130      -0.25452724
H       -1.43647314      -0.09228016       1.24428405
11
Frame=12 idx=000884 GeodesicLength=0.8171577576794604 rxn_smarts="[N:1](=[C:2]1/[C:3]([H:8])=[C:4]([H:9])[C:5]([H:10])([H:11])[O:6]1)\[H:7]>>[N:1](=[C:2]=[C:3]([C:4]([C:5](=[O:6])[H:10])([H:9])[H:11])[H:8])[H:7]"
N        2.44256965       0.01264618       0.00139333
C        1.20768275       0.09263980      -0.12389492
C        0.21600667       1.07396442      -0.07752127
C       -1.08083787       0.53994441       0.08906326
C       -1.01154644      -0.94030986       0.13166315
O        0.20664616      -1.36578749      -0.01589555
H        2.82840248      -0.87174734      -0.31238589
H        0.42605600       2.10313879      -0.32122317
H       -1.95373441       1.00105252      -0.36114708
H       -1.83764738      -1.53606777      -0.26674283
H       -1.44359762      -0.10947365       1.25669098
11
Frame=13 idx=000884 GeodesicLength=0.8851824263443401 rxn_smarts="[N:1](=[C:2]1/[C:3]([H:8])=[C:4]([H:9])[C:5]([H:10])([H:11])[O:6]1)\[H:7]>>[N:1](=[C:2]=[C:3]([C:4]([C:5](=[O:6])[H:10])([H:9])[H:11])[H:8])[H:7]"
N        2.44637694       0.01684370       0.01024215
C        1.21371715       0.09672973      -0.12524107
C        0.21883386       1.07367965      -0.07707863
C       -1.07734229       0.54211602       0.09672358
C       -1.01781234      -0.94299240       0.14345615
O        0.19693606      -1.37894279      -0.01477654
H        2.83653929      -0.86059687      -0.31853169
H        0.42495600       2.09935948      -0.33994723
H       -1.94491274       1.00202476      -0.36541219
H       -1.84661957      -1.52081580      -0.27846629
H       -1.45067237      -0.12740548       1.26903176
11
Frame=14 idx=000884 GeodesicLength=0.9533870458846528 rxn_smarts="[N:1](=[C:2]1/[C:3]([H:8])=[C:4]([H:9])[C:5]([H:10])([H:11])[O:6]1)\[H:7]>>[N:1](=[C:2]=[C:3]([C:4]([C:5](=[O:6])[H:10])([H:9])[H:11])[H:8])[H:7]"
N        2.45019839       0.02102723       0.01925649
C        1.21988960       0.10098387      -0.12676793
C        0.22170045       1.07344355      -0.07709300
C       -1.07373578       0.54434567       0.10433756
C       -1.02424692      -0.94566502       0.15467242
O        0.18681210      -1.39231016      -0.01418497
H        2.84488804      -0.84921019      -0.32404892
H        0.42376915       2.09534106      -0.35884563
H       -1.93606272       1.00313860      -0.36919506
H       -1.85560407      -1.50524935      -0.28945652
H       -1.45760823      -0.14584527       1.28132556
11
Frame=15 idx=000884 GeodesicLength=1.0215679057983549 rxn_smarts="[N:1](=[C:2]1/[C:3]([H:8])=[C:4]([H:9])[C:5]([H:10])([H:11])[O:6]1)\[H:7]>>[N:1](=[C:2]=[C:3]([C:4]([C:5](=[O:6])[H:10])([H:9])[H:11])[H:8])[H:7]"
N        2.45400343       0.02521292       0.02840178
C        1.22620573       0.10541201      -0.12856327
C        0.22459524       1.07322263      -0.07759537
C       -1.06999941       0.54661736       0.11189602
C       -1.03080064      -0.94826336       0.16533821
O        0.17627365      -1.40583729      -0.01423898
H        2.85344340      -0.83765443      -0.32878226
H        0.42245490       2.09107194      -0.37789020
H       -1.92720456       1.00437366      -0.37242971
H       -1.86459968      -1.48937896      -0.29967404
H       -1.46437205      -0.16477649       1.29353782
11
Frame=16 idx=000884 GeodesicLength=1.0897544730160444 rxn_smarts="[N:1](=[C:2]1/[C:3]([H:8])=[C:4]([H:9])[C:5]([H:10])([H:11])[O:6]1)\[H:7]>>[N:1](=[C:2]=[C:3]([C:4]([C:5](=[O:6])[H:10])([H:9])[H:11])[H:8])[H:7]"
N        2.45779858       0.02943975       0.03756978
C        1.23267968       0.11003581      -0.13072493
C        0.22751654       1.07301903      -0.07864583
C       -1.06612834       0.54891871       0.11933399
C       -1.03745727      -0.95079639       0.17551520
O        0.16531765      -1.41952929      -0.01493616
H        2.86219744      -0.82601959      -0.33263636
H        0.42103363       2.08666432      -0.39687686
H       -1.91836752       1.00570506      -0.37518940
H       -1.87364178      -1.47327907      -0.30907114
H       -1.47094860      -0.18415833       1.30566170
