12
Frame=0 idx=002943 GeodesicLength=0.0 rxn_smarts="[C:1]([c:2]1[c:3]([H:10])[c:4]([H:11])[c:5]([H:12])[o:6]1)([H:7])([H:8])[H:9]>>[C:1]([C:2]([C:3]([C:4]#[C:5][H:12])([H:10])[H:11])=[O:6])([H:7])([H:8])[H:9]"
C       -1.79063729       0.03408361       0.08703129
C       -0.31183163      -0.04160522       0.03824066
C        0.69957688       0.88236379       0.33391799
C        2.05577075       0.19044199       0.21145388
C        1.62801505      -1.01921090      -0.25314653
O        0.24607575      -1.16500097      -0.32469984
H       -2.10768786       1.05303538       0.30019987
H       -2.18182903      -0.62386911       0.86613916
H       -2.22430223      -0.28263816      -0.86299371
H        0.53006194       1.84355799       0.79803059
H        1.30718778       1.05163693      -0.66897874
H        2.14959989      -1.92279529      -0.52519465
12
Frame=1 idx=002943 GeodesicLength=0.10735534936693221 rxn_smarts="[C:1]([c:2]1[c:3]([H:10])[c:4]([H:11])[c:5]([H:12])[o:6]1)([H:7])([H:8])[H:9]>>[C:1]([C:2]([C:3]([C:4]#[C:5][H:12])([H:10])[H:11])=[O:6])([H:7])([H:8])[H:9]"
C       -1.79633870       0.03844095       0.08677437
C       -0.31801841      -0.04509127       0.02425956
C        0.69412718       0.87804885       0.33022106
C        2.04514177       0.18723160       0.21175715
C        1.64545689      -1.02456607      -0.25505915
O        0.23578265      -1.17080382      -0.33190847
H       -2.10775125       1.06312746       0.28045786
H       -2.18149616      -0.60021242       0.88475981
H       -2.24039326      -0.29779240      -0.85155426
H        0.52247640       1.82629838       0.81948030
H        1.32542106       1.06787680      -0.67168917
H        2.17559182      -1.92255806      -0.52749907
12
Frame=2 idx=002943 GeodesicLength=0.21467669319690716 rxn_smarts="[C:1]([c:2]1[c:3]([H:10])[c:4]([H:11])[c:5]([H:12])[o:6]1)([H:7])([H:8])[H:9]>>[C:1]([C:2]([C:3]([C:4]#[C:5][H:12])([H:10])[H:11])=[O:6])([H:7])([H:8])[H:9]"
C       -1.80210511       0.04292168       0.08655553
C       -0.32439842      -0.04881789       0.01065541
C        0.68851033       0.87360383       0.32628522
C        2.03438604       0.18406931       0.21100242
C        1.66330070      -1.02996372      -0.25663601
O        0.22495534      -1.17688185      -0.33898173
H       -2.10790753       1.07291303       0.26077910
H       -2.18112035      -0.57613165       0.90276460
H       -2.25647853      -0.31227791      -0.83964700
H        0.51476090       1.80813436       0.84064302
H        1.34381950       1.08450564      -0.67395858
H        2.20227714      -1.92207485      -0.52946195
12
Frame=3 idx=002943 GeodesicLength=0.32197663774532553 rxn_smarts="[C:1]([c:2]1[c:3]([H:10])[c:4]([H:11])[c:5]([H:12])[o:6]1)([H:7])([H:8])[H:9]>>[C:1]([C:2]([C:3]([C:4]#[C:5][H:12])([H:10])[H:11])=[O:6])([H:7])([H:8])[H:9]"
C       -1.80795320       0.04752930       0.08637409
C       -0.33098752      -0.05281865      -0.00249747
C        0.68273009       0.86901159       0.32213153
C        2.02351143       0.18095369       0.20913955
C        1.68157216      -1.03540692      -0.25784680
O        0.21356652      -1.18326512      -0.34585108
H       -2.10814375       1.08241242       0.24117062
H       -2.18077434      -0.55163907       0.92013981
H       -2.27254287      -0.32606946      -0.82731585
H        0.50695872       1.78906287       0.86147075
H        1.36235907       1.10152411      -0.67577353
H        2.22970371      -1.92129475      -0.53114164
12
Frame=4 idx=002943 GeodesicLength=0.4292648897340968 rxn_smarts="[C:1]([c:2]1[c:3]([H:10])[c:4]([H:11])[c:5]([H:12])[o:6]1)([H:7])([H:8])[H:9]>>[C:1]([C:2]([C:3]([C:4]#[C:5][H:12])([H:10])[H:11])=[O:6])([H:7])([H:8])[H:9]"
C       -1.81390209       0.05226302       0.08624048
C       -0.33780374      -0.05712717      -0.01512990
C        0.67679025       0.86425404       0.31776227
C        2.01252353       0.17788247       0.20610117
C        1.70030117      -1.04089421      -0.25868136
O        0.20158475      -1.18998787      -0.35247663
H       -2.10845069       1.09164482       0.22173395
H       -2.18053600      -0.52682268       0.93684759
H       -2.28857300      -0.33907461      -0.81464068
H        0.49912312       1.76911450       0.88187836
H        1.38101775       1.11893673      -0.67713003
H        2.25792496      -1.92018903      -0.53250521
12
Frame=5 idx=002943 GeodesicLength=0.5365115170867156 rxn_smarts="[C:1]([c:2]1[c:3]([H:10])[c:4]([H:11])[c:5]([H:12])[o:6]1)([H:7])([H:8])[H:9]>>[C:1]([C:2]([C:3]([C:4]#[C:5][H:12])([H:10])[H:11])=[O:6])([H:7])([H:8])[H:9]"
C       -1.81996914       0.05713910       0.08614529
C       -0.34486383      -0.06176861      -0.02722252
C        0.67069128       0.85931237       0.31320035
C        2.00142254       0.17483436       0.20185323
C        1.71951109      -1.04641616      -0.25913266
O        0.18898054      -1.19707045      -0.35879683
H       -2.10880263       1.10058459       0.20241333
H       -2.18043370      -0.50161588       0.95288779
H       -2.30461481      -0.35131551      -0.80160091
H        0.49129286       1.74822540       0.90181775
H        1.39980595       1.13678690      -0.67795682
H        2.28697985      -1.91869610      -0.53360799
12
Frame=6 idx=002943 GeodesicLength=0.643725293481442 rxn_smarts="[C:1]([c:2]1[c:3]([H:10])[c:4]([H:11])[c:5]([H:12])[o:6]1)([H:7])([H:8])[H:9]>>[C:1]([C:2]([C:3]([C:4]#[C:5][H:12])([H:10])[H:11])=[O:6])([H:7])([H:8])[H:9]"
C       -1.82617488       0.06215364       0.08609286
C       -0.35219131      -0.06676759      -0.03876205
C        0.66442923       0.85416144       0.30844312
C        1.99020105       0.17179251       0.19633931
C        1.73923641      -1.05197276      -0.25917364
O        0.17571555      -1.20454185      -0.36478847
H       -2.10919069       1.10925431       0.18326014
H       -2.18050588      -0.47606351       0.96825415
H       -2.32069896      -0.36274651      -0.78823914
H        0.48352422       1.72641272       0.92122120
H        1.41873263       1.15509234      -0.67820845
H        2.31692262      -1.91677475      -0.53443903
12
Frame=7 idx=002943 GeodesicLength=0.7509357912025191 rxn_smarts="[C:1]([c:2]1[c:3]([H:10])[c:4]([H:11])[c:5]([H:12])[o:6]1)([H:7])([H:8])[H:9]>>[C:1]([C:2]([C:3]([C:4]#[C:5][H:12])([H:10])[H:11])=[O:6])([H:7])([H:8])[H:9]"
C       -1.83253878       0.06730382       0.08609296
C       -0.35981338      -0.07214076      -0.04974887
C        0.65800181       0.84877265       0.30348167
C        1.97884828       0.16872525       0.18952256
C        1.75951120      -1.05758227      -0.25871797
O        0.16174116      -1.21242899      -0.37046057
H       -2.10960406       1.11768295       0.16433776
H       -2.18079152      -0.45023540       0.98295558
H       -2.33685895      -0.37332961      -0.77460010
H        0.47586201       1.70374888       0.94000453
H        1.43783615       1.17384941      -0.67783895
H        2.34780608      -1.91436593      -0.53502860
12
Frame=8 idx=002943 GeodesicLength=0.8581729561585968 rxn_smarts="[C:1]([c:2]1[c:3]([H:10])[c:4]([H:11])[c:5]([H:12])[o:6]1)([H:7])([H:8])[H:9]>>[C:1]([C:2]([C:3]([C:4]#[C:5][H:12])([H:10])[H:11])=[O:6])([H:7])([H:8])[H:9]"
C       -1.83908302       0.07259805       0.08614211
C       -0.36775916      -0.07791462      -0.06019631
C        0.65140370       0.84310450       0.29832210
C        1.96735694       0.16559958       0.18134045
C        1.78038446      -1.06324064      -0.25773499
O        0.14700298      -1.22077651      -0.37578928
H       -2.11003507       1.12589944       0.14559693
H       -2.18130106      -0.42408391       0.99702799
H       -2.35315628      -0.38308918      -0.76068246
H        0.46835409       1.68020983       0.95814156
H        1.45713632       1.19308765      -0.67675636
H        2.37969611      -1.91139420      -0.53541174
12
Frame=9 idx=002943 GeodesicLength=0.9656672922908349 rxn_smarts="[C:1]([c:2]1[c:3]([H:10])[c:4]([H:11])[c:5]([H:12])[o:6]1)([H:7])([H:8])[H:9]>>[C:1]([C:2]([C:3]([C:4]#[C:5][H:12])([H:10])[H:11])=[O:6])([H:7])([H:8])[H:9]"
C       -1.84582942       0.07803943       0.08628624
C       -0.37606110      -0.08411382      -0.07012278
C        0.64461152       0.83715495       0.29275264
C        1.95562370       0.16243334       0.17144100
C        1.80199531      -1.06889201      -0.25619840
O        0.13139877      -1.22960135      -0.38093764
H       -2.11048710       1.13397296       0.12736068
H       -2.18210257      -0.39787243       1.01043996
H       -2.36960466      -0.39180335      -0.74660081
H        0.46110618       1.65575595       0.97562141
H        1.47664291       1.21286715      -0.67490545
H        2.41270645      -1.90794081      -0.53513685
12
Frame=10 idx=002943 GeodesicLength=1.073164150083631 rxn_smarts="[C:1]([c:2]1[c:3]([H:10])[c:4]([H:11])[c:5]([H:12])[o:6]1)([H:7])([H:8])[H:9]>>[C:1]([C:2]([C:3]([C:4]#[C:5][H:12])([H:10])[H:11])=[O:6])([H:7])([H:8])[H:9]"
C       -1.85278889       0.08362639       0.08649883
C       -0.38475187      -0.09070989      -0.07964212
C        0.63762860       0.83088801       0.28688628
C        1.94368773       0.15915844       0.15987870
C        1.82428631      -1.07456849      -0.25397055
O        0.11492301      -1.23886029      -0.38593656
H       -2.11095256       1.14184856       0.10941163
H       -2.18306720      -0.37141854       1.02327735
H       -2.38632720      -0.39965130      -0.73223619
H        0.45413193       1.63035196       0.99239999
H        1.49643728       1.23320441      -0.67215687
H        2.44679286      -1.90386927      -0.53441049
12
Frame=11 idx=002943 GeodesicLength=1.1806704061588404 rxn_smarts="[C:1]([c:2]1[c:3]([H:10])[c:4]([H:11])[c:5]([H:12])[o:6]1)([H:7])([H:8])[H:9]>>[C:1]([C:2]([C:3]([C:4]#[C:5][H:12])([H:10])[H:11])=[O:6])([H:7])([H:8])[H:9]"
C       -1.85997462       0.08935173       0.08682078
C       -0.39386338      -0.09768837      -0.08886224
C        0.63044822       0.82427921       0.28064667
C        1.93150215       0.15576216       0.14642030
C        1.84730223      -1.08021374      -0.25107993
O        0.09751926      -1.24850997      -0.39106615
H       -2.11144658       1.14954902       0.09197223
H       -2.18414177      -0.34490048       1.03556118
H       -2.40339631      -0.40651338      -0.71760988
H        0.44750744       1.60396940       1.00843379
H        1.51654292       1.25416569      -0.66846656
H        2.48200047      -1.89925127      -0.53277019
12
Frame=12 idx=002943 GeodesicLength=1.288185005253462 rxn_smarts="[C:1]([c:2]1[c:3]([H:10])[c:4]([H:11])[c:5]([H:12])[o:6]1)([H:7])([H:8])[H:9]>>[C:1]([C:2]([C:3]([C:4]#[C:5][H:12])([H:10])[H:11])=[O:6])([H:7])([H:8])[H:9]"
C       -1.86740247       0.09521576       0.08727715
C       -0.40343831      -0.10503225      -0.09790018
C        0.62305653       0.81731010       0.27394219
C        1.91900377       0.15222882       0.13076974
C        1.87109064      -1.08577760      -0.24745787
O        0.07912077      -1.25850991      -0.39654615
H       -2.11198652       1.15708763       0.07515685
H       -2.18524644      -0.31839838       1.04733436
H       -2.42090148      -0.41234481      -0.70269966
H        0.44132553       1.57649777       1.02371275
H        1.53700929       1.27582324      -0.66371790
H        2.51836870      -1.89410037      -0.52987130
12
Frame=13 idx=002943 GeodesicLength=1.3957024530349817 rxn_smarts="[C:1]([c:2]1[c:3]([H:10])[c:4]([H:11])[c:5]([H:12])[o:6]1)([H:7])([H:8])[H:9]>>[C:1]([C:2]([C:3]([C:4]#[C:5][H:12])([H:10])[H:11])=[O:6])([H:7])([H:8])[H:9]"
C       -1.87508701       0.10121096       0.08791027
C       -0.41352119      -0.11271830      -0.10687675
C        0.61544510       0.80996470       0.26666176
C        1.90612173       0.14853321       0.11263784
C        1.89569699      -1.09122093      -0.24288837
O        0.05966031      -1.26880608      -0.40265791
H       -2.11259755       1.16449612       0.05916287
H       -2.18631459      -0.29208298       1.05864736
H       -2.43891141      -0.41706501      -0.68751461
H        0.43567819       1.54790328       1.03816529
H        1.55790765       1.29819455      -0.65783159
H        2.55592177      -1.88840952      -0.52541614
12
Frame=14 idx=002943 GeodesicLength=1.503194275665734 rxn_smarts="[C:1]([c:2]1[c:3]([H:10])[c:4]([H:11])[c:5]([H:12])[o:6]1)([H:7])([H:8])[H:9]>>[C:1]([C:2]([C:3]([C:4]#[C:5][H:12])([H:10])[H:11])=[O:6])([H:7])([H:8])[H:9]"
C       -1.88304417       0.10733371       0.08877825
C       -0.42417600      -0.12069906      -0.11600579
C        0.60759709       0.80222211       0.25864902
C        1.89275052       0.14465112       0.09150697
C        1.92115570      -1.09639252      -0.23742478
O        0.03904244      -1.27929572      -0.40985719
H       -2.11331678       1.17179329       0.04418939
H       -2.18717851      -0.26608541       1.06959123
H       -2.45756005      -0.42061750      -0.67197219
H        0.43070266       1.51795470       1.05178754
H        1.57931239       1.32139072      -0.65061459
H        2.59471472      -1.88225542      -0.51862785
12
Frame=15 idx=002943 GeodesicLength=1.6106421680475378 rxn_smarts="[C:1]([c:2]1[c:3]([H:10])[c:4]([H:11])[c:5]([H:12])[o:6]1)([H:7])([H:8])[H:9]>>[C:1]([C:2]([C:3]([C:4]#[C:5][H:12])([H:10])[H:11])=[O:6])([H:7])([H:8])[H:9]"
C       -1.89129344       0.11357061       0.08995432
C       -0.43547544      -0.12892522      -0.12549422
C        0.59949584       0.79407434       0.24969671
C        1.87875319       0.14054721       0.06681878
C        1.94750321      -1.10114642      -0.23082176
O        0.01716604      -1.28987078      -0.41860361
H       -2.11419472       1.17901105       0.03054231
H       -2.18769860      -0.24065209       1.08024656
H       -2.47695285      -0.42289310      -0.65603774
H        0.42656538       1.48649952       1.06447840
H        1.60136115       1.34541205      -0.64189419
H        2.63477024      -1.87562716      -0.50888554
12
Frame=16 idx=002943 GeodesicLength=1.718014420009828 rxn_smarts="[C:1]([c:2]1[c:3]([H:10])[c:4]([H:11])[c:5]([H:12])[o:6]1)([H:7])([H:8])[H:9]>>[C:1]([C:2]([C:3]([C:4]#[C:5][H:12])([H:10])[H:11])=[O:6])([H:7])([H:8])[H:9]"
C       -1.89986162       0.11991496       0.09151441
C       -0.44751665      -0.13735110      -0.13559782
C        0.59111960       0.78549717       0.23954589
C        1.86393641       0.13615747       0.03782670
C        1.97476745      -1.10524208      -0.22288030
O       -0.00610700      -1.30044312      -0.42935807
H       -2.11528386       1.18618571       0.01847702
H       -2.18769703      -0.21596251       1.09072674
H       -2.49722980      -0.42382419      -0.63960900
H        0.42348557       1.45325290       1.07614446
H        1.62426124       1.37024172      -0.63135420
H        2.67612568      -1.86842694      -0.49543582
