18
Frame=0 idx=000736 GeodesicLength=0.0 rxn_smarts="[C:1]([C:2]([C:3]([C:4]([O:5][C:6]([H:16])([H:17])[H:18])([H:14])[H:15])([H:12])[H:13])([H:10])[H:11])([H:7])([H:8])[H:9]>>[C-:4]([O+:5]=[C:6]([H:16])[H:18])([H:14])[H:15].[C:1]([C:2]([C:3]([H:12])([H:13])[H:17])([H:10])[H:11])([H:7])([H:8])[H:9]"
C       -2.54979346       0.34962942      -0.43102430
C       -1.03991967       0.25521251      -0.62848703
C       -0.26029446       0.22683446       0.67561468
C        1.51499756      -1.42924491       0.54911725
O        2.47410695      -0.56949996       0.66752598
C        2.34923897       0.56969272      -0.07349164
H       -2.92438252      -0.50549777       0.13714170
H       -3.07968847       0.37333910      -1.38605125
H       -2.81672692       1.25359686       0.12164918
H       -0.70038557       1.09873418      -1.23942940
H       -0.81751639      -0.64256048      -1.21746967
H       -0.43802226       1.14243155       1.25180820
H       -0.60533284      -0.58611304       1.31186534
H        1.50401565      -2.20827753       1.30057872
H        1.07837592      -1.60983789      -0.42814223
H        3.13920420       1.27139301       0.17021873
H        0.96442153       0.61811948       0.35988110
H        2.20770179       0.39204821      -1.14130535
18
Frame=1 idx=000736 GeodesicLength=0.08827917106998356 rxn_smarts="[C:1]([C:2]([C:3]([C:4]([O:5][C:6]([H:16])([H:17])[H:18])([H:14])[H:15])([H:12])[H:13])([H:10])[H:11])([H:7])([H:8])[H:9]>>[C-:4]([O+:5]=[C:6]([H:16])[H:18])([H:14])[H:15].[C:1]([C:2]([C:3]([H:12])([H:13])[H:17])([H:10])[H:11])([H:7])([H:8])[H:9]"
C       -2.56163206       0.34415238      -0.42320378
C       -1.05353724       0.24479327      -0.63141256
C       -0.26007327       0.22906534       0.66542312
C        1.49996549      -1.41875140       0.54055139
O        2.47150474      -0.57078984       0.68007859
C        2.37998542       0.56995397      -0.06184157
H       -2.93270120      -0.50454495       0.15680053
H       -3.09902904       0.35880855      -1.37413378
H       -2.82233430       1.25404834       0.12264128
H       -0.71798088       1.08008052      -1.25568389
H       -0.83948678      -0.65936716      -1.21355862
H       -0.44369138       1.14722094       1.23612280
H       -0.61124408      -0.57029530       1.31663781
H        1.48803896      -2.21605043       1.27280865
H        1.08989929      -1.59576071      -0.44929561
H        3.17209885       1.26192315       0.20120595
H        0.98176540       0.65137202       0.34929447
H        2.25845209       0.39414129      -1.13243478
18
Frame=2 idx=000736 GeodesicLength=0.1763847900042919 rxn_smarts="[C:1]([C:2]([C:3]([C:4]([O:5][C:6]([H:16])([H:17])[H:18])([H:14])[H:15])([H:12])[H:13])([H:10])[H:11])([H:7])([H:8])[H:9]>>[C-:4]([O+:5]=[C:6]([H:16])[H:18])([H:14])[H:15].[C:1]([C:2]([C:3]([H:12])([H:13])[H:17])([H:10])[H:11])([H:7])([H:8])[H:9]"
C       -2.57366560       0.33874638      -0.41505055
C       -1.06754544       0.23370708      -0.63429326
C       -0.25997810       0.23136269       0.65480816
C        1.48518096      -1.40800409       0.53074197
O        2.46832753      -0.57193577       0.69266225
C        2.41080369       0.57010330      -0.04909896
H       -2.94118487      -0.50282933       0.17746926
H       -3.11881403       0.34382079      -1.36157967
H       -2.82776075       1.25499795       0.12319364
H       -0.73595380       1.06004331      -1.27240982
H       -0.86219663      -0.67725129      -1.20880347
H       -0.44875824       1.15257243       1.21931000
H       -0.61667590      -0.55388874       1.32128162
H        1.47188559      -2.22328097       1.24319749
H        1.10187121      -1.58080183      -0.47103329
H        3.20430814       1.25218306       0.23411609
H        0.99955419       0.68455245       0.33768618
H        2.31060206       0.39590258      -1.12219766
18
Frame=3 idx=000736 GeodesicLength=0.2642966339964884 rxn_smarts="[C:1]([C:2]([C:3]([C:4]([O:5][C:6]([H:16])([H:17])[H:18])([H:14])[H:15])([H:12])[H:13])([H:10])[H:11])([H:7])([H:8])[H:9]>>[C-:4]([O+:5]=[C:6]([H:16])[H:18])([H:14])[H:15].[C:1]([C:2]([C:3]([H:12])([H:13])[H:17])([H:10])[H:11])([H:7])([H:8])[H:9]"
C       -2.58587761       0.33339593      -0.40657004
C       -1.08193597       0.22198127      -0.63710363
C       -0.26002336       0.23372524       0.64376662
C        1.47064884      -1.39699441       0.51967968
O        2.46456128      -0.57296650       0.70521339
C        2.44166258       0.57008790      -0.03528458
H       -2.94977870      -0.50037901       0.19908084
H       -3.13901828       0.32839542      -1.34837335
H       -2.83303506       1.25637609       0.12331420
H       -0.75433846       1.03865741      -1.28953074
H       -0.88558060      -0.69613683      -1.20317433
H       -0.45322765       1.15848384       1.20135471
H       -0.62160991      -0.53689175       1.32576837
H        1.45559642      -2.22988313       1.21177892
H        1.11424011      -1.56491902      -0.49333953
H        3.23574906       1.24211868       0.26890560
H        1.01788623       0.71768241       0.32504692
H        2.36408109       0.39726646      -1.11053306
18
Frame=4 idx=000736 GeodesicLength=0.3519984194944694 rxn_smarts="[C:1]([C:2]([C:3]([C:4]([O:5][C:6]([H:16])([H:17])[H:18])([H:14])[H:15])([H:12])[H:13])([H:10])[H:11])([H:7])([H:8])[H:9]>>[C-:4]([O+:5]=[C:6]([H:16])[H:18])([H:14])[H:15].[C:1]([C:2]([C:3]([H:12])([H:13])[H:17])([H:10])[H:11])([H:7])([H:8])[H:9]"
C       -2.59825042       0.32808483      -0.39776669
C       -1.09669818       0.20964174      -0.63981695
C       -0.26022325       0.23615141       0.63229653
C        1.45637446      -1.38570644       0.50735760
O        2.46018830      -0.57390846       0.71766572
C        2.47253466       0.56985286      -0.02042235
H       -2.95842857      -0.49721292       0.22157965
H       -3.15961422       0.31253718      -1.33449667
H       -2.83818511       1.25811666       0.12299754
H       -0.77316165       1.01595081      -1.30697117
H       -0.90957240      -0.71595036      -1.19663941
H       -0.45711282       1.16494835       1.18224146
H       -0.62603050      -0.51930060       1.33007092
H        1.43920436      -2.23576602       1.17856069
H        1.12695686      -1.54806768      -0.51619774
H        3.26633711       1.23167887       0.30552402
H        1.03686526       0.75078704       0.31139154
H        2.41881611       0.39816272      -1.09737468
18
Frame=5 idx=000736 GeodesicLength=0.43945517107561444 rxn_smarts="[C:1]([C:2]([C:3]([C:4]([O:5][C:6]([H:16])([H:17])[H:18])([H:14])[H:15])([H:12])[H:13])([H:10])[H:11])([H:7])([H:8])[H:9]>>[C-:4]([O+:5]=[C:6]([H:16])[H:18])([H:14])[H:15].[C:1]([C:2]([C:3]([H:12])([H:13])[H:17])([H:10])[H:11])([H:7])([H:8])[H:9]"
C       -2.61075670       0.32279871      -0.38865516
C       -1.11180944       0.19673024      -0.64240626
C       -0.26058773       0.23863677       0.62040258
C        1.44236569      -1.37412614       0.49379538
O        2.45519754      -0.57477993       0.72995767
C        2.50336821       0.56932256      -0.00456339
H       -2.96707149      -0.49338013       0.24486514
H       -3.18055754       0.29628546      -1.31995352
H       -2.84323922       1.26013795       0.12226846
H       -0.79244281       0.99198859      -1.32463820
H       -0.93407995      -0.73659006      -1.18918664
H       -0.46042266       1.17194952       1.16197052
H       -0.62992935      -0.50111760       1.33416229
H        1.42276890      -2.24086175       1.14362312
H        1.13996795      -1.53022989      -0.53957567
H        3.29595416       1.22081330       0.34386394
H        1.05661210       0.78388281       0.29673627
H        2.47466234       0.39853959      -1.08266652
18
Frame=6 idx=000736 GeodesicLength=0.5266742161697443 rxn_smarts="[C:1]([C:2]([C:3]([C:4]([O:5][C:6]([H:16])([H:17])[H:18])([H:14])[H:15])([H:12])[H:13])([H:10])[H:11])([H:7])([H:8])[H:9]>>[C-:4]([O+:5]=[C:6]([H:16])[H:18])([H:14])[H:15].[C:1]([C:2]([C:3]([H:12])([H:13])[H:17])([H:10])[H:11])([H:7])([H:8])[H:9]"
C       -2.62338264       0.31752591      -0.37924726
C       -1.12726030       0.18327594      -0.64484663
C       -0.26114105       0.24116947       0.60808722
C        1.42863207      -1.36221620       0.47899882
O        2.44958971      -0.57559284       0.74199933
C        2.53412276       0.56846087       0.01227282
H       -2.97566488      -0.48889401       0.26887333
H       -3.20181850       0.27964915      -1.30473463
H       -2.84822874       1.26237844       0.12111647
H       -0.81220184       0.96680827      -1.34244659
H       -0.95903658      -0.75797746      -1.18079382
H       -0.46318624       1.17945824       1.14053125
H       -0.63331381      -0.48235473       1.33800956
H        1.40636698      -2.24508897       1.10698935
H        1.15322074      -1.51136176      -0.56344714
H        3.32453101       1.20947155       0.38383881
H        1.07724218       0.81700951       0.28114679
H        2.53152914       0.39827861      -1.06634768
18
Frame=7 idx=000736 GeodesicLength=0.6136183917336369 rxn_smarts="[C:1]([C:2]([C:3]([C:4]([O:5][C:6]([H:16])([H:17])[H:18])([H:14])[H:15])([H:12])[H:13])([H:10])[H:11])([H:7])([H:8])[H:9]>>[C-:4]([O+:5]=[C:6]([H:16])[H:18])([H:14])[H:15].[C:1]([C:2]([C:3]([H:12])([H:13])[H:17])([H:10])[H:11])([H:7])([H:8])[H:9]"
C       -2.63610380       0.31225084      -0.36956601
C       -1.14302606       0.16932745      -0.64711361
C       -0.26190056       0.24373794       0.59536418
C        1.41518930      -1.34994407       0.46301170
O        2.44337480      -0.57635137       0.75370854
C        2.56472958       0.56721634       0.03003170
H       -2.98415220      -0.48381488       0.29348702
H       -3.22334738       0.26267745      -1.28885770
H       -2.85319002       1.26475335       0.11956957
H       -0.83245242       0.94050205      -1.36029002
H       -0.98434112      -0.78000104      -1.17146324
H       -0.46542724       1.18743953       1.11793209
H       -0.63619464      -0.46302270       1.34158223
H        1.39008206      -2.24838565       1.06875000
H        1.16666023      -1.49145126      -0.58776789
H        3.35196531       1.19761518       0.42529128
H        1.09888600       0.85019305       0.26470048
H        2.58924817       0.39725777      -1.04837033
18
Frame=8 idx=000736 GeodesicLength=0.7002833400900546 rxn_smarts="[C:1]([C:2]([C:3]([C:4]([O:5][C:6]([H:16])([H:17])[H:18])([H:14])[H:15])([H:12])[H:13])([H:10])[H:11])([H:7])([H:8])[H:9]>>[C-:4]([O+:5]=[C:6]([H:16])[H:18])([H:14])[H:15].[C:1]([C:2]([C:3]([H:12])([H:13])[H:17])([H:10])[H:11])([H:7])([H:8])[H:9]"
C       -2.64890670       0.30696636      -0.35963519
C       -1.15909158       0.15492084      -0.64918291
C       -0.26289530       0.24632213       0.58225052
C        1.40205054      -1.33726060       0.44586263
O        2.43656533      -0.57705332       0.76500023
C        2.59513826       0.56555372       0.04866503
H       -2.99249812      -0.47816993       0.31861257
H       -3.24510624       0.24539986      -1.27233722
H       -2.85815926       1.26720200       0.11762797
H       -0.85320048       0.91313104      -1.37807667
H       -1.00991456      -0.80257086      -1.16119575
H       -0.46718741       1.19584072       1.09418439
H       -0.63860029      -0.44315430       1.34484586
H        1.37402403      -2.25068027       1.02898261
H        1.18023852      -1.47046811      -0.61249584
H        3.37820224       1.18519468       0.46806689
H        1.12167786       0.88347042       0.24752504
H        2.64766317       0.39535563      -1.02870018
18
Frame=9 idx=000736 GeodesicLength=0.7871195452604716 rxn_smarts="[C:1]([C:2]([C:3]([C:4]([O:5][C:6]([H:16])([H:17])[H:18])([H:14])[H:15])([H:12])[H:13])([H:10])[H:11])([H:7])([H:8])[H:9]>>[C-:4]([O+:5]=[C:6]([H:16])[H:18])([H:14])[H:15].[C:1]([C:2]([C:3]([H:12])([H:13])[H:17])([H:10])[H:11])([H:7])([H:8])[H:9]"
C       -2.66183020       0.30164985      -0.34948397
C       -1.17549669       0.14005984      -0.65101303
C       -0.26423010       0.24884112       0.56880402
C        1.38920612      -1.32401368       0.42759759
O        2.42918859      -0.57762123       0.77580678
C        2.62547083       0.56353872       0.06815289
H       -3.00073748      -0.47204265       0.34410968
H       -3.26708999       0.22788527      -1.25521372
H       -2.86320711       1.26962381       0.11532402
H       -0.87448673       0.88475270      -1.39567705
H       -1.03574786      -0.82561338      -1.14998913
H       -0.46854862       1.20452209       1.06930739
H       -0.64067146      -0.42285390       1.34779997
H        1.35829148      -2.25194164       0.98777514
H        1.19384707      -1.44827636      -0.63763567
H        3.40348794       1.17214887       0.51197072
H        1.14569305       0.91712437       0.22971159
H        2.70686117       0.39221619      -1.00734722
18
Frame=10 idx=000736 GeodesicLength=0.8736855386820327 rxn_smarts="[C:1]([C:2]([C:3]([C:4]([O:5][C:6]([H:16])([H:17])[H:18])([H:14])[H:15])([H:12])[H:13])([H:10])[H:11])([H:7])([H:8])[H:9]>>[C-:4]([O+:5]=[C:6]([H:16])[H:18])([H:14])[H:15].[C:1]([C:2]([C:3]([H:12])([H:13])[H:17])([H:10])[H:11])([H:7])([H:8])[H:9]"
C       -2.67480742       0.29630127      -0.33913324
C       -1.19216445       0.12479691      -0.65259171
C       -0.26586448       0.25132732       0.55502569
C        1.37669168      -1.31025247       0.40825923
O        2.42124619      -0.57809738       0.78606976
C        2.65552550       0.56102130       0.08839070
H       -3.00879254      -0.46541709       0.36993503
H       -3.28921649       0.21011791      -1.23749781
H       -2.86832554       1.27200267       0.11262551
H       -0.89625700       0.85541604      -1.41304426
H       -1.06169377      -0.84905136      -1.13783143
H       -0.46951238       1.21351435       1.04330559
H       -0.64234313      -0.40206725       1.35041346
H        1.34295184      -2.25208665       0.94512319
H        1.20751551      -1.42493227      -0.66309357
H        3.42749038       1.15846836       0.55687038
H        1.17113932       0.95099037       0.21145057
H        2.76641678       0.38794796      -0.98427708
18
Frame=11 idx=000736 GeodesicLength=0.959989016598566 rxn_smarts="[C:1]([C:2]([C:3]([C:4]([O:5][C:6]([H:16])([H:17])[H:18])([H:14])[H:15])([H:12])[H:13])([H:10])[H:11])([H:7])([H:8])[H:9]>>[C-:4]([O+:5]=[C:6]([H:16])[H:18])([H:14])[H:15].[C:1]([C:2]([C:3]([H:12])([H:13])[H:17])([H:10])[H:11])([H:7])([H:8])[H:9]"
C       -2.68782083       0.29091063      -0.32861472
C       -1.20907072       0.10915366      -0.65389546
C       -0.26782613       0.25375157       0.54094779
C        1.36451426      -1.29593521       0.38791253
O        2.41275788      -0.57845998       0.79575483
C        2.68526868       0.55794660       0.10930113
H       -3.01665209      -0.45833840       0.39598608
H       -3.31143406       0.19213519      -1.21923055
H       -2.87353597       1.27428323       0.10954084
H       -0.91848363       0.82516164      -1.43010191
H       -1.08767509      -0.87282190      -1.12471807
H       -0.47012138       1.22275780       1.01619703
H       -0.64366367      -0.38081527       1.35268168
H        1.32807493      -2.25108691       0.90109546
H        1.22120492      -1.40040962      -0.68881903
H        3.45019891       1.14410007       0.60257215
H        1.19816300       0.98515089       0.19291221
H        2.82610098       0.38251602      -0.95952199
18
Frame=12 idx=000736 GeodesicLength=1.0460597136104983 rxn_smarts="[C:1]([C:2]([C:3]([C:4]([O:5][C:6]([H:16])([H:17])[H:18])([H:14])[H:15])([H:12])[H:13])([H:10])[H:11])([H:7])([H:8])[H:9]>>[C-:4]([O+:5]=[C:6]([H:16])[H:18])([H:14])[H:15].[C:1]([C:2]([C:3]([H:12])([H:13])[H:17])([H:10])[H:11])([H:7])([H:8])[H:9]"
C       -2.70086936       0.28546575      -0.31795165
C       -1.22620705       0.09312904      -0.65489909
C       -0.27015136       0.25609013       0.52660173
C        1.35267720      -1.28100271       0.36659017
O        2.40372978      -0.57868587       0.80483315
C        2.71470060       0.55426318       0.13083012
H       -3.02432443      -0.45079932       0.42221967
H       -3.33371551       0.17391826      -1.20043246
H       -2.87886412       1.27643445       0.10602582
H       -0.94114784       0.79398345      -1.44679298
H       -1.11364721      -0.89690112      -1.11061702
H       -0.47042854       1.23219909       0.98797778
H       -0.64468221      -0.35911330       1.35460083
H        1.31372080      -2.24889217       0.85568305
H        1.23489470      -1.37463226      -0.71479057
H        3.47163852       1.12897530       0.64892763
H        1.22691751       1.01969410       0.17430113
H        2.88575852       0.37587400      -0.93310731
18
Frame=13 idx=000736 GeodesicLength=1.1319475479688512 rxn_smarts="[C:1]([C:2]([C:3]([C:4]([O:5][C:6]([H:16])([H:17])[H:18])([H:14])[H:15])([H:12])[H:13])([H:10])[H:11])([H:7])([H:8])[H:9]>>[C-:4]([O+:5]=[C:6]([H:16])[H:18])([H:14])[H:15].[C:1]([C:2]([C:3]([H:12])([H:13])[H:17])([H:10])[H:11])([H:7])([H:8])[H:9]"
C       -2.71395721       0.27994972      -0.30717457
C       -1.24356583       0.07673589      -0.65557499
C       -0.27288508       0.25831451       0.51203243
C        1.34118383      -1.26538774       0.34434892
O        2.39417635      -0.57872544       0.81327217
C        2.74381720       0.54993430       0.15291492
H       -3.03182369      -0.44285276       0.44853539
H       -3.35602725       0.15549637      -1.18115249
H       -2.88435057       1.27839710       0.10209229
H       -0.96423175       0.76191445      -1.46304231
H       -1.13954928      -0.92124067      -1.09551976
H       -0.47049458       1.24177258       0.95866697
H       -0.64546569      -0.33698076       1.35617597
H        1.29996935      -2.24546446       0.80893870
H        1.24854986      -1.34753485      -0.74097158
H        3.49186361       1.11304029       0.69576353
H        1.25754520       1.05474647       0.15579532
H        2.94524553       0.36788501      -0.90510089
18
Frame=14 idx=000736 GeodesicLength=1.217672660520559 rxn_smarts="[C:1]([C:2]([C:3]([C:4]([O:5][C:6]([H:16])([H:17])[H:18])([H:14])[H:15])([H:12])[H:13])([H:10])[H:11])([H:7])([H:8])[H:9]>>[C-:4]([O+:5]=[C:6]([H:16])[H:18])([H:14])[H:15].[C:1]([C:2]([C:3]([H:12])([H:13])[H:17])([H:10])[H:11])([H:7])([H:8])[H:9]"
C       -2.72710034       0.27434705      -0.29629190
C       -1.26115972       0.05993781      -0.65589990
C       -0.27606299       0.26041549       0.49724957
C        1.33003483      -1.24900631       0.32117547
O        2.38410610      -0.57856735       0.82104187
C        2.77263866       0.54492129       0.17555515
H       -3.03916866      -0.43445597       0.47494806
H       -3.37837822       0.13680873      -1.16137801
H       -2.89002091       1.28016057       0.09766204
H       -0.98774665       0.72886890      -1.47883573
H       -1.16537536      -0.94587566      -1.07934856
H       -0.47035599       1.25144883       0.92819526
H       -0.64604986      -0.31438667       1.35740606
H        1.28686288      -2.24073775       0.76077015
H        1.26216431      -1.31897281      -0.76739128
H        3.51094140       1.09620396       0.74301887
H        1.29024202       1.09038966       0.13760113
H        3.00442850       0.35850025      -0.87547824
18
Frame=15 idx=000736 GeodesicLength=1.3032553955645265 rxn_smarts="[C:1]([C:2]([C:3]([C:4]([O:5][C:6]([H:16])([H:17])[H:18])([H:14])[H:15])([H:12])[H:13])([H:10])[H:11])([H:7])([H:8])[H:9]>>[C-:4]([O+:5]=[C:6]([H:16])[H:18])([H:14])[H:15].[C:1]([C:2]([C:3]([H:12])([H:13])[H:17])([H:10])[H:11])([H:7])([H:8])[H:9]"
C       -2.74031349       0.26863191      -0.28532683
C       -1.27899425       0.04272211      -0.65584346
C       -0.27972937       0.26238116       0.48228466
C        1.31923086      -1.23176651       0.29709517
O        2.37353431      -0.57817109       0.82811184
C        2.80117290       0.53918937       0.19871843
H       -3.04638092      -0.42564076       0.50139581
H       -3.40075674       0.11784657      -1.14113687
H       -2.89591929       1.28167117       0.09272089
H       -1.01169617       0.69482572      -1.49412297
H       -1.19108305      -0.97079495      -1.06205691
H       -0.47006080       1.26118215       0.89653098
H       -0.64649726      -0.29130760       1.35829726
H        1.27445947      -2.23464447       0.71116179
H        1.27571248      -1.28881849      -0.79404029
H        3.52894782       1.07839480       0.79057107
H        1.32520045       1.12672796       0.11991659
H        3.06317305       0.34757096      -0.84427715
18
Frame=16 idx=000736 GeodesicLength=1.3887398198509826 rxn_smarts="[C:1]([C:2]([C:3]([C:4]([O:5][C:6]([H:16])([H:17])[H:18])([H:14])[H:15])([H:12])[H:13])([H:10])[H:11])([H:7])([H:8])[H:9]>>[C-:4]([O+:5]=[C:6]([H:16])[H:18])([H:14])[H:15].[C:1]([C:2]([C:3]([H:12])([H:13])[H:17])([H:10])[H:11])([H:7])([H:8])[H:9]"
C       -2.75363063       0.26277312      -0.27426860
C       -1.29710301       0.02503031      -0.65536955
C       -0.28392622       0.26422825       0.46713261
C        1.30876818      -1.21354071       0.27204207
O        2.36244684      -0.57750610       0.83443681
C        2.82945193       0.53270949       0.22245340
H       -3.05347958      -0.41635051       0.52793604
H       -3.42319973       0.09850045      -1.12038029
H       -2.90209332       1.28290868       0.08717271
H       -1.03612904       0.65964629      -1.50889792
H       -1.21668246      -0.99606337      -1.04351638
H       -0.46965582       1.27096828       0.86355198
H       -0.64683211      -0.26765778       1.35884728
H        1.26280445      -2.22708813       0.65992174
H        1.28919185      -1.25683115      -0.82099578
H        3.54596316       1.05949362       0.83845766
H        1.36263747       1.16387424       0.10290230
H        3.12146806       0.33490503      -0.81142608
