12
Frame=0 idx=007988 GeodesicLength=0.0 rxn_smarts="[N:1]([c:2]1[n:3][c:4]([H:10])[c:5]([H:11])[c:6]([H:12])[n:7]1)([H:8])[H:9]>>[N:1]([C@@:2]12[N:3]3[C:4]([H:10])=[C:5]([H:11])[C@:6]1([H:12])[N:7]23)([H:8])[H:9]"
N        2.05517623       0.18389500       0.11818078
C        0.72428355       0.07968704      -0.26238184
N        0.00888829      -1.15988245      -0.48989325
C       -1.18676134      -1.11821271       0.12375174
C       -1.53175646       0.15115555       0.49331299
C       -0.52195574       1.00499784      -0.04849885
N        0.14540227       0.63068873      -1.34071350
H        2.67546291       0.20454335      -0.67927171
H        2.33259524      -0.52223835       0.78226221
H       -1.80601961      -2.00463254       0.13804946
H       -2.40169457       0.47613678       1.04339737
H       -0.49362075       2.07386172       0.12180455
12
Frame=1 idx=007988 GeodesicLength=0.0488226527382894 rxn_smarts="[N:1]([c:2]1[n:3][c:4]([H:10])[c:5]([H:11])[c:6]([H:12])[n:7]1)([H:8])[H:9]>>[N:1]([C@@:2]12[N:3]3[C:4]([H:10])=[C:5]([H:11])[C@:6]1([H:12])[N:7]23)([H:8])[H:9]"
N        2.06499141       0.17129289       0.11459255
C        0.73028707       0.07656045      -0.24933853
N        0.01135982      -1.15549207      -0.48657285
C       -1.18794106      -1.11397340       0.12491835
C       -1.54041959       0.15440426       0.48819819
C       -0.52646685       1.01178361      -0.04139855
N        0.14705546       0.63519759      -1.32278703
H        2.67778498       0.21429372      -0.68741346
H        2.35260542      -0.54559763       0.76239718
H       -1.79536765      -2.00786033       0.16110364
H       -2.42868025       0.47825795       1.00882217
H       -0.50520876       2.08113295       0.12747835
12
Frame=2 idx=007988 GeodesicLength=0.09758633777282753 rxn_smarts="[N:1]([c:2]1[n:3][c:4]([H:10])[c:5]([H:11])[c:6]([H:12])[n:7]1)([H:8])[H:9]>>[N:1]([C@@:2]12[N:3]3[C:4]([H:10])=[C:5]([H:11])[C@:6]1([H:12])[N:7]23)([H:8])[H:9]"
N        2.07460154       0.15839995       0.11095473
C        0.73627182       0.07336130      -0.23615497
N        0.01374479      -1.15096099      -0.48352725
C       -1.18929404      -1.10966014       0.12563579
C       -1.54917763       0.15764663       0.48278432
C       -0.53114764       1.01864666      -0.03427475
N        0.14895088       0.63996455      -1.30461566
H        2.67993225       0.22412670      -0.69483352
H        2.37203789      -0.56925883       0.74187565
H       -1.78412639      -2.01068126       0.18522154
H       -2.45462476       0.47995862       0.97388746
H       -0.51716871       2.08845680       0.13304668
12
Frame=3 idx=007988 GeodesicLength=0.14627556707152836 rxn_smarts="[N:1]([c:2]1[n:3][c:4]([H:10])[c:5]([H:11])[c:6]([H:12])[n:7]1)([H:8])[H:9]>>[N:1]([C@@:2]12[N:3]3[C:4]([H:10])=[C:5]([H:11])[C@:6]1([H:12])[N:7]23)([H:8])[H:9]"
N        2.08399648       0.14532187       0.10725849
C        0.74224314       0.07005936      -0.22283970
N        0.01610912      -1.14637613      -0.48060451
C       -1.19077607      -1.10534154       0.12602478
C       -1.55800306       0.16085267       0.47707859
C       -0.53603378       1.02554641      -0.02725245
N        0.15106630       0.64481106      -1.28627087
H        2.68194382       0.23392435      -0.70152042
H        2.39085261      -0.59291881       0.72091531
H       -1.77259818      -2.01289207       0.20969364
H       -2.47922995       0.48119811       0.93927253
H       -0.52957044       2.09581472       0.13824460
12
Frame=4 idx=007988 GeodesicLength=0.19487409372462827 rxn_smarts="[N:1]([c:2]1[n:3][c:4]([H:10])[c:5]([H:11])[c:6]([H:12])[n:7]1)([H:8])[H:9]>>[N:1]([C@@:2]12[N:3]3[C:4]([H:10])=[C:5]([H:11])[C@:6]1([H:12])[N:7]23)([H:8])[H:9]"
N        2.09316333       0.13213508       0.10351279
C        0.74820883       0.06663178      -0.20940713
N        0.01849645      -1.14178984      -0.47769878
C       -1.19233478      -1.10106221       0.12618649
C       -1.56686585       0.16399319       0.47105603
C       -0.54114255       1.03243581      -0.02043208
N        0.15337034       0.64959057      -1.26779790
H        2.68383015       0.24365629      -0.70743673
H        2.40903998      -0.61638285       0.69964952
H       -1.76102596      -2.01435612       0.23400403
H       -2.50229673       0.48198541       0.90549496
H       -0.54244322       2.10316289       0.14286881
12
Frame=5 idx=007988 GeodesicLength=0.2433770924832808 rxn_smarts="[N:1]([c:2]1[n:3][c:4]([H:10])[c:5]([H:11])[c:6]([H:12])[n:7]1)([H:8])[H:9]>>[N:1]([C@@:2]12[N:3]3[C:4]([H:10])=[C:5]([H:11])[C@:6]1([H:12])[N:7]23)([H:8])[H:9]"
N        2.10216167       0.11904878       0.09966534
C        0.75422208       0.06305511      -0.19582947
N        0.02104830      -1.13736581      -0.47440461
C       -1.19379477      -1.09693333       0.12661286
C       -1.57564965       0.16703288       0.46491203
C       -0.54648955       1.03926114      -0.01396119
N        0.15578949       0.65395574      -1.24928351
H        2.68563393       0.25316882      -0.71271546
H        2.42670584      -0.63914192       0.67840607
H       -1.75019595      -2.01489653       0.25668630
H       -2.52357406       0.48231083       0.87343145
H       -0.55585732       2.11050429       0.14648018
12
Frame=6 idx=007988 GeodesicLength=0.2917659048910727 rxn_smarts="[N:1]([c:2]1[n:3][c:4]([H:10])[c:5]([H:11])[c:6]([H:12])[n:7]1)([H:8])[H:9]>>[N:1]([C@@:2]12[N:3]3[C:4]([H:10])=[C:5]([H:11])[C@:6]1([H:12])[N:7]23)([H:8])[H:9]"
N        2.11103985       0.10615227       0.09569051
C        0.76032911       0.05933633      -0.18210241
N        0.02382734      -1.13315366      -0.47054421
C       -1.19503395      -1.09294169       0.12757238
C       -1.58423453       0.16996789       0.45884443
C       -0.55206733       1.04598775      -0.00788691
N        0.15826824       0.65780091      -1.23075205
H        2.68736615       0.26242137      -0.71751472
H        2.44394834      -0.66102358       0.65735096
H       -1.74047461      -2.01455892       0.27711728
H       -2.54315547       0.48226047       0.84329235
H       -0.56981313       2.11775086       0.14893238
12
Frame=7 idx=007988 GeodesicLength=0.34007125106471586 rxn_smarts="[N:1]([c:2]1[n:3][c:4]([H:10])[c:5]([H:11])[c:6]([H:12])[n:7]1)([H:8])[H:9]>>[N:1]([C@@:2]12[N:3]3[C:4]([H:10])=[C:5]([H:11])[C@:6]1([H:12])[N:7]23)([H:8])[H:9]"
N        2.11981006       0.09342381       0.09155369
C        0.76654176       0.05548559      -0.16823429
N        0.02681891      -1.12911837      -0.46616662
C       -1.19604369      -1.08909116       0.12907780
C       -1.59262112       0.17280011       0.45285633
C       -0.55782985       1.05266244      -0.00214843
N        0.16081530       0.66118670      -1.21216271
H        2.68905036       0.27140235      -0.72184484
H        2.46079000      -0.68208011       0.63641304
H       -1.73182822      -2.01350283       0.29547626
H       -2.56126395       0.48183918       0.81489057
H       -0.58423955       2.12499227       0.15028920
12
Frame=8 idx=007988 GeodesicLength=0.3882985904250736 rxn_smarts="[N:1]([c:2]1[n:3][c:4]([H:10])[c:5]([H:11])[c:6]([H:12])[n:7]1)([H:8])[H:9]>>[N:1]([C@@:2]12[N:3]3[C:4]([H:10])=[C:5]([H:11])[C@:6]1([H:12])[N:7]23)([H:8])[H:9]"
N        2.12846731       0.08072921       0.08726369
C        0.77285870       0.05151579      -0.15422423
N        0.02993535      -1.12516131      -0.46149449
C       -1.19688329      -1.08530232       0.13095061
C       -1.60084081       0.17556126       0.44690197
C       -0.56372909       1.05932499       0.00340518
N        0.16345201       0.66435898      -1.19341407
H        2.69069451       0.28031430      -0.72565690
H        2.47723034      -0.70273077       0.61527303
H       -1.72381581      -2.01195095       0.31270123
H       -2.57832264       0.48112672       0.78745325
H       -0.59904658       2.13221409       0.15084074
12
Frame=9 idx=007988 GeodesicLength=0.43643838778902977 rxn_smarts="[N:1]([c:2]1[n:3][c:4]([H:10])[c:5]([H:11])[c:6]([H:12])[n:7]1)([H:8])[H:9]>>[N:1]([C@@:2]12[N:3]3[C:4]([H:10])=[C:5]([H:11])[C@:6]1([H:12])[N:7]23)([H:8])[H:9]"
N        2.13702598       0.06817293       0.08280212
C        0.77930588       0.04743182      -0.14009336
N        0.03323088      -1.12133087      -0.45640313
C       -1.19748865      -1.08158771       0.13332877
C       -1.60882453       0.17824504       0.44108102
C       -0.56977237       1.06596915       0.00868240
N        0.16615333       0.66721281      -1.17456540
H        2.69232174       0.28899160      -0.72905520
H        2.49327858      -0.72270395       0.59419969
H       -1.71676034      -2.00994602       0.32817263
H       -2.59422013       0.48013050       0.76145955
H       -0.61425036       2.13941470       0.15039090
12
Frame=10 idx=007988 GeodesicLength=0.4844898960521233 rxn_smarts="[N:1]([c:2]1[n:3][c:4]([H:10])[c:5]([H:11])[c:6]([H:12])[n:7]1)([H:8])[H:9]>>[N:1]([C@@:2]12[N:3]3[C:4]([H:10])=[C:5]([H:11])[C@:6]1([H:12])[N:7]23)([H:8])[H:9]"
N        2.14549724       0.05583886       0.07815763
C        0.78589772       0.04325342      -0.12589767
N        0.03673873      -1.11764012      -0.45085071
C       -1.19782539      -1.07794291       0.13625406
C       -1.61653104       0.18084719       0.43542960
C       -0.57597194       1.07260403       0.01357556
N        0.16890278       0.66969369      -1.15567988
H        2.69393459       0.29721933      -0.73217031
H        2.50894909      -0.74173342       0.57354020
H       -1.71087912      -2.00757091       0.34143160
H       -2.60888197       0.47885843       0.73739035
H       -0.62983070       2.14657241       0.14881957
12
Frame=11 idx=007988 GeodesicLength=0.532468009328382 rxn_smarts="[N:1]([c:2]1[n:3][c:4]([H:10])[c:5]([H:11])[c:6]([H:12])[n:7]1)([H:8])[H:9]>>[N:1]([C@@:2]12[N:3]3[C:4]([H:10])=[C:5]([H:11])[C@:6]1([H:12])[N:7]23)([H:8])[H:9]"
N        2.15386304       0.04362331       0.07334656
C        0.79263219       0.03897550      -0.11162118
N        0.04039419      -1.11402799      -0.44499543
C       -1.19795731      -1.07432232       0.13958709
C       -1.62400158       0.18339043       0.42990595
C       -0.58229239       1.07925480       0.01819448
N        0.17172201       0.67197140      -1.13667882
H        2.69554473       0.30520212      -0.73491208
H        2.52422431      -0.76016783       0.55299755
H       -1.70581786      -2.00495377       0.35318775
H       -2.62258891       0.47735215       0.71468410
H       -0.64572243       2.15370219       0.14630403
12
Frame=12 idx=007988 GeodesicLength=0.5803734725821339 rxn_smarts="[N:1]([c:2]1[n:3][c:4]([H:10])[c:5]([H:11])[c:6]([H:12])[n:7]1)([H:8])[H:9]>>[N:1]([C@@:2]12[N:3]3[C:4]([H:10])=[C:5]([H:11])[C@:6]1([H:12])[N:7]23)([H:8])[H:9]"
N        2.16210278       0.03142408       0.06836790
C        0.79949070       0.03457991      -0.09728126
N        0.04412171      -1.11042749      -0.43902645
C       -1.19794586      -1.07069445       0.14316134
C       -1.63127716       0.18588920       0.42445247
C       -0.58871133       1.08595089       0.02265272
N        0.17463585       0.67421472      -1.11748662
H        2.69716745       0.31303874      -0.73722629
H        2.53908212      -0.77825974       0.53236796
H       -1.70118754      -2.00214856       0.36413573
H       -2.63559807       0.47563252       0.69281112
H       -0.66188066       2.16080018       0.14307137
12
Frame=13 idx=007988 GeodesicLength=0.6282531709707088 rxn_smarts="[N:1]([c:2]1[n:3][c:4]([H:10])[c:5]([H:11])[c:6]([H:12])[n:7]1)([H:8])[H:9]>>[N:1]([C@@:2]12[N:3]3[C:4]([H:10])=[C:5]([H:11])[C@:6]1([H:12])[N:7]23)([H:8])[H:9]"
N        2.17022436       0.01920967       0.06320130
C        0.80649172       0.03006426      -0.08285291
N        0.04791352      -1.10680564      -0.43294306
C       -1.19778179      -1.06704238       0.14703272
C       -1.63837143       0.18834236       0.41911373
C       -0.59521041       1.09269763       0.02704293
N        0.17763156       0.67646273      -1.09801324
H        2.69877602       0.32080423      -0.73910413
H        2.55356313      -0.79613894       0.51146767
H       -1.69689742      -1.99919242       0.37447578
H       -2.64805177       0.47373835       0.67138373
H       -0.67828749       2.16786015       0.13919550
12
Frame=14 idx=007988 GeodesicLength=0.6760638042048366 rxn_smarts="[N:1]([c:2]1[n:3][c:4]([H:10])[c:5]([H:11])[c:6]([H:12])[n:7]1)([H:8])[H:9]>>[N:1]([C@@:2]12[N:3]3[C:4]([H:10])=[C:5]([H:11])[C@:6]1([H:12])[N:7]23)([H:8])[H:9]"
N        2.17821081       0.00704139       0.05786688
C        0.81362595       0.02542243      -0.06838630
N        0.05178434      -1.10319450      -0.42673517
C       -1.19745406      -1.06336573       0.15116840
C       -1.64523488       0.19075719       0.41389287
C       -0.60181042       1.09949480       0.03122667
N        0.18070942       0.67867243      -1.07834509
H        2.70041155       0.32836382      -0.74058558
H        2.56763536      -0.81359703       0.49060019
H       -1.69311663      -1.99611051       0.38380565
H       -2.65979739       0.47166042       0.65099697
H       -0.69496404       2.17485529       0.13449451
12
Frame=15 idx=007988 GeodesicLength=0.7238330250486122 rxn_smarts="[N:1]([c:2]1[n:3][c:4]([H:10])[c:5]([H:11])[c:6]([H:12])[n:7]1)([H:8])[H:9]>>[N:1]([C@@:2]12[N:3]3[C:4]([H:10])=[C:5]([H:11])[C@:6]1([H:12])[N:7]23)([H:8])[H:9]"
N        2.18607929      -0.00509245       0.05234514
C        0.82091682       0.02065605      -0.05386125
N        0.05572363      -1.09957305      -0.42039999
C       -1.19696172      -1.05965857       0.15563647
C       -1.65189002       0.19313415       0.40882890
C       -0.60849256       1.10635464       0.03528524
N        0.18386464       0.68087452      -1.05841000
H        2.70206801       0.33577034      -0.74168375
H        2.58133017      -0.83073670       0.46962610
H       -1.68978171      -1.99293076       0.39227172
H       -2.67097817       0.46940553       0.63133515
H       -0.71187836       2.18179631       0.12902627
12
Frame=16 idx=007988 GeodesicLength=0.771568724711513 rxn_smarts="[N:1]([c:2]1[n:3][c:4]([H:10])[c:5]([H:11])[c:6]([H:12])[n:7]1)([H:8])[H:9]>>[N:1]([C@@:2]12[N:3]3[C:4]([H:10])=[C:5]([H:11])[C@:6]1([H:12])[N:7]23)([H:8])[H:9]"
N        2.19381245      -0.01725662       0.04663401
C        0.82835446       0.01573988      -0.03926981
N        0.05969127      -1.09590819      -0.41402937
C       -1.19633453      -1.05590243       0.16036358
C       -1.65836925       0.19548673       0.40387592
C       -0.61524769       1.11328917       0.03928840
N        0.18711459       0.68316025      -1.03813989
H        2.70375264       0.34312297      -0.74232181
H        2.59463715      -0.84772020       0.44835705
H       -1.68668081      -1.98966816       0.40027788
H       -2.68171204       0.46698930       0.61206755
H       -0.72901825       2.18866729       0.12289649
