8
Frame=0 idx=005203 GeodesicLength=0.0 rxn_smarts="[O:1]=[C:2]([C:3](=[O:4])[C:5](=[O:6])[H:8])[H:7]>>[C-:3]#[O+:4].[O+:1](=[C-:2][H:7])[C:5](=[O:6])[H:8]"
O       -0.67783412      -0.53093846       0.73726319
C       -0.95008726       0.68485688       0.63918634
C        0.44119268       0.91777436      -0.86820657
O        0.77109730       1.90144238      -1.33942717
C        0.56586282      -1.03787527      -0.05376834
O        1.56329004      -1.21882792       0.55024497
H       -1.86676179       0.90235330       1.22049737
H        0.15324034      -1.61878528      -0.88578979
8
Frame=1 idx=005203 GeodesicLength=0.05378068132623263 rxn_smarts="[O:1]=[C:2]([C:3](=[O:4])[C:5](=[O:6])[H:8])[H:7]>>[C-:3]#[O+:4].[O+:1](=[C-:2][H:7])[C:5](=[O:6])[H:8]"
O       -0.68819652      -0.53761196       0.75395242
C       -0.92957869       0.68570262       0.66731798
C        0.44593634       0.92038023      -0.85385206
O        0.75546656       1.89937659      -1.35026307
C        0.56817028      -1.03856601      -0.05994145
O        1.56299363      -1.22612604       0.54714851
H       -1.87678176       0.91451699       1.19257508
H        0.16199016      -1.61767243      -0.89693742
8
Frame=2 idx=005203 GeodesicLength=0.10759264418234801 rxn_smarts="[O:1]=[C:2]([C:3](=[O:4])[C:5](=[O:6])[H:8])[H:7]>>[C-:3]#[O+:4].[O+:1](=[C-:2][H:7])[C:5](=[O:6])[H:8]"
O       -0.70132752      -0.54530362       0.76759929
C       -0.91220909       0.68450032       0.69206506
C        0.45284669       0.92369146      -0.83748128
O        0.73623425       1.89665619      -1.36267964
C        0.57057774      -1.03920203      -0.06595751
O        1.56072741      -1.23375817       0.54735126
H       -1.88077453       0.92928362       1.16883336
H        0.17392505      -1.61586776      -0.90973053
8
Frame=3 idx=005203 GeodesicLength=0.16140522283880757 rxn_smarts="[O:1]=[C:2]([C:3](=[O:4])[C:5](=[O:6])[H:8])[H:7]>>[C-:3]#[O+:4].[O+:1](=[C-:2][H:7])[C:5](=[O:6])[H:8]"
O       -0.71590937      -0.55323526       0.77981473
C       -0.89700419       0.68203282       0.71458005
C        0.45999491       0.92710008      -0.82107732
O        0.71586215       1.89314514      -1.37452489
C        0.57303657      -1.03968251      -0.07202543
O        1.55762004      -1.24084389       0.54887283
H       -1.88113950       0.94549915       1.14744004
H        0.18753940      -1.61401553      -0.92308001
8
Frame=4 idx=005203 GeodesicLength=0.215219948425997 rxn_smarts="[O:1]=[C:2]([C:3](=[O:4])[C:5](=[O:6])[H:8])[H:7]>>[C-:3]#[O+:4].[O+:1](=[C-:2][H:7])[C:5](=[O:6])[H:8]"
O       -0.73153894      -0.56116971       0.79108002
C       -0.88344908       0.67863969       0.73542733
C        0.46759757       0.93075295      -0.80439548
O        0.69436056       1.88864615      -1.38605945
C        0.57556692      -1.03997751      -0.07817280
O        1.55382919      -1.24767091       0.55130829
H       -1.87880934       0.96268080       1.12770139
H        0.20244312      -1.61190146      -0.93688932
8
Frame=5 idx=005203 GeodesicLength=0.2690094508897252 rxn_smarts="[O:1]=[C:2]([C:3](=[O:4])[C:5](=[O:6])[H:8])[H:7]>>[C-:3]#[O+:4].[O+:1](=[C-:2][H:7])[C:5](=[O:6])[H:8]"
O       -0.74833430      -0.56908841       0.80120214
C       -0.87140713       0.67442006       0.75473833
C        0.47589570       0.93486461      -0.78709285
O        0.67166540       1.88270297      -1.39776357
C        0.57820891      -1.03999368      -0.08442549
O        1.54927586      -1.25433847       0.55468923
H       -1.87407235       0.98069445       1.10990484
H        0.21876792      -1.60926153      -0.95125263
8
Frame=6 idx=005203 GeodesicLength=0.3227955526148505 rxn_smarts="[O:1]=[C:2]([C:3](=[O:4])[C:5](=[O:6])[H:8])[H:7]>>[C-:3]#[O+:4].[O+:1](=[C-:2][H:7])[C:5](=[O:6])[H:8]"
O       -0.76589618      -0.57677832       0.81078444
C       -0.86080326       0.66960803       0.77253637
C        0.48366236       0.93891758      -0.77050947
O        0.64928281       1.87575201      -1.40845724
C        0.58087945      -1.03975637      -0.09084862
O        1.54437158      -1.26021316       0.55835667
H       -1.86752853       0.99912369       1.09381271
H        0.23603177      -1.60665346      -0.96567486
8
Frame=7 idx=005203 GeodesicLength=0.37654633258310916 rxn_smarts="[O:1]=[C:2]([C:3](=[O:4])[C:5](=[O:6])[H:8])[H:7]>>[C-:3]#[O+:4].[O+:1](=[C-:2][H:7])[C:5](=[O:6])[H:8]"
O       -0.78407337      -0.58417939       0.82011310
C       -0.85156163       0.66431348       0.78880392
C        0.49021375       0.94258178      -0.75535255
O        0.62806673       1.86823063      -1.41770622
C        0.58351904      -1.03931166      -0.09745020
O        1.53929061      -1.26500385       0.56206283
H       -1.85950091       1.01773154       1.07944188
H        0.25404577      -1.60436253      -0.97991276
8
Frame=8 idx=005203 GeodesicLength=0.43031512339173056 rxn_smarts="[O:1]=[C:2]([C:3](=[O:4])[C:5](=[O:6])[H:8])[H:7]>>[C-:3]#[O+:4].[O+:1](=[C-:2][H:7])[C:5](=[O:6])[H:8]"
O       -0.80276288      -0.59129903       0.82940801
C       -0.84340979       0.65861188       0.80390111
C        0.49584479       0.94601315      -0.74119696
O        0.60773964       1.86016560      -1.42593970
C        0.58613399      -1.03867668      -0.10422410
O        1.53402060      -1.26900948       0.56574779
H       -1.85026215       1.03639886       1.06632628
H        0.27269580      -1.60220430      -0.99402243
8
Frame=9 idx=005203 GeodesicLength=0.48409165956186057 rxn_smarts="[O:1]=[C:2]([C:3](=[O:4])[C:5](=[O:6])[H:8])[H:7]>>[C-:3]#[O+:4].[O+:1](=[C-:2][H:7])[C:5](=[O:6])[H:8]"
O       -0.82197244      -0.59811139       0.83870142
C       -0.83630177       0.65258625       0.81776941
C        0.50053488       0.94912890      -0.72817428
O        0.58841983       1.85177960      -1.43324904
C        0.58871939      -1.03789863      -0.11116475
O        1.52853744      -1.27226699       0.56944885
H       -1.83995237       1.05501861       1.05464642
H        0.29201503      -1.60023636      -1.00797804
8
Frame=10 idx=005203 GeodesicLength=0.5378539318298532 rxn_smarts="[O:1]=[C:2]([C:3](=[O:4])[C:5](=[O:6])[H:8])[H:7]>>[C-:3]#[O+:4].[O+:1](=[C-:2][H:7])[C:5](=[O:6])[H:8]"
O       -0.84162465      -0.60458779       0.84815810
C       -0.83016975       0.64630966       0.83042588
C        0.50428150       0.95188652      -0.71632089
O        0.57022843       1.84326252      -1.43973366
C        0.59126255      -1.03701234      -0.11827178
O        1.52285554      -1.27483388       0.57311844
H       -1.82876719       1.07345000       1.04436754
H        0.31193357      -1.59847468      -1.02174365
8
Frame=11 idx=005203 GeodesicLength=0.5915987164897896 rxn_smarts="[O:1]=[C:2]([C:3](=[O:4])[C:5](=[O:6])[H:8])[H:7]>>[C-:3]#[O+:4].[O+:1](=[C-:2][H:7])[C:5](=[O:6])[H:8]"
O       -0.86171717      -0.61073620       0.85784699
C       -0.82493707       0.63981521       0.84191929
C        0.50711647       0.95427678      -0.70561249
O        0.55318641       1.83474430      -1.44553922
C        0.59376801      -1.03604770      -0.12554364
O        1.51696882      -1.27677711       0.57675673
H       -1.81682851       1.09163675       1.03548237
H        0.33244304      -1.59691202      -1.03531002
8
Frame=12 idx=005203 GeodesicLength=0.6453482903548635 rxn_smarts="[O:1]=[C:2]([C:3](=[O:4])[C:5](=[O:6])[H:8])[H:7]>>[C-:3]#[O+:4].[O+:1](=[C-:2][H:7])[C:5](=[O:6])[H:8]"
O       -0.88215972      -0.61652508       0.86794606
C       -0.82041795       0.63316197       0.85251870
C        0.50940046       0.95646760      -0.69561837
O        0.53687256       1.82607600      -1.45093303
C        0.59623704      -1.03500223      -0.13299171
O        1.51081957      -1.27837928       0.58032412
H       -1.80425980       1.10953050       1.02753482
H        0.35350784      -1.59532948      -1.04878059
8
Frame=13 idx=005203 GeodesicLength=0.6990713669098578 rxn_smarts="[O:1]=[C:2]([C:3](=[O:4])[C:5](=[O:6])[H:8])[H:7]>>[C-:3]#[O+:4].[O+:1](=[C-:2][H:7])[C:5](=[O:6])[H:8]"
O       -0.90298397      -0.62195851       0.87847831
C       -0.81663879       0.62636719       0.86210284
C        0.51093714       0.95832144      -0.68660777
O        0.52158149       1.81751904      -1.45588370
C        0.59866716      -1.03392342      -0.14061573
O        1.50443126      -1.27954495       0.58382909
H       -1.79114289       1.12707810       1.02077839
H        0.37514859      -1.59385888      -1.06208142
8
Frame=14 idx=005203 GeodesicLength=0.7527869171476428 rxn_smarts="[O:1]=[C:2]([C:3](=[O:4])[C:5](=[O:6])[H:8])[H:7]>>[C-:3]#[O+:4].[O+:1](=[C-:2][H:7])[C:5](=[O:6])[H:8]"
O       -0.92417675      -0.62702401       0.88952368
C       -0.81348897       0.61945278       0.87082691
C        0.51192126       0.95992658      -0.67834715
O        0.50705227       1.80898967      -1.46055422
C        0.60106378      -1.03281822      -0.14842671
O        1.49775086      -1.28044186       0.58727116
H       -1.77752387       1.14428553       1.01498904
H        0.39740142      -1.59237045      -1.07528271
8
Frame=15 idx=005203 GeodesicLength=0.8065056119867356 rxn_smarts="[O:1]=[C:2]([C:3](=[O:4])[C:5](=[O:6])[H:8])[H:7]>>[C-:3]#[O+:4].[O+:1](=[C-:2][H:7])[C:5](=[O:6])[H:8]"
O       -0.94575591      -0.63170687       0.90112250
C       -0.81089848       0.61242896       0.87877916
C        0.51246151       0.96132504      -0.67071234
O        0.49312110       1.80043762      -1.46504937
C        0.60342856      -1.03169735      -0.15643644
O        1.49072673      -1.28117270       0.59065779
H       -1.76341871       1.16116652       1.01006791
H        0.42033520      -1.59078123      -1.08842921
8
Frame=16 idx=005203 GeodesicLength=0.8602124938762057 rxn_smarts="[O:1]=[C:2]([C:3](=[O:4])[C:5](=[O:6])[H:8])[H:7]>>[C-:3]#[O+:4].[O+:1](=[C-:2][H:7])[C:5](=[O:6])[H:8]"
O       -0.96768820      -0.63599566       0.91339677
C       -0.80886889       0.60530334       0.88593437
C        0.51250225       0.96247184      -0.66377033
O        0.47990610       1.79197968      -1.46937106
C        0.60575915      -1.03058476      -0.16465650
O        1.48337608      -1.28173261       0.59394737
H       -1.74890772       1.17767023       1.00600672
H        0.44392123      -1.58911206      -1.10148733
