14
Frame=0 idx=008998 GeodesicLength=0.0 rxn_smarts="[C:1]([N:2]([C:3](=[O:4])[N:5](/[C:6](=[N:7]/[H:14])[H:13])[H:12])[H:11])([H:8])([H:9])[H:10]>>[C:1](/[N:2]=[C:3](/[O:4][H:11])[N:5](/[C:6](=[N:7]/[H:14])[H:13])[H:12])([H:8])([H:9])[H:10]"
C        2.18184715       0.79208384       0.27333713
N        1.49613174      -0.46950713       0.36277904
C        0.23086483      -0.70972300       0.16753695
O        0.03285746      -1.96889266       0.35274219
N       -0.75272209       0.15966518      -0.17119704
C       -2.07676449      -0.20422667      -0.35447502
N       -2.92682967       0.67095151      -0.67400552
H        1.82047168       1.51248669       1.01573981
H        2.09280678       1.24073921      -0.72258320
H        3.24053870       0.62756083       0.46414630
H        1.28962152      -1.77569068       0.55580464
H       -0.53010550       1.13332810      -0.30551483
H       -2.25097282      -1.26802819      -0.19261607
H       -3.84774527       0.25925303      -0.77169438
14
Frame=1 idx=008998 GeodesicLength=0.05147616617726984 rxn_smarts="[C:1]([N:2]([C:3](=[O:4])[N:5](/[C:6](=[N:7]/[H:14])[H:13])[H:12])[H:11])([H:8])([H:9])[H:10]>>[C:1](/[N:2]=[C:3](/[O:4][H:11])[N:5](/[C:6](=[N:7]/[H:14])[H:13])[H:12])([H:8])([H:9])[H:10]"
C        2.18611783       0.79193254       0.28657905
N        1.50253275      -0.47275042       0.31508365
C        0.22453352      -0.69544557       0.19667298
O        0.01677447      -1.94713097       0.41629000
N       -0.75032373       0.15427971      -0.21301171
C       -2.07971306      -0.20606828      -0.35795529
N       -2.93025012       0.66213278      -0.69575079
H        1.82257081       1.47891539       1.05865371
H        2.09695285       1.28208274      -0.68955032
H        3.24508750       0.62159443       0.47141019
H        1.30823189      -1.78695739       0.48897916
H       -0.52541108       1.12221518      -0.38007752
H       -2.26117407      -1.25874081      -0.14060596
H       -3.85592958       0.25394067      -0.75671714
14
Frame=2 idx=008998 GeodesicLength=0.1032857699750144 rxn_smarts="[C:1]([N:2]([C:3](=[O:4])[N:5](/[C:6](=[N:7]/[H:14])[H:13])[H:12])[H:11])([H:8])([H:9])[H:10]>>[C:1](/[N:2]=[C:3](/[O:4][H:11])[N:5](/[C:6](=[N:7]/[H:14])[H:13])[H:12])([H:8])([H:9])[H:10]"
C        2.19112115       0.79079078       0.29928198
N        1.50527016      -0.47203339       0.27198043
C        0.21939869      -0.67781570       0.22316304
O        0.00665868      -1.92309540       0.47068563
N       -0.75008672       0.14865553      -0.24621301
C       -2.08344098      -0.20780599      -0.35616492
N       -2.93368701       0.65051452      -0.71968602
H        1.82865892       1.44585187       1.09876018
H        2.10196015       1.31983326      -0.65625581
H        3.24996929       0.61167020       0.47682068
H        1.31919131      -1.79386565       0.42261405
H       -0.52295579       1.10880700      -0.45031326
H       -2.26940626      -1.24750170      -0.08633767
H       -3.86265158       0.24599466      -0.74833528
14
Frame=3 idx=008998 GeodesicLength=0.15596431624124038 rxn_smarts="[C:1]([N:2]([C:3](=[O:4])[N:5](/[C:6](=[N:7]/[H:14])[H:13])[H:12])[H:11])([H:8])([H:9])[H:10]>>[C:1](/[N:2]=[C:3](/[O:4][H:11])[N:5](/[C:6](=[N:7]/[H:14])[H:13])[H:12])([H:8])([H:9])[H:10]"
C        2.19723311       0.78847695       0.31090464
N        1.50556522      -0.46862344       0.23247621
C        0.21547636      -0.65776144       0.24577611
O        0.00000727      -1.89665741       0.51974520
N       -0.75196691       0.14471090      -0.27064581
C       -2.08693157      -0.21070385      -0.35585525
N       -2.93808727       0.63593548      -0.74420105
H        1.83880624       1.41311303       1.13583079
H        2.10811111       1.35475847      -0.62297847
H        3.25576202       0.59859213       0.47937585
H        1.32358478      -1.79714261       0.36134484
H       -0.52272432       1.09504109      -0.51393719
H       -2.27558485      -1.23555962      -0.03610139
H       -3.86925119       0.23582033      -0.74173449
14
Frame=4 idx=008998 GeodesicLength=0.20908789739779474 rxn_smarts="[C:1]([N:2]([C:3](=[O:4])[N:5](/[C:6](=[N:7]/[H:14])[H:13])[H:12])[H:11])([H:8])([H:9])[H:10]>>[C:1](/[N:2]=[C:3](/[O:4][H:11])[N:5](/[C:6](=[N:7]/[H:14])[H:13])[H:12])([H:8])([H:9])[H:10]"
C        2.20418463       0.78545736       0.32160576
N        1.50397007      -0.46296373       0.19739218
C        0.21242479      -0.63655595       0.26558765
O       -0.00384305      -1.87005479       0.56107381
N       -0.75554123       0.14288308      -0.28728400
C       -2.09075545      -0.21364508      -0.35427390
N       -2.94327289       0.61979963      -0.76797301
H        1.85187184       1.38122379       1.16991076
H        2.11494790       1.38631663      -0.59034679
H        3.26221541       0.58364388       0.47962281
H        1.32397621      -1.79764132       0.30454649
H       -0.52406038       1.08081095      -0.57244283
H       -2.28066958      -1.22226100       0.01278129
H       -3.87544829       0.22298656      -0.74020022
14
Frame=5 idx=008998 GeodesicLength=0.2623624871636972 rxn_smarts="[C:1]([N:2]([C:3](=[O:4])[N:5](/[C:6](=[N:7]/[H:14])[H:13])[H:12])[H:11])([H:8])([H:9])[H:10]>>[C:1](/[N:2]=[C:3](/[O:4][H:11])[N:5](/[C:6](=[N:7]/[H:14])[H:13])[H:12])([H:8])([H:9])[H:10]"
C        2.21176480       0.78181905       0.33148254
N        1.50103733      -0.45560894       0.16548938
C        0.21005288      -0.61475565       0.28281280
O       -0.00586283      -1.84362010       0.59615451
N       -0.76007814       0.14259193      -0.29951106
C       -2.09528809      -0.21500255      -0.34831999
N       -2.94873836       0.60157768      -0.79308024
H        1.86772329       1.34884035       1.20232344
H        2.12145657       1.41575110      -0.55762858
H        3.26925590       0.56746556       0.47671820
H        1.32181856      -1.79591359       0.25183156
H       -0.52691756       1.06656643      -0.62547076
H       -2.28508028      -1.20705055       0.06143219
H       -3.88114407       0.20733927      -0.74423400
14
Frame=6 idx=008998 GeodesicLength=0.3158212833711309 rxn_smarts="[C:1]([N:2]([C:3](=[O:4])[N:5](/[C:6](=[N:7]/[H:14])[H:13])[H:12])[H:11])([H:8])([H:9])[H:10]>>[C:1](/[N:2]=[C:3](/[O:4][H:11])[N:5](/[C:6](=[N:7]/[H:14])[H:13])[H:12])([H:8])([H:9])[H:10]"
C        2.21960776       0.77778988       0.34148958
N        1.49722309      -0.44681295       0.13601898
C        0.20827074      -0.59262844       0.29748110
O       -0.00653221      -1.81762786       0.62529557
N       -0.76537575       0.14394812      -0.30828796
C       -2.09995545      -0.21578853      -0.34133023
N       -2.95435962       0.58110669      -0.81921026
H        1.88448309       1.31608199       1.23353556
H        2.12859545       1.44354080      -0.52391631
H        3.27631680       0.55075479       0.47312957
H        1.31803796      -1.79240878       0.20096661
H       -0.53014191       1.05061160      -0.67796766
H       -2.28944238      -1.18841836       0.11268344
H       -3.88672758       0.18985104      -0.74988799
14
Frame=7 idx=008998 GeodesicLength=0.3694898403693234 rxn_smarts="[C:1]([N:2]([C:3](=[O:4])[N:5](/[C:6](=[N:7]/[H:14])[H:13])[H:12])[H:11])([H:8])([H:9])[H:10]>>[C:1](/[N:2]=[C:3](/[O:4][H:11])[N:5](/[C:6](=[N:7]/[H:14])[H:13])[H:12])([H:8])([H:9])[H:10]"
C        2.22797851       0.77314012       0.35129009
N        1.49258557      -0.43668923       0.10806821
C        0.20682849      -0.56991961       0.31038897
O       -0.00641774      -1.79160584       0.65038679
N       -0.77122519       0.14694218      -0.31472945
C       -2.10514468      -0.21444004      -0.33082006
N       -2.95983965       0.55687056      -0.84887879
H        1.90381064       1.28102215       1.26473021
H        2.13504377       1.47072049      -0.48839287
H        3.28386145       0.53325034       0.46641194
H        1.31265682      -1.78719308       0.15126338
H       -0.53449949       1.03439351      -0.72720313
H       -2.29370658      -1.16546986       0.16717206
H       -3.89193192       0.16897832      -0.75968735
14
Frame=8 idx=008998 GeodesicLength=0.42327226653122535 rxn_smarts="[C:1]([N:2]([C:3](=[O:4])[N:5](/[C:6](=[N:7]/[H:14])[H:13])[H:12])[H:11])([H:8])([H:9])[H:10]>>[C:1](/[N:2]=[C:3](/[O:4][H:11])[N:5](/[C:6](=[N:7]/[H:14])[H:13])[H:12])([H:8])([H:9])[H:10]"
C        2.23655409       0.76814740       0.36120442
N        1.48728443      -0.42534704       0.08218792
C        0.20555402      -0.54671589       0.32197113
O       -0.00594684      -1.76556324       0.67221078
N       -0.77748562       0.15158894      -0.31917496
C       -2.11015727      -0.21283086      -0.32108913
N       -2.96537820       0.53047749      -0.87812842
H        1.92401554       1.24514533       1.29490534
H        2.14189632       1.49647577      -0.45169206
H        3.29134271       0.51559719       0.45868565
H        1.30606731      -1.78038975       0.10311928
H       -0.53910988       1.01632938      -0.77619388
H       -2.29759359      -1.13946773       0.22131761
H       -3.89704301       0.14655301      -0.76932368
14
Frame=9 idx=008998 GeodesicLength=0.4771457192932998 rxn_smarts="[C:1]([N:2]([C:3](=[O:4])[N:5](/[C:6](=[N:7]/[H:14])[H:13])[H:12])[H:11])([H:8])([H:9])[H:10]>>[C:1](/[N:2]=[C:3](/[O:4][H:11])[N:5](/[C:6](=[N:7]/[H:14])[H:13])[H:12])([H:8])([H:9])[H:10]"
C        2.24554189       0.76259892       0.37076803
N        1.48132109      -0.41296712       0.05797993
C        0.20426903      -0.52266914       0.33263382
O       -0.00556523      -1.73870516       0.69269270
N       -0.78392569       0.15750415      -0.32298247
C       -2.11531272      -0.20959279      -0.31022393
N       -2.97082362       0.50127393      -0.90800931
H        1.94640430       1.20715479       1.32444798
H        2.14823078       1.52123204      -0.41352826
H        3.29906369       0.49772676       0.44798826
H        1.29814349      -1.77213820       0.05737852
H       -0.54462884       0.99812992      -0.82227709
H       -2.30081993      -1.11135414       0.27320604
H       -3.90189824       0.12180603      -0.78007422
14
Frame=10 idx=008998 GeodesicLength=0.5311376088970713 rxn_smarts="[C:1]([N:2]([C:3](=[O:4])[N:5](/[C:6](=[N:7]/[H:14])[H:13])[H:12])[H:11])([H:8])([H:9])[H:10]>>[C:1](/[N:2]=[C:3](/[O:4][H:11])[N:5](/[C:6](=[N:7]/[H:14])[H:13])[H:12])([H:8])([H:9])[H:10]"
C        2.25457734       0.75677282       0.38056540
N        1.47495655      -0.39954063       0.03535338
C        0.20300452      -0.49810089       0.34205867
O       -0.00516698      -1.71155079       0.71095793
N       -0.79046829       0.16449783      -0.32653421
C       -2.12034551      -0.20564060      -0.29973114
N       -2.97605664       0.46941554      -0.93768141
H        1.96904735       1.16800744       1.35298590
H        2.15506320       1.54473795      -0.37390312
H        3.30648628       0.48015046       0.43674401
H        1.28955856      -1.76250568       0.01297600
H       -0.55031919       0.97789405      -0.86848275
H       -2.30362445      -1.08064365       0.32376173
H       -3.90671273       0.09650615      -0.78907039
14
Frame=11 idx=008998 GeodesicLength=0.5852164115327603 rxn_smarts="[C:1]([N:2]([C:3](=[O:4])[N:5](/[C:6](=[N:7]/[H:14])[H:13])[H:12])[H:11])([H:8])([H:9])[H:10]>>[C:1](/[N:2]=[C:3](/[O:4][H:11])[N:5](/[C:6](=[N:7]/[H:14])[H:13])[H:12])([H:8])([H:9])[H:10]"
C        2.26382861       0.75049755       0.39023638
N        1.46816142      -0.38518414       0.01410829
C        0.20164443      -0.47275475       0.35065415
O       -0.00502357      -1.68365387       0.72801502
N       -0.79711702       0.17266506      -0.32988123
C       -2.12536635      -0.20053454      -0.28919578
N       -2.98125303       0.43591274      -0.96571466
H        1.99250482       1.12735291       1.38030663
H        2.16235024       1.56687939      -0.33305146
H        3.31375819       0.46267261       0.42415703
H        1.28013072      -1.75159127      -0.02993138
H       -0.55649113       0.95668733      -0.91317513
H       -2.30599752      -1.04776280       0.37227785
H       -3.91112983       0.06881378      -0.79880572
14
Frame=12 idx=008998 GeodesicLength=0.6393792958051729 rxn_smarts="[C:1]([N:2]([C:3](=[O:4])[N:5](/[C:6](=[N:7]/[H:14])[H:13])[H:12])[H:11])([H:8])([H:9])[H:10]>>[C:1](/[N:2]=[C:3](/[O:4][H:11])[N:5](/[C:6](=[N:7]/[H:14])[H:13])[H:12])([H:8])([H:9])[H:10]"
C        2.27342870       0.74357818       0.39954313
N        1.46088118      -0.36997295      -0.00601259
C        0.20009615      -0.44635228       0.35863959
O       -0.00536654      -1.65454572       0.74462477
N       -0.80386112       0.18196083      -0.33332710
C       -2.13058153      -0.19338445      -0.27785082
N       -2.98619135       0.40005540      -0.99298012
H        2.01736773       1.08447704       1.40639003
H        2.16996892       1.58770943      -0.29079653
H        3.32097051       0.44515246       0.40941446
H        1.26966432      -1.73948006      -0.07119321
H       -0.56345588       0.93596955      -0.95490538
H       -2.30798006      -1.01293732       0.41845842
H       -3.91494103       0.03776988      -0.81000464
14
Frame=13 idx=008998 GeodesicLength=0.6936353405207638 rxn_smarts="[C:1]([N:2]([C:3](=[O:4])[N:5](/[C:6](=[N:7]/[H:14])[H:13])[H:12])[H:11])([H:8])([H:9])[H:10]>>[C:1](/[N:2]=[C:3](/[O:4][H:11])[N:5](/[C:6](=[N:7]/[H:14])[H:13])[H:12])([H:8])([H:9])[H:10]"
C        2.28315504       0.73617285       0.40881031
N        1.45327760      -0.35384940      -0.02510745
C        0.19839939      -0.41913613       0.36579449
O       -0.00603735      -1.62466586       0.76002940
N       -0.81070731       0.19236835      -0.33686253
C       -2.13578436      -0.18511627      -0.26684317
N       -2.99111479       0.36360598      -1.01741231
H        2.04185843       1.04069611       1.43067425
H        2.17914705       1.60669799      -0.24777940
H        3.32775979       0.42754305       0.39480770
H        1.25857487      -1.72611464      -0.11179318
H       -0.57077027       0.91441103      -0.99540207
H       -2.30970882      -0.97588033       0.46285301
H       -3.91804928       0.00326728      -0.82176905
14
Frame=14 idx=008998 GeodesicLength=0.748040452751074 rxn_smarts="[C:1]([N:2]([C:3](=[O:4])[N:5](/[C:6](=[N:7]/[H:14])[H:13])[H:12])[H:11])([H:8])([H:9])[H:10]>>[C:1](/[N:2]=[C:3](/[O:4][H:11])[N:5](/[C:6](=[N:7]/[H:14])[H:13])[H:12])([H:8])([H:9])[H:10]"
C        2.29361116       0.72747340       0.41736900
N        1.44488403      -0.33685116      -0.04363127
C        0.19630333      -0.39015991       0.37280879
O       -0.00785237      -1.59281963       0.77539530
N       -0.81789611       0.20518151      -0.33956764
C       -2.14157395      -0.17286279      -0.25380843
N       -2.99619006       0.32760873      -1.03840724
H        2.06861770       0.99348597       1.45343869
H        2.18940234       1.62401110      -0.20312863
H        3.33460470       0.40886532       0.37711931
H        1.24538179      -1.71141039      -0.15180203
H       -0.57910842       0.89530074      -1.03183282
H       -2.31152570      -0.93484687       0.50682673
H       -3.91865843      -0.04297602      -0.84077975
14
Frame=15 idx=008998 GeodesicLength=0.8024751153453379 rxn_smarts="[C:1]([N:2]([C:3](=[O:4])[N:5](/[C:6](=[N:7]/[H:14])[H:13])[H:12])[H:11])([H:8])([H:9])[H:10]>>[C:1](/[N:2]=[C:3](/[O:4][H:11])[N:5](/[C:6](=[N:7]/[H:14])[H:13])[H:12])([H:8])([H:9])[H:10]"
C        2.30379601       0.71850208       0.42614427
N        1.43643412      -0.31897652      -0.06120445
C        0.19409815      -0.36070174       0.37867449
O       -0.00978554      -1.56055312       0.78929114
N       -0.82504763       0.21834424      -0.34327714
C       -2.14719001      -0.16032372      -0.24224452
N       -3.00101770       0.29089784      -1.05725119
H        2.09267828       0.94703067       1.47384786
H        2.20218537       1.63886791      -0.15880829
H        3.34060676       0.39007821       0.36212907
H        1.23233375      -1.69550628      -0.19148499
H       -0.58760652       0.87514269      -1.06764552
H       -2.31297974      -0.89292011       0.54766025
H       -3.91850531      -0.08988217      -0.85583099
14
Frame=16 idx=008998 GeodesicLength=0.8570799729934016 rxn_smarts="[C:1]([N:2]([C:3](=[O:4])[N:5](/[C:6](=[N:7]/[H:14])[H:13])[H:12])[H:11])([H:8])([H:9])[H:10]>>[C:1](/[N:2]=[C:3](/[O:4][H:11])[N:5](/[C:6](=[N:7]/[H:14])[H:13])[H:12])([H:8])([H:9])[H:10]"
C        2.31379909       0.70905759       0.43501833
N        1.42787469      -0.30034802      -0.07788354
C        0.19167839      -0.33026696       0.38362363
O       -0.01214491      -1.52696675       0.80303480
N       -0.83206930       0.23174396      -0.34850285
C       -2.15272762      -0.14677563      -0.23196053
N       -3.00570804       0.25376291      -1.07415558
H        2.11629312       0.89854430       1.49295227
H        2.21540473       1.65226349      -0.11284289
H        3.34604506       0.37183917       0.34657120
H        1.21913808      -1.67860549      -0.22981471
H       -0.59629213       0.85420350      -1.10308755
H       -2.31412751      -0.84929619       0.58574135
H       -3.91716364      -0.13915588      -0.86869394
