16
Frame=0 idx=011773 GeodesicLength=0.0 rxn_smarts="[C:1]([C:2]1([C:3]([H:11])([H:12])[H:13])[C:4]([H:14])([H:15])[N:5]([H:16])[C:6]1=[O:7])([H:8])([H:9])[H:10]>>[C:1]([C:4]([C@@:2]1([C:3]([H:11])([H:12])[H:13])[N:5]([H:16])[C:6]1=[O:7])([H:14])[H:15])([H:8])([H:9])[H:10]"
C        1.31360148       0.75266465      -0.00699969
C       -0.07409117      -0.04781304       0.17399116
C        0.11429093      -1.28984641       1.01258697
C       -0.64168422       1.08971676       0.73222406
N       -1.83183953       0.00445830      -1.38127453
C       -0.57416122      -0.33293083      -1.28766809
O        0.25579339      -0.82449262      -2.06027935
H        1.68218874       0.07586909      -0.80601004
H        1.92952676       0.74914376       0.88789659
H        1.24806764       1.74518170      -0.45054017
H        0.48698313      -1.06259977       2.01405938
H        0.81430666      -1.95946915       0.51378306
H       -0.84237873      -1.80584406       1.09759804
H       -0.78333429       1.21706218       1.80530432
H       -0.93488930       1.89904318       0.07648281
H       -2.16238034      -0.21014373      -2.32115448
16
Frame=1 idx=011773 GeodesicLength=0.129524810591082 rxn_smarts="[C:1]([C:2]1([C:3]([H:11])([H:12])[H:13])[C:4]([H:14])([H:15])[N:5]([H:16])[C:6]1=[O:7])([H:8])([H:9])[H:10]>>[C:1]([C:4]([C@@:2]1([C:3]([H:11])([H:12])[H:13])[N:5]([H:16])[C:6]1=[O:7])([H:14])[H:15])([H:8])([H:9])[H:10]"
C        1.32151266       0.76520479       0.00966869
C       -0.07292844      -0.06046092       0.15733643
C        0.10649999      -1.30011636       0.99960273
C       -0.64257518       1.08852154       0.70387485
N       -1.81488304       0.01850921      -1.34293651
C       -0.55677507      -0.33688176      -1.30446250
O        0.26117698      -0.81522102      -2.09242459
H        1.72795643       0.08069796      -0.76282728
H        1.91976905       0.79490405       0.91616433
H        1.26059788       1.74322877      -0.46589615
H        0.49881411      -1.07681535       1.99425295
H        0.78782039      -1.98530158       0.49595218
H       -0.85740046      -1.79833879       1.10741932
H       -0.81747400       1.20005637       1.77387044
H       -0.91159446       1.91394845       0.05773283
H       -2.21051684      -0.23193537      -2.24732771
16
Frame=2 idx=011773 GeodesicLength=0.25898536626348323 rxn_smarts="[C:1]([C:2]1([C:3]([H:11])([H:12])[H:13])[C:4]([H:14])([H:15])[N:5]([H:16])[C:6]1=[O:7])([H:8])([H:9])[H:10]>>[C:1]([C:4]([C@@:2]1([C:3]([H:11])([H:12])[H:13])[N:5]([H:16])[C:6]1=[O:7])([H:14])[H:15])([H:8])([H:9])[H:10]"
C        1.32867644       0.77813004       0.02637103
C       -0.07162401      -0.07299607       0.14031621
C        0.09869483      -1.31037024       0.98613105
C       -0.64282960       1.08731531       0.67594974
N       -1.79710951       0.03169962      -1.30743362
C       -0.54063563      -0.34039628      -1.32132343
O        0.26413093      -0.80720100      -2.12444114
H        1.77311729       0.08576159      -0.71638468
H        1.90829480       0.84223719       0.94334923
H        1.27369016       1.74028226      -0.48154467
H        0.51154695      -1.09171141       1.97328894
H        0.76007052      -2.01118262       0.47728744
H       -0.87187138      -1.78995840       1.11733538
H       -0.84993421       1.18351185       1.74175340
H       -0.88957433       1.92776618       0.04014845
H       -2.25464325      -0.25288803      -2.17080332
16
Frame=3 idx=011773 GeodesicLength=0.38841029284675 rxn_smarts="[C:1]([C:2]1([C:3]([H:11])([H:12])[H:13])[C:4]([H:14])([H:15])[N:5]([H:16])[C:6]1=[O:7])([H:8])([H:9])[H:10]>>[C:1]([C:4]([C@@:2]1([C:3]([H:11])([H:12])[H:13])[N:5]([H:16])[C:6]1=[O:7])([H:14])[H:15])([H:8])([H:9])[H:10]"
C        1.33493873       0.79141520       0.04296410
C       -0.07015943      -0.08565723       0.12303109
C        0.09117249      -1.32065837       0.97245351
C       -0.64263340       1.08582056       0.64842588
N       -1.77899565       0.04320627      -1.27412546
C       -0.52582401      -0.34407924      -1.33801678
O        0.26438261      -0.80102037      -2.15626996
H        1.81750637       0.09110067      -0.66644935
H        1.89493096       0.89147023       0.96910756
H        1.28705283       1.73606958      -0.49779241
H        0.52547347      -1.10714894       1.95130460
H        0.73139925      -2.03705712       0.45816950
H       -0.88529371      -1.78091642       1.12784668
H       -0.88074452       1.16728300       1.70905105
H       -0.86914665       1.94013318       0.02342053
H       -2.29405934      -0.26996100      -2.09312055
16
Frame=4 idx=011773 GeodesicLength=0.517841576224812 rxn_smarts="[C:1]([C:2]1([C:3]([H:11])([H:12])[H:13])[C:4]([H:14])([H:15])[N:5]([H:16])[C:6]1=[O:7])([H:8])([H:9])[H:10]>>[C:1]([C:4]([C@@:2]1([C:3]([H:11])([H:12])[H:13])[N:5]([H:16])[C:6]1=[O:7])([H:14])[H:15])([H:8])([H:9])[H:10]"
C        1.34053051       0.80508527       0.05969825
C       -0.06845374      -0.09826309       0.10535593
C        0.08376718      -1.33097050       0.95830871
C       -0.64189941       1.08425185       0.62126801
N       -1.76060890       0.05375479      -1.24312210
C       -0.51216983      -0.34752130      -1.35476583
O        0.26191281      -0.79628890      -2.18826176
H        1.86119505       0.09696257      -0.61260011
H        1.87980792       0.94238874       0.99360834
H        1.30120600       1.73063751      -0.51413723
H        0.54029862      -1.12333702       1.92808086
H        0.70157831      -2.06290583       0.43835437
H       -0.89784178      -1.77111291       1.13850715
H       -0.90982829       1.15150381       1.67585610
H       -0.84990317       1.95150989       0.00745629
H       -2.32959129      -0.28569487      -2.01360696
16
Frame=5 idx=011773 GeodesicLength=0.6472090417877887 rxn_smarts="[C:1]([C:2]1([C:3]([H:11])([H:12])[H:13])[C:4]([H:14])([H:15])[N:5]([H:16])[C:6]1=[O:7])([H:8])([H:9])[H:10]>>[C:1]([C:4]([C@@:2]1([C:3]([H:11])([H:12])[H:13])[N:5]([H:16])[C:6]1=[O:7])([H:14])[H:15])([H:8])([H:9])[H:10]"
C        1.34543709       0.81910871       0.07664964
C       -0.06646617      -0.11082709       0.08725834
C        0.07653078      -1.34127678       0.94367494
C       -0.64064342       1.08254701       0.59443118
N       -1.74209005       0.06328536      -1.21419925
C       -0.49966509      -0.35074945      -1.37159465
O        0.25656094      -0.79299981      -2.22056856
H        1.90397805       0.10356171      -0.55450764
H        1.86288444       0.99498178       1.01674474
H        1.31623755       1.72378630      -0.53046415
H        0.55604495      -1.14027814       1.90352648
H        0.67054134      -2.08865546       0.41784300
H       -0.90934755      -1.76049029       1.14938473
H       -0.93713923       1.13611825       1.64224241
H       -0.83174208       1.96187855      -0.00791764
H       -2.36112154      -0.29999065      -1.93250358
16
Frame=6 idx=011773 GeodesicLength=0.7765964458390453 rxn_smarts="[C:1]([C:2]1([C:3]([H:11])([H:12])[H:13])[C:4]([H:14])([H:15])[N:5]([H:16])[C:6]1=[O:7])([H:8])([H:9])[H:10]>>[C:1]([C:4]([C@@:2]1([C:3]([H:11])([H:12])[H:13])[N:5]([H:16])[C:6]1=[O:7])([H:14])[H:15])([H:8])([H:9])[H:10]"
C        1.34965781       0.83348372       0.09379277
C       -0.06414973      -0.12346614       0.06877727
C        0.06965800      -1.35165223       0.92868305
C       -0.63894166       1.08061747       0.56791203
N       -1.72372310       0.07148757      -1.18692403
C       -0.48833741      -0.35408921      -1.38840686
O        0.24800634      -0.79147792      -2.25320714
H        1.94564569       0.11107029      -0.49187939
H        1.84412156       1.04942888       1.03826629
H        1.33220008       1.71536389      -0.54676224
H        0.57277343      -1.15796200       1.87773051
H        0.63863787      -2.11426102       0.39690262
H       -0.91947411      -1.74931899       1.16058629
H       -0.96266605       1.12108613       1.60834750
H       -0.81476326       1.97116444      -0.02288960
H       -2.38864546      -0.31147487      -1.85092907
16
Frame=7 idx=011773 GeodesicLength=0.9059684628002713 rxn_smarts="[C:1]([C:2]1([C:3]([H:11])([H:12])[H:13])[C:4]([H:14])([H:15])[N:5]([H:16])[C:6]1=[O:7])([H:8])([H:9])[H:10]>>[C:1]([C:4]([C@@:2]1([C:3]([H:11])([H:12])[H:13])[N:5]([H:16])[C:6]1=[O:7])([H:14])[H:15])([H:8])([H:9])[H:10]"
C        1.35319379       0.84816528       0.11119977
C       -0.06144657      -0.13619636       0.04989735
C        0.06323743      -1.36207197       0.91331625
C       -0.63678603       1.07842486       0.54170048
N       -1.70557844       0.07832607      -1.16101606
C       -0.47815910      -0.35759737      -1.40518908
O        0.23600626      -0.79175161      -2.28626073
H        1.98587646       0.11973397      -0.42441493
H        1.82347346       1.10571881       1.05799363
H        1.34924859       1.70514241      -0.56284364
H        0.59047057      -1.17637806       1.85062637
H        0.60594381      -2.13962964       0.37557995
H       -0.92800954      -1.73760051       1.17211095
H       -0.98633493       1.10637585       1.57429240
H       -0.79886342       1.97936013      -0.03757415
H       -2.41227233      -0.32002185      -1.76941856
16
Frame=8 idx=011773 GeodesicLength=1.0353859151928257 rxn_smarts="[C:1]([C:2]1([C:3]([H:11])([H:12])[H:13])[C:4]([H:14])([H:15])[N:5]([H:16])[C:6]1=[O:7])([H:8])([H:9])[H:10]>>[C:1]([C:4]([C@@:2]1([C:3]([H:11])([H:12])[H:13])[N:5]([H:16])[C:6]1=[O:7])([H:14])[H:15])([H:8])([H:9])[H:10]"
C        1.35613243       0.86314646       0.12895941
C       -0.05829809      -0.14901556       0.03057715
C        0.05731861      -1.37258058       0.89754648
C       -0.63416587       1.07600890       0.51576153
N       -1.68772889       0.08387817      -1.13630566
C       -0.46907965      -0.36127417      -1.42199849
O        0.22032553      -0.79382062      -2.31981652
H        2.02436849       0.12982842      -0.35183577
H        1.80100544       1.16386045       1.07575204
H        1.36767582       1.69300672      -0.57845460
H        0.60904599      -1.19559629       1.82218856
H        0.57257530      -2.16474713       0.35394025
H       -0.93483923      -1.72545881       1.18386109
H       -1.00812428       1.09200950       1.54017598
H       -0.78391268       1.98659074      -0.05211090
H       -2.43229889      -0.32583620      -1.68824054
16
Frame=9 idx=011773 GeodesicLength=1.1646869037069312 rxn_smarts="[C:1]([C:2]1([C:3]([H:11])([H:12])[H:13])[C:4]([H:14])([H:15])[N:5]([H:16])[C:6]1=[O:7])([H:8])([H:9])[H:10]>>[C:1]([C:4]([C@@:2]1([C:3]([H:11])([H:12])[H:13])[N:5]([H:16])[C:6]1=[O:7])([H:14])[H:15])([H:8])([H:9])[H:10]"
C        1.35844832       0.87836744       0.14721243
C       -0.05466564      -0.16191308       0.01079214
C        0.05198360      -1.38310417       0.88135287
C       -0.63101820       1.07329799       0.49007006
N       -1.67015698       0.08812513      -1.11264564
C       -0.46115756      -0.36507336      -1.43888257
O        0.20069059      -0.79754423      -2.35392101
H        2.06058041       0.14171433      -0.27388166
H        1.77678617       1.22373460       1.09137024
H        1.38762336       1.67864047      -0.59332520
H        0.62859170      -1.21557759       1.79233120
H        0.53840554      -2.18950688       0.33199503
H       -0.93973093      -1.71277500       1.19591761
H       -1.02787996       1.07790371       1.50609478
H       -0.76976297       1.99278272      -0.06661949
H       -2.44873744      -0.32907208      -1.60786082
16
Frame=10 idx=011773 GeodesicLength=1.2940155877600972 rxn_smarts="[C:1]([C:2]1([C:3]([H:11])([H:12])[H:13])[C:4]([H:14])([H:15])[N:5]([H:16])[C:6]1=[O:7])([H:8])([H:9])[H:10]>>[C:1]([C:4]([C@@:2]1([C:3]([H:11])([H:12])[H:13])[N:5]([H:16])[C:6]1=[O:7])([H:14])[H:15])([H:8])([H:9])[H:10]"
C        1.36023059       0.89380062       0.16600803
C       -0.05048550      -0.17490055      -0.00950001
C        0.04729679      -1.39370627       0.86469474
C       -0.62734933       1.07036702       0.46459875
N       -1.65285676       0.09116537      -1.08986848
C       -0.45423508      -0.36906806      -1.45586062
O        0.17686301      -0.80301888      -2.38854600
H        2.09406149       0.15561223      -0.19043245
H        1.75085421       1.28536053       1.10454145
H        1.40943464       1.66194399      -0.60709564
H        0.64890224      -1.23637007       1.76105697
H        0.50378291      -2.21386405       0.30985093
H       -0.94257743      -1.69979442       1.20802947
H       -1.04564567       1.06412473       1.47214737
H       -0.75631223       1.99808566      -0.08120787
H       -2.46196388      -0.32973787      -1.52841667
16
Frame=11 idx=011773 GeodesicLength=1.4233228662492583 rxn_smarts="[C:1]([C:2]1([C:3]([H:11])([H:12])[H:13])[C:4]([H:14])([H:15])[N:5]([H:16])[C:6]1=[O:7])([H:8])([H:9])[H:10]>>[C:1]([C:4]([C@@:2]1([C:3]([H:11])([H:12])[H:13])[N:5]([H:16])[C:6]1=[O:7])([H:14])[H:15])([H:8])([H:9])[H:10]"
C        1.36148521       0.90941581       0.18547220
C       -0.04572391      -0.18796590      -0.03033686
C        0.04332403      -1.40436812       0.84754235
C       -0.62311545       1.06720927       0.43931736
N       -1.63576850       0.09304008      -1.06789786
C       -0.44828625      -0.37322022      -1.47301123
O        0.14860843      -0.81011314      -2.42364390
H        2.12415903       0.17185456      -0.10137414
H        1.72335079       1.34862375       1.11500570
H        1.43334124       1.64267862      -0.61939589
H        0.67001795      -1.25797762       1.72829556
H        0.46866914      -2.23777707       0.28753445
H       -0.94320965      -1.68650737       1.22019728
H       -1.06136314       1.05064087       1.43841641
H       -0.74342046       2.00252137      -0.09598628
H       -2.47206845      -0.32805489      -1.45013516
16
Frame=12 idx=011773 GeodesicLength=1.5526830753092316 rxn_smarts="[C:1]([C:2]1([C:3]([H:11])([H:12])[H:13])[C:4]([H:14])([H:15])[N:5]([H:16])[C:6]1=[O:7])([H:8])([H:9])[H:10]>>[C:1]([C:4]([C@@:2]1([C:3]([H:11])([H:12])[H:13])[N:5]([H:16])[C:6]1=[O:7])([H:14])[H:15])([H:8])([H:9])[H:10]"
C        1.36230040       0.92519079       0.20569558
C       -0.04033872      -0.20111896      -0.05176469
C        0.04012300      -1.41516757       0.82986705
C       -0.61831178       1.06389044       0.41416839
N       -1.61886870       0.09385190      -1.04669050
C       -0.44319956      -0.37754521      -1.49039193
O        0.11570566      -0.81875731      -2.45909207
H        2.15027327       0.19067969      -0.00666499
H        1.69445214       1.41351523       1.12239175
H        1.45968087       1.62073355      -0.62975518
H        0.69186898      -1.28046657       1.69403152
H        0.43330465      -2.26125911       0.26514303
H       -0.94155641      -1.67312020       1.23225261
H       -1.07508841       1.03748322       1.40494101
H       -0.73097937       2.00623709      -0.11108970
H       -2.47936603      -0.32414698      -1.37304190
16
Frame=13 idx=011773 GeodesicLength=1.68194998895261 rxn_smarts="[C:1]([C:2]1([C:3]([H:11])([H:12])[H:13])[C:4]([H:14])([H:15])[N:5]([H:16])[C:6]1=[O:7])([H:8])([H:9])[H:10]>>[C:1]([C:4]([C@@:2]1([C:3]([H:11])([H:12])[H:13])[N:5]([H:16])[C:6]1=[O:7])([H:14])[H:15])([H:8])([H:9])[H:10]"
C        1.36241872       0.94100116       0.22683208
C       -0.03433960      -0.21429151      -0.07382465
C        0.03775873      -1.42582749       0.81156211
C       -0.61283002       1.06029934       0.38915300
N       -1.60186455       0.09359003      -1.02618812
C       -0.43895507      -0.38195865      -1.50807326
O        0.07807216      -0.82853888      -2.49475406
H        2.17128369       0.21244617       0.09368195
H        1.66418122       1.47957406       1.12644211
H        1.48845008       1.59546130      -0.63773754
H        0.71465405      -1.30363132       1.65792482
H        0.39719260      -2.28403174       0.24251621
H       -0.93722836      -1.65915226       1.24436525
H       -1.08663389       1.02456859       1.37179936
H       -0.71877770       2.00898768      -0.12654589
H       -2.48338208      -0.31849647      -1.29715337
16
Frame=14 idx=011773 GeodesicLength=1.8112695633752107 rxn_smarts="[C:1]([C:2]1([C:3]([H:11])([H:12])[H:13])[C:4]([H:14])([H:15])[N:5]([H:16])[C:6]1=[O:7])([H:8])([H:9])[H:10]>>[C:1]([C:4]([C@@:2]1([C:3]([H:11])([H:12])[H:13])[N:5]([H:16])[C:6]1=[O:7])([H:14])[H:15])([H:8])([H:9])[H:10]"
C        1.36206302       0.95691724       0.24890710
C       -0.02771050      -0.22754084      -0.09652999
C        0.03632148      -1.43664390       0.79270212
C       -0.60677319       1.05660458       0.36419359
N       -1.58490842       0.09238091      -1.00638038
C       -0.43543108      -0.38653676      -1.52608777
O        0.03557853      -0.83939114      -2.53034258
H        2.18666393       0.23732351       0.19950828
H        1.63298106       1.54685567       1.12662718
H        1.52010888       1.56701167      -0.64276317
H        0.73837559      -1.32770233       1.62005473
H        0.36085212      -2.30633948       0.21993044
H       -0.93025509      -1.64516587       1.25638636
H       -1.09625546       1.01198730       1.33901035
H       -0.70685347       2.01114100      -0.14255299
H       -2.48475740      -0.31090157      -1.22266328
16
Frame=15 idx=011773 GeodesicLength=1.940607176668122 rxn_smarts="[C:1]([C:2]1([C:3]([H:11])([H:12])[H:13])[C:4]([H:14])([H:15])[N:5]([H:16])[C:6]1=[O:7])([H:8])([H:9])[H:10]>>[C:1]([C:4]([C@@:2]1([C:3]([H:11])([H:12])[H:13])[N:5]([H:16])[C:6]1=[O:7])([H:14])[H:15])([H:8])([H:9])[H:10]"
C        1.36106233       0.97285076       0.27201428
C       -0.02047660      -0.24084216      -0.11991728
C        0.03590091      -1.44746774       0.77321498
C       -0.60007293       1.05276144       0.33927274
N       -1.56780704       0.09023667      -0.98723509
C       -0.43258349      -0.39129124      -1.54448517
O       -0.01185646      -0.85099081      -2.56553502
H        2.19522639       0.26554075       0.31069076
H        1.60106297       1.61498296       1.12252185
H        1.55470533       1.53492389      -0.64418261
H        0.76322429      -1.35250917       1.58009956
H        0.32415889      -2.32797726       0.19736748
H       -0.92029893      -1.63095911       1.26834110
H       -1.10387696       0.99970220       1.30660570
H       -0.69504368       2.01258254      -0.15915843
H       -2.48332503      -0.30154372      -1.14961484
16
Frame=16 idx=011773 GeodesicLength=2.069984071022812 rxn_smarts="[C:1]([C:2]1([C:3]([H:11])([H:12])[H:13])[C:4]([H:14])([H:15])[N:5]([H:16])[C:6]1=[O:7])([H:8])([H:9])[H:10]>>[C:1]([C:4]([C@@:2]1([C:3]([H:11])([H:12])[H:13])[N:5]([H:16])[C:6]1=[O:7])([H:14])[H:15])([H:8])([H:9])[H:10]"
C        1.35929138       0.98871043       0.29621754
C       -0.01268415      -0.25418005      -0.14402818
C        0.03660523      -1.45820890       0.75305151
C       -0.59269151       1.04874950       0.31435464
N       -1.55044990       0.08719556      -0.96873275
C       -0.43041876      -0.39623466      -1.56331201
O       -0.06424900      -0.86299681      -2.59995538
H        2.19574150       0.29729646       0.42710258
H        1.56876906       1.68356612       1.11361066
H        1.59228709       1.49878089      -0.64125884
H        0.78942107      -1.37790370       1.53771657
H        0.28712070      -2.34877847       0.17488011
H       -0.90701244      -1.61642866       1.28025566
H       -1.10947367       0.98768319       1.27459070
H       -0.68322127       2.01325774      -0.17643863
H       -2.47903533      -0.29050864      -1.07805417
