16
Frame=0 idx=006205 GeodesicLength=0.0 rxn_smarts="[C:1]([O:2][C:3]1([H:10])[C:4]([H:11])([H:12])[C:5]([H:13])([H:14])[C:6]1([H:15])[H:16])([H:7])([H:8])[H:9]>>[C-:1]([O+:2]=[C:3]1[C:4]([H:11])([H:12])[C:5]([H:13])([H:14])[C:6]1([H:15])[H:16])([H:7])[H:9].[H:8][H:10]"
C        2.31852677       0.01883638       0.40938533
O        1.23913335      -0.72675432       0.54794220
C        0.10024847      -0.38337578       0.03300679
C       -0.52563180       0.98464341      -0.00023368
C       -1.89684363       0.25803354      -0.03919734
C       -1.20168945      -1.10120751       0.25616025
H        2.19215061       1.09287480       0.34852945
H        1.87377394      -0.11482462      -1.46117233
H        3.19928383      -0.41759965       0.85365852
H        1.09759757      -0.29269938      -1.60256741
H       -0.35076691       1.52918315       0.93808108
H       -0.28658103       1.64965296      -0.83036387
H       -2.36165652       0.28777173      -1.02314825
H       -2.62275234       0.58365846       0.70335728
H       -1.33767854      -1.44412299       1.28593781
H       -1.43711427      -1.92407022      -0.41937579
16
Frame=1 idx=006205 GeodesicLength=0.07954907398171362 rxn_smarts="[C:1]([O:2][C:3]1([H:10])[C:4]([H:11])([H:12])[C:5]([H:13])([H:14])[C:6]1([H:15])[H:16])([H:7])([H:8])[H:9]>>[C-:1]([O+:2]=[C:3]1[C:4]([H:11])([H:12])[C:5]([H:13])([H:14])[C:6]1([H:15])[H:16])([H:7])[H:9].[H:8][H:10]"
C        2.32344011       0.01797548       0.39437012
O        1.23724999      -0.71707259       0.56265639
C        0.10135758      -0.38083066       0.02850445
C       -0.52829462       0.98681691       0.00396481
C       -1.89755809       0.25751431      -0.04376036
C       -1.20018493      -1.09999912       0.25298124
H        2.19892924       1.09335630       0.34619860
H        1.87802823      -0.12558821      -1.44779964
H        3.20480303      -0.41956567       0.83682663
H        1.08267874      -0.29877765      -1.58660818
H       -0.35728608       1.52569134       0.94602420
H       -0.28854495       1.65791380      -0.82117852
H       -2.35699204       0.28770374      -1.03027851
H       -2.62843362       0.58032532       0.69517103
H       -1.33525217      -1.44057626       1.28359075
H       -1.43394042      -1.92488705      -0.42066301
16
Frame=2 idx=006205 GeodesicLength=0.15886579126501824 rxn_smarts="[C:1]([O:2][C:3]1([H:10])[C:4]([H:11])([H:12])[C:5]([H:13])([H:14])[C:6]1([H:15])[H:16])([H:7])([H:8])[H:9]>>[C-:1]([O+:2]=[C:3]1[C:4]([H:11])([H:12])[C:5]([H:13])([H:14])[C:6]1([H:15])[H:16])([H:7])[H:9].[H:8][H:10]"
C        2.32800219       0.01694789       0.37993847
O        1.23545760      -0.70728278       0.57658628
C        0.10245607      -0.37825734       0.02405521
C       -0.53100535       0.98893936       0.00796079
C       -1.89827995       0.25695103      -0.04819518
C       -1.19863966      -1.09879541       0.24998033
H        2.20591850       1.09357034       0.34385675
H        1.88276395      -0.13558773      -1.43467912
H        3.20979002      -0.42204503       0.82058143
H        1.06784846      -0.30450902      -1.57114784
H       -0.36374629       1.52230034       0.95359876
H       -0.29071166       1.66596368      -0.81229642
H       -2.35247760       0.28749158      -1.03718370
H       -2.63398127       0.57701854       0.68716283
H       -1.33263427      -1.43694635       1.28146421
H       -1.43076075      -1.92575912      -0.42168282
16
Frame=3 idx=006205 GeodesicLength=0.2380507221537182 rxn_smarts="[C:1]([O:2][C:3]1([H:10])[C:4]([H:11])([H:12])[C:5]([H:13])([H:14])[C:6]1([H:15])[H:16])([H:7])([H:8])[H:9]>>[C-:1]([O+:2]=[C:3]1[C:4]([H:11])([H:12])[C:5]([H:13])([H:14])[C:6]1([H:15])[H:16])([H:7])[H:9].[H:8][H:10]"
C        2.33224159       0.01577756       0.36606994
O        1.23375780      -0.69744005       0.58974082
C        0.10353953      -0.37566304       0.01964719
C       -0.53375651       0.99101106       0.01176683
C       -1.89900972       0.25635107      -0.05250110
C       -1.19706284      -1.09759558       0.24714595
H        2.21307792       1.09354721       0.34151191
H        1.88802400      -0.14485936      -1.42181153
H        3.21427717      -0.42497002       0.80493565
H        1.05305152      -0.30994495      -1.55619891
H       -0.37013502       1.51899387       0.96083095
H       -0.29306452       1.67381245      -0.80369931
H       -2.34811154       0.28715511      -1.04386630
H       -2.63939760       0.57374178       0.67933701
H       -1.32983769      -1.43323906       1.27954249
H       -1.42759409      -1.92667806      -0.42245160
16
Frame=4 idx=006205 GeodesicLength=0.3171654155458106 rxn_smarts="[C:1]([O:2][C:3]1([H:10])[C:4]([H:11])([H:12])[C:5]([H:13])([H:14])[C:6]1([H:15])[H:16])([H:7])([H:8])[H:9]>>[C-:1]([O+:2]=[C:3]1[C:4]([H:11])([H:12])[C:5]([H:13])([H:14])[C:6]1([H:15])[H:16])([H:7])[H:9].[H:8][H:10]"
C        2.33618543       0.01448782       0.35274270
O        1.23215182      -0.68759569       0.60213310
C        0.10460360      -0.37305489       0.01526875
C       -0.53654063       0.99303224       0.01539487
C       -1.89974799       0.25572171      -0.05667720
C       -1.19546349      -1.09639885       0.24446687
H        2.22036720       1.09331569       0.33917477
H        1.89384997      -0.15344183      -1.40919889
H        3.21829575      -0.42827484       0.78989836
H        1.03823736      -0.31513291      -1.54177257
H       -0.37644045       1.51575619       0.96774472
H       -0.29558836       1.68146817      -0.79537065
H       -2.34389197       0.28671384      -1.05032782
H       -2.64468380       0.57049934       0.67169799
H       -1.32687556      -1.42946002       1.27781020
H       -1.42445889      -1.92763597      -0.42298522
16
Frame=5 idx=006205 GeodesicLength=0.39633203996669897 rxn_smarts="[C:1]([O:2][C:3]1([H:10])[C:4]([H:11])([H:12])[C:5]([H:13])([H:14])[C:6]1([H:15])[H:16])([H:7])([H:8])[H:9]>>[C-:1]([O+:2]=[C:3]1[C:4]([H:11])([H:12])[C:5]([H:13])([H:14])[C:6]1([H:15])[H:16])([H:7])[H:9].[H:8][H:10]"
C        2.33985834       0.01310337       0.33993756
O        1.23063916      -0.67780304       0.61377292
C        0.10564324      -0.37044139       0.01090302
C       -0.53934948       0.99500183       0.01885310
C       -1.90049659       0.25507081      -0.06072066
C       -1.19385142      -1.09520438       0.24193172
H        2.22774480       1.09290407       0.33686288
H        1.90030182      -0.16136872      -1.39684082
H        3.22187770      -0.43189047       0.77547930
H        1.02334569      -0.32012581      -1.52788297
H       -0.38264614       1.51257127       0.97436057
H       -0.29826703       1.68893787      -0.78729816
H       -2.33982305       0.28618722      -1.05656729
H       -2.64984048       0.56729700       0.66425499
H       -1.32375907      -1.42561460       1.27625232
H       -1.42137746      -1.92862503      -0.42329849
16
Frame=6 idx=006205 GeodesicLength=0.4755924613699444 rxn_smarts="[C:1]([O:2][C:3]1([H:10])[C:4]([H:11])([H:12])[C:5]([H:13])([H:14])[C:6]1([H:15])[H:16])([H:7])([H:8])[H:9]>>[C-:1]([O+:2]=[C:3]1[C:4]([H:11])([H:12])[C:5]([H:13])([H:14])[C:6]1([H:15])[H:16])([H:7])[H:9].[H:8][H:10]"
C        2.34328148       0.01164610       0.32763835
O        1.22921942      -0.66810819       0.62466577
C        0.10665447      -0.36783023       0.00653483
C       -0.54217596       0.99691864       0.02214837
C       -1.90125561       0.25440554      -0.06462789
C       -1.19223490      -1.09401164       0.23953030
H        2.23517210       1.09233745       0.33459124
H        1.90743105      -0.16867730      -1.38473681
H        3.22504827      -0.43575504       0.76169245
H        1.00832428      -0.32496370      -1.51454604
H       -0.38873708       1.50942481       0.98069392
H       -0.30108815       1.69622653      -0.77947137
H       -2.33590757       0.28559302      -1.06258140
H       -2.65486478       0.56414056       0.65701765
H       -1.32049724      -1.42170811       1.27485532
H       -1.41836978      -1.92963844      -0.42340468
16
Frame=7 idx=006205 GeodesicLength=0.5549783652675566 rxn_smarts="[C:1]([O:2][C:3]1([H:10])[C:4]([H:11])([H:12])[C:5]([H:13])([H:14])[C:6]1([H:15])[H:16])([H:7])([H:8])[H:9]>>[C-:1]([O+:2]=[C:3]1[C:4]([H:11])([H:12])[C:5]([H:13])([H:14])[C:6]1([H:15])[H:16])([H:7])[H:9].[H:8][H:10]"
C        2.34647844       0.01014071       0.31582394
O        1.22788900      -0.65856028       0.63482414
C        0.10763205      -0.36523051       0.00215007
C       -0.54501240       0.99878051       0.02528832
C       -1.90202813       0.25373363      -0.06839549
C       -1.19062473      -1.09282020       0.23725195
H        2.24260977       1.09164209       0.33237670
H        1.91529541      -0.17541016      -1.37288856
H        3.22783956      -0.43979945       0.74854468
H        0.99312486      -0.32968797      -1.50177239
H       -0.39469695       1.50630192       0.98676171
H       -0.30403636       1.70333783      -0.77187962
H       -2.33215113       0.28495028      -1.06836808
H       -2.65975787       0.56103710       0.64999648
H       -1.31710314      -1.41774669       1.27360498
H       -1.41545838      -1.93066881      -0.42331882
16
Frame=8 idx=006205 GeodesicLength=0.6345359845033708 rxn_smarts="[C:1]([O:2][C:3]1([H:10])[C:4]([H:11])([H:12])[C:5]([H:13])([H:14])[C:6]1([H:15])[H:16])([H:7])([H:8])[H:9]>>[C-:1]([O+:2]=[C:3]1[C:4]([H:11])([H:12])[C:5]([H:13])([H:14])[C:6]1([H:15])[H:16])([H:7])[H:9].[H:8][H:10]"
C        2.34946448       0.00860919       0.30448352
O        1.22664660      -0.64920229       0.64424855
C        0.10857170      -0.36265045      -0.00227322
C       -0.54785096       1.00058530       0.02827496
C       -1.90281468       0.25306256      -0.07201681
C       -1.18902830      -1.09162956       0.23508597
H        2.25001940       1.09084161       0.33023901
H        1.92396119      -0.18160517      -1.36129303
H        3.23027082      -0.44396234       0.73605552
H        0.97769048      -0.33433632      -1.48958263
H       -0.40050572       1.50318855       0.99257354
H       -0.30710205       1.71027411      -0.76451976
H       -2.32856294       0.28427691      -1.07391833
H       -2.66451312       0.55799352       0.64320830
H       -1.31358072      -1.41373612       1.27248775
H       -1.41266617      -1.93170949      -0.42305333
16
Frame=9 idx=006205 GeodesicLength=0.7142089391632707 rxn_smarts="[C:1]([O:2][C:3]1([H:10])[C:4]([H:11])([H:12])[C:5]([H:13])([H:14])[C:6]1([H:15])[H:16])([H:7])([H:8])[H:9]>>[C-:1]([O+:2]=[C:3]1[C:4]([H:11])([H:12])[C:5]([H:13])([H:14])[C:6]1([H:15])[H:16])([H:7])[H:9].[H:8][H:10]"
C        2.35225780       0.00707282       0.29360087
O        1.22548758      -0.64007562       0.65295399
C        0.10946808      -0.36009946      -0.00674584
C       -0.55068463       1.00233074       0.03111501
C       -1.90362139       0.25239942      -0.07548773
C       -1.18745789      -1.09044004       0.23302209
H        2.25736690       1.08995850       0.32819344
H        1.93348350      -0.18730971      -1.34995453
H        3.23237877      -0.44817597       0.72422376
H        0.96198747      -0.33894137      -1.47798239
H       -0.40614791       1.50007402       0.99814367
H       -0.31026936       1.71703719      -0.75738295
H       -2.32515293       0.28358907      -1.07922990
H       -2.66913493       0.55501829       0.63666531
H       -1.30994559      -1.40968326       1.27148963
H       -1.41001545      -1.93275461      -0.42262441
16
Frame=10 idx=006205 GeodesicLength=0.7940411009809474 rxn_smarts="[C:1]([O:2][C:3]1([H:10])[C:4]([H:11])([H:12])[C:5]([H:13])([H:14])[C:6]1([H:15])[H:16])([H:7])([H:8])[H:9]>>[C-:1]([O+:2]=[C:3]1[C:4]([H:11])([H:12])[C:5]([H:13])([H:14])[C:6]1([H:15])[H:16])([H:7])[H:9].[H:8][H:10]"
C        2.35487609       0.00555614       0.28315828
O        1.22440754      -0.63122759       0.66094143
C        0.11031632      -0.35758751      -0.01129219
C       -0.55350493       1.00401295       0.03380935
C       -1.90444828       0.25175282      -0.07880032
C       -1.18592170      -1.08925124       0.23104905
H        2.26460859       1.08901720       0.32626069
H        1.94393787      -0.19256719      -1.33886748
H        3.23418162      -0.45237129       0.71307466
H        0.94595573      -0.34353963      -1.46699375
H       -0.41160040       1.49694203       1.00347847
H       -0.31352860       1.72362742      -0.75046660
H       -2.32193147       0.28290720      -1.08429114
H       -2.67361389       0.55212044       0.63038726
H       -1.30620190      -1.40559487       1.27059648
H       -1.40753258      -1.93379690      -0.42204420
16
Frame=11 idx=006205 GeodesicLength=0.8739973929285285 rxn_smarts="[C:1]([O:2][C:3]1([H:10])[C:4]([H:11])([H:12])[C:5]([H:13])([H:14])[C:6]1([H:15])[H:16])([H:7])([H:8])[H:9]>>[C-:1]([O+:2]=[C:3]1[C:4]([H:11])([H:12])[C:5]([H:13])([H:14])[C:6]1([H:15])[H:16])([H:7])[H:9].[H:8][H:10]"
C        2.35733457       0.00408125       0.27314403
O        1.22340016      -0.62270096       0.66821987
C        0.11111142      -0.35512484      -0.01593068
C       -0.55630336       1.00562823       0.03636018
C       -1.90529905       0.25113084      -0.08194777
C       -1.18443069      -1.08806335       0.22915545
H        2.27170618       1.08804030       0.32445691
H        1.95539129      -0.19742760      -1.32802921
H        3.23571183      -0.45647740       0.70261826
H        0.92954938      -0.34816157      -1.45663107
H       -0.41684247       1.49378003       1.00858700
H       -0.31686681       1.73004453      -0.74376701
H       -2.31891196       0.28224939      -1.08909423
H       -2.67794794       0.54930960       0.62439242
H       -1.30236014      -1.40147855       1.26979401
H       -1.40524241      -1.93482990      -0.42132815
16
Frame=12 idx=006205 GeodesicLength=0.9540351895979482 rxn_smarts="[C:1]([O:2][C:3]1([H:10])[C:4]([H:11])([H:12])[C:5]([H:13])([H:14])[C:6]1([H:15])[H:16])([H:7])([H:8])[H:9]>>[C-:1]([O+:2]=[C:3]1[C:4]([H:11])([H:12])[C:5]([H:13])([H:14])[C:6]1([H:15])[H:16])([H:7])[H:9].[H:8][H:10]"
C        2.35964692       0.00267112       0.26354498
O        1.22245989      -0.61453706       0.67478803
C        0.11184844      -0.35272130      -0.02068404
C       -0.55907219       1.00717291       0.03876809
C       -1.90617685       0.25054100      -0.08492062
C       -1.18299377      -1.08687673       0.22733044
H        2.27862269       1.08705017       0.32279619
H        1.96791518      -0.20194194      -1.31743630
H        3.23698599      -0.46042741       0.69288040
H        0.91272307      -0.35283242      -1.44691210
H       -0.42185030       1.49057523       1.01347366
H       -0.32027388       1.73628836      -0.73728354
H       -2.31610926       0.28163357      -1.09362705
H       -2.68213026       0.54659458       0.61870376
H       -1.29842484      -1.39734261       1.26906797
H       -1.40317084      -1.93584748      -0.42048987
16
Frame=13 idx=006205 GeodesicLength=1.034098735732407 rxn_smarts="[C:1]([O:2][C:3]1([H:10])[C:4]([H:11])([H:12])[C:5]([H:13])([H:14])[C:6]1([H:15])[H:16])([H:7])([H:8])[H:9]>>[C-:1]([O+:2]=[C:3]1[C:4]([H:11])([H:12])[C:5]([H:13])([H:14])[C:6]1([H:15])[H:16])([H:7])[H:9].[H:8][H:10]"
C        2.36182867       0.00134708       0.25434616
O        1.22157857      -0.60677902       0.68065541
C        0.11252189      -0.35038834      -0.02557168
C       -0.56180258       1.00864278       0.04103459
C       -1.90708725       0.24999181      -0.08771072
C       -1.18162266      -1.08569207       0.22556174
H        2.28531832       1.08606855       0.32129367
H        1.98158143      -0.20616500      -1.30708444
H        3.23803797      -0.46414525       0.68387383
H        0.89543547      -0.35757957      -1.43784957
H       -0.42660095       1.48731636       1.01814522
H       -0.32373631       1.74235708      -0.73101436
H       -2.31354094       0.28107807      -1.09787988
H       -2.68615975       0.54398693       0.61334332
H       -1.29440645      -1.39319590       1.26840283
H       -1.40134543      -1.93684350      -0.41954613
16
Frame=14 idx=006205 GeodesicLength=1.114107916582706 rxn_smarts="[C:1]([O:2][C:3]1([H:10])[C:4]([H:11])([H:12])[C:5]([H:13])([H:14])[C:6]1([H:15])[H:16])([H:7])([H:8])[H:9]>>[C-:1]([O+:2]=[C:3]1[C:4]([H:11])([H:12])[C:5]([H:13])([H:14])[C:6]1([H:15])[H:16])([H:7])[H:9].[H:8][H:10]"
C        2.36389064       0.00012890       0.24553587
O        1.22074838      -0.59946471       0.68582169
C        0.11312659      -0.34813599      -0.03061642
C       -0.56448682       1.01003331       0.04315913
C       -1.90803363       0.24949117      -0.09030746
C       -1.18032690      -1.08451015       0.22383715
H        2.29175626       1.08511767       0.31995516
H        1.99645999      -0.21015956      -1.29696423
H        3.23888798      -0.46755966       0.67562497
H        0.87764965      -0.36241863      -1.42945993
H       -0.43107104       1.48399098       1.02260519
H       -0.32724572       1.74824885      -0.72495958
H       -2.31122421       0.28060208      -1.10183845
H       -2.69002856       0.54149601       0.60833699
H       -1.29031007      -1.38904895       1.26778309
H       -1.39979253      -1.93781130      -0.41851318
16
Frame=15 idx=006205 GeodesicLength=1.1939775939656758 rxn_smarts="[C:1]([O:2][C:3]1([H:10])[C:4]([H:11])([H:12])[C:5]([H:13])([H:14])[C:6]1([H:15])[H:16])([H:7])([H:8])[H:9]>>[C-:1]([O+:2]=[C:3]1[C:4]([H:11])([H:12])[C:5]([H:13])([H:14])[C:6]1([H:15])[H:16])([H:7])[H:9].[H:8][H:10]"
C        2.36584511      -0.00096474       0.23710022
O        1.21996036      -0.59263320       0.69028959
C        0.11365704      -0.34597494      -0.03584037
C       -0.56711682       1.01134024       0.04514202
C       -1.90902157       0.24904712      -0.09270047
C       -1.17911704      -1.08333202       0.22214372
H        2.29789967       1.08421876       0.31878500
H        2.01262021      -0.21399082      -1.28706611
H        3.23956223      -0.47059451       0.66815907
H        0.85933190      -0.36736519      -1.42175675
H       -0.43523611       1.48058812       1.02685770
H       -0.33079182       1.75396196      -0.71911878
H       -2.30917914       0.28022426      -1.10548966
H       -2.69373260       0.53913227       0.60371137
H       -1.28614223      -1.38491275       1.26719239
H       -1.39853919      -1.93874457      -0.41740895
16
Frame=16 idx=006205 GeodesicLength=1.2736241294635784 rxn_smarts="[C:1]([O:2][C:3]1([H:10])[C:4]([H:11])([H:12])[C:5]([H:13])([H:14])[C:6]1([H:15])[H:16])([H:7])([H:8])[H:9]>>[C-:1]([O+:2]=[C:3]1[C:4]([H:11])([H:12])[C:5]([H:13])([H:14])[C:6]1([H:15])[H:16])([H:7])[H:9].[H:8][H:10]"
C        2.36770557      -0.00191549       0.22902421
O        1.21920418      -0.58632351       0.69406389
C        0.11410786      -0.34391635      -0.04126623
C       -0.56968393       1.01255895       0.04698330
C       -1.91005689       0.24866805      -0.09487833
C       -1.17800397      -1.08215908       0.22046729
H        2.30371028       1.08339363       0.31778429
H        2.03013126      -0.21772939      -1.27737753
H        3.24008938      -0.47316955       0.66150312
H        0.84045000      -0.37243254      -1.41475316
H       -0.43907102       1.47709713       1.03090636
H       -0.33436354       1.75949422      -0.71349243
H       -2.30742769       0.27996411      -1.10881921
H       -2.69726773       0.53690652       0.59949522
H       -1.28191009      -1.38079993       1.26661285
H       -1.39761368      -1.93963675      -0.41625363
