13
Frame=0 idx=002322 GeodesicLength=0.0 rxn_smarts="[O:1]=[C:2]([N:3]([C:4]1([H:9])[C:5]([H:10])([H:11])[C:6]1([H:12])[H:13])[H:8])[H:7]>>[O:1]=[C:2]([C:5]([N:3]([C:4](=[C:6]([H:12])[H:13])[H:9])[H:8])([H:10])[H:11])[H:7]"
O        2.34815512      -1.63240619       0.27425406
C        1.49949416      -1.02907613      -0.33037360
N        0.96818072       0.15826954       0.09098879
C       -0.05339021       0.87518044      -0.54695772
C       -0.91262648       0.32842581       2.06145897
C       -1.00239656       0.35629825      -1.31727132
H        1.08379310      -1.37316793      -1.29121834
H        1.39452297       0.57074405       0.90718334
H       -0.00894252       1.94170775      -0.36172278
H       -0.58779613      -0.72126781       2.20778532
H       -1.91122476       0.21952191       1.59744284
H       -1.71188774       1.01269373      -1.79997676
H       -1.10588165      -0.70692340      -1.49159280
13
Frame=1 idx=002322 GeodesicLength=0.16954040091632896 rxn_smarts="[O:1]=[C:2]([N:3]([C:4]1([H:9])[C:5]([H:10])([H:11])[C:6]1([H:12])[H:13])[H:8])[H:7]>>[O:1]=[C:2]([C:5]([N:3]([C:4](=[C:6]([H:12])[H:13])[H:9])[H:8])([H:10])[H:11])[H:7]"
O        2.32354373      -1.65994513       0.29814476
C        1.45910105      -1.05543454      -0.28294870
N        0.97400852       0.18587880       0.10161031
C       -0.05035858       0.89658572      -0.53839225
C       -0.89373767       0.30088217       1.95730211
C       -1.02459979       0.36523178      -1.27596627
H        1.08098092      -1.36584386      -1.27100935
H        1.42464286       0.61685042       0.89462764
H        0.01381480       1.96838130      -0.39383599
H       -0.55215224      -0.72475746       2.19389326
H       -1.91323429       0.15092513       1.55900527
H       -1.72199646       1.01791179      -1.78096069
H       -1.12001285      -0.69666613      -1.46147011
13
Frame=2 idx=002322 GeodesicLength=0.33916946619882093 rxn_smarts="[O:1]=[C:2]([N:3]([C:4]1([H:9])[C:5]([H:10])([H:11])[C:6]1([H:12])[H:13])[H:8])[H:7]>>[O:1]=[C:2]([C:5]([N:3]([C:4](=[C:6]([H:12])[H:13])[H:9])[H:8])([H:10])[H:11])[H:7]"
O        2.29339170      -1.69009617       0.32370376
C        1.42427210      -1.07634306      -0.24134156
N        0.97894444       0.21170811       0.11086761
C       -0.04856307       0.91631238      -0.53054490
C       -0.87439074       0.27132775       1.85966558
C       -1.04395700       0.37364563      -1.23961912
H        1.08199197      -1.35766761      -1.25174405
H        1.44967669       0.65758357       0.88343463
H        0.03026809       1.99126666      -0.42114750
H       -0.51756523      -0.72334783       2.18177627
H       -1.90916998       0.09088200       1.52295437
H       -1.73399337       1.02142531      -1.76094814
H       -1.13090562      -0.68669673      -1.43705695
13
Frame=3 idx=002322 GeodesicLength=0.5088986008502085 rxn_smarts="[O:1]=[C:2]([N:3]([C:4]1([H:9])[C:5]([H:10])([H:11])[C:6]1([H:12])[H:13])[H:8])[H:7]>>[O:1]=[C:2]([C:5]([N:3]([C:4](=[C:6]([H:12])[H:13])[H:9])[H:8])([H:10])[H:11])[H:7]"
O        2.25993947      -1.72187118       0.35006336
C        1.39393144      -1.09361993      -0.20472476
N        0.98324426       0.23604455       0.11914366
C       -0.04775554       0.93453998      -0.52311776
C       -0.85450485       0.24013594       1.76773043
C       -1.06090182       0.38128619      -1.20751166
H        1.08595767      -1.34940581      -1.23366705
H        1.47053000       0.69405936       0.87385053
H        0.04147156       2.01130066      -0.44389955
H       -0.48435905      -0.71754433       2.17056890
H       -1.90070603       0.03858093       1.48872314
H       -1.74749716       1.02378201      -1.74000472
H       -1.13934994      -0.67728837      -1.41715453
13
Frame=4 idx=002322 GeodesicLength=0.6786970991861281 rxn_smarts="[O:1]=[C:2]([N:3]([C:4]1([H:9])[C:5]([H:10])([H:11])[C:6]1([H:12])[H:13])[H:8])[H:7]>>[O:1]=[C:2]([C:5]([N:3]([C:4](=[C:6]([H:12])[H:13])[H:9])[H:8])([H:10])[H:11])[H:7]"
O        2.22464566      -1.75465464       0.37618620
C        1.36707970      -1.10866608      -0.17230268
N        0.98700751       0.25898220       0.12675500
C       -0.04779832       0.95131162      -0.51584040
C       -0.83406012       0.20765137       1.68078592
C       -1.07584590       0.38790461      -1.17893814
H        1.09268885      -1.34110227      -1.21704518
H        1.48781857       0.72699211       0.86600282
H        0.04825757       2.02903048      -0.46235151
H       -0.45282190      -0.70755641       2.15987737
H       -1.88910383      -0.00640816       1.45617737
H       -1.76207660       1.02517496      -1.71831430
H       -1.14579119      -0.66865978      -1.40099247
13
Frame=5 idx=002322 GeodesicLength=0.8485716170709021 rxn_smarts="[O:1]=[C:2]([N:3]([C:4]1([H:9])[C:5]([H:10])([H:11])[C:6]1([H:12])[H:13])[H:8])[H:7]>>[O:1]=[C:2]([C:5]([N:3]([C:4](=[C:6]([H:12])[H:13])[H:9])[H:8])([H:10])[H:11])[H:7]"
O        2.18818322      -1.78830418       0.40144943
C        1.34309497      -1.12238143      -0.14351680
N        0.99034442       0.28065628       0.13392360
C       -0.04862236       0.96670392      -0.50849535
C       -0.81302143       0.17412006       1.59822758
C       -1.08915141       0.39330698      -1.15330473
H        1.10220964      -1.33265329      -1.20198356
H        1.50205176       0.75699614       0.85994514
H        0.05117197       2.04490156      -0.47672215
H       -0.42304649      -0.69365555       2.14917377
H       -1.87522891      -0.04429239       1.42532933
H       -1.77746088       1.02560013      -1.69604543
H       -1.15052450      -0.66099823      -1.38798084
13
Frame=6 idx=002322 GeodesicLength=1.0185069943534022 rxn_smarts="[O:1]=[C:2]([N:3]([C:4]1([H:9])[C:5]([H:10])([H:11])[C:6]1([H:12])[H:13])[H:8])[H:7]>>[O:1]=[C:2]([C:5]([N:3]([C:4](=[C:6]([H:12])[H:13])[H:9])[H:8])([H:10])[H:11])[H:7]"
O        2.15100742      -1.82275407       0.42533880
C        1.32172680      -1.13529694      -0.11805299
N        0.99334081       0.30120038       0.14082817
C       -0.05017942       0.98073953      -0.50092296
C       -0.79130270       0.13959656       1.51950694
C       -1.10107849       0.39725900      -1.13008336
H        1.11465635      -1.32390528      -1.18850789
H        1.51357581       0.78457593       0.85571520
H        0.05053057       2.05918828      -0.48715851
H       -0.39537026      -0.67654919       2.13766185
H       -1.85977190      -0.07434692       1.39654680
H       -1.79342896       1.02482238      -1.67331531
H       -1.15370603      -0.65452967      -1.37755673
13
Frame=7 idx=002322 GeodesicLength=1.1885053815771274 rxn_smarts="[O:1]=[C:2]([N:3]([C:4]1([H:9])[C:5]([H:10])([H:11])[C:6]1([H:12])[H:13])[H:8])[H:7]>>[O:1]=[C:2]([C:5]([N:3]([C:4](=[C:6]([H:12])[H:13])[H:9])[H:8])([H:10])[H:11])[H:7]"
O        2.11330235      -1.85807796       0.44747344
C        1.30281548      -1.14778167      -0.09567819
N        0.99602537       0.32073882       0.14764012
C       -0.05245665       0.99344230      -0.49300021
C       -0.76893030       0.10408644       1.44408204
C       -1.11181710       0.39958325      -1.10890533
H        1.13015592      -1.31471353      -1.17656097
H        1.52258485       0.81013645       0.85339562
H        0.04651669       2.07209329      -0.49374175
H       -0.36984911      -0.65680017       2.12470464
H       -1.84310539      -0.09588534       1.37019144
H       -1.80980709       1.02260058      -1.65026414
H       -1.15543502      -0.64942245      -1.36933671
13
Frame=8 idx=002322 GeodesicLength=1.3584635181372153 rxn_smarts="[O:1]=[C:2]([N:3]([C:4]1([H:9])[C:5]([H:10])([H:11])[C:6]1([H:12])[H:13])[H:8])[H:7]>>[O:1]=[C:2]([C:5]([N:3]([C:4](=[C:6]([H:12])[H:13])[H:9])[H:8])([H:10])[H:11])[H:7]"
O        2.07481746      -1.89467896       0.46768835
C        1.28624642      -1.16014827      -0.07622264
N        0.99839737       0.33938976       0.15448691
C       -0.05549080       1.00489070      -0.48467280
C       -0.74609529       0.06752541       1.37142701
C       -1.12153613       0.40021070      -1.08957599
H        1.14899481      -1.30491237      -1.16607764
H        1.52918402       0.83398891       0.85306167
H        0.03917101       2.08385196      -0.49653285
H       -0.34618663      -0.63442539       2.11011700
H       -1.82521191      -0.10877547       1.34654456
H       -1.82655207       1.01881928      -1.62704367
H       -1.15573826      -0.64573624      -1.36319991
13
Frame=9 idx=002322 GeodesicLength=1.528679688326642 rxn_smarts="[O:1]=[C:2]([N:3]([C:4]1([H:9])[C:5]([H:10])([H:11])[C:6]1([H:12])[H:13])[H:8])[H:7]>>[O:1]=[C:2]([C:5]([N:3]([C:4](=[C:6]([H:12])[H:13])[H:9])[H:8])([H:10])[H:11])[H:7]"
O        2.03653657      -1.93190858       0.48511807
C        1.27222451      -1.17241305      -0.05959010
N        1.00029646       0.35721110       0.16171686
C       -0.05925754       1.01480503      -0.47581735
C       -0.72268444       0.02972998       1.30100094
C       -1.13022049       0.39863379      -1.07180074
H        1.17100020      -1.29442948      -1.15682159
H        1.53306798       0.85641960       0.85513611
H        0.02840655       2.09417392      -0.49528516
H       -0.32539104      -0.61191183       2.09201272
H       -1.80599698      -0.10899269       1.32670898
H       -1.84333544       1.01265004      -1.60380078
H       -1.15464635      -0.64396783      -1.35857795
13
Frame=10 idx=002322 GeodesicLength=1.6988842224017011 rxn_smarts="[O:1]=[C:2]([N:3]([C:4]1([H:9])[C:5]([H:10])([H:11])[C:6]1([H:12])[H:13])[H:8])[H:7]>>[O:1]=[C:2]([C:5]([N:3]([C:4](=[C:6]([H:12])[H:13])[H:9])[H:8])([H:10])[H:11])[H:7]"
O        1.99729420      -1.97079249       0.49998450
C        1.26034064      -1.18494765      -0.04545638
N        1.00159817       0.37430499       0.16943202
C       -0.06388605       1.02346805      -0.46648776
C       -0.69928622      -0.00898798       1.23247129
C       -1.13809555       0.39515800      -1.05564327
H        1.19638511      -1.28316933      -1.14849205
H        1.53424967       0.87759992       0.85962418
H        0.01420302       2.10346650      -0.49016216
H       -0.30619840      -0.58751636       2.07124131
H       -1.78413192      -0.09928376       1.31009832
H       -1.86026459       1.00449941      -1.58082035
H       -1.15220809      -0.64379929      -1.35578965
13
Frame=11 idx=002322 GeodesicLength=1.8692537621324574 rxn_smarts="[O:1]=[C:2]([N:3]([C:4]1([H:9])[C:5]([H:10])([H:11])[C:6]1([H:12])[H:13])[H:8])[H:7]>>[O:1]=[C:2]([C:5]([N:3]([C:4](=[C:6]([H:12])[H:13])[H:9])[H:8])([H:10])[H:11])[H:7]"
O        1.95700069      -2.01112307       0.51202975
C        1.25021456      -1.19780285      -0.03334888
N        1.00209921       0.39079488       0.17789748
C       -0.06931753       1.03091008      -0.45672328
C       -0.67598100      -0.04778838       1.16576462
C       -1.14520308       0.38980476      -1.04095629
H        1.22456734      -1.27123091      -1.14044472
H        1.53261376       0.89780410       0.86665442
H       -0.00319369       2.11165147      -0.48143446
H       -0.28872898      -0.56197214       2.04691535
H       -1.75821901      -0.08008948       1.29629062
H       -1.87728041       0.99421429      -1.55808345
H       -1.14857185      -0.64517274      -1.35456115
13
Frame=12 idx=002322 GeodesicLength=2.039961666492494 rxn_smarts="[O:1]=[C:2]([N:3]([C:4]1([H:9])[C:5]([H:10])([H:11])[C:6]1([H:12])[H:13])[H:8])[H:7]>>[O:1]=[C:2]([C:5]([N:3]([C:4](=[C:6]([H:12])[H:13])[H:9])[H:8])([H:10])[H:11])[H:7]"
O        1.91495464      -2.05282019       0.52145448
C        1.24101660      -1.21101891      -0.02246785
N        1.00177218       0.40698678       0.18718178
C       -0.07532925       1.03752687      -0.44671024
C       -0.65274247      -0.08462140       1.10133053
C       -1.15163341       0.38305528      -1.02744289
H        1.25462098      -1.25890102      -1.13171452
H        1.52860139       0.91753361       0.87579674
H       -0.02294699       2.11898127      -0.47016051
H       -0.27266179      -0.53544268       2.01879296
H       -1.72712324      -0.05578566       1.28361007
H       -1.89442456       0.98216548      -1.53534899
H       -1.14410407      -0.64765946      -1.35432156
13
Frame=13 idx=002322 GeodesicLength=2.2109273523817223 rxn_smarts="[O:1]=[C:2]([N:3]([C:4]1([H:9])[C:5]([H:10])([H:11])[C:6]1([H:12])[H:13])[H:8])[H:7]>>[O:1]=[C:2]([C:5]([N:3]([C:4](=[C:6]([H:12])[H:13])[H:9])[H:8])([H:10])[H:11])[H:7]"
O        1.87058727      -2.09563604       0.52860492
C        1.23190607      -1.22458754      -0.01195490
N        1.00089051       0.42335221       0.19708902
C       -0.08152300       1.04395203      -0.43678212
C       -0.62935049      -0.11699758       1.03991670
C       -1.15747829       0.37561808      -1.01465154
H        1.28564773      -1.24659189      -1.12131082
H        1.52316413       0.93750570       0.88614431
H       -0.04376699       2.12598804      -0.45807345
H       -0.25768486      -0.50879315       1.98716383
H       -1.69132356      -0.03201363       1.27019214
H       -1.91174208       0.96896620      -1.51227720
H       -1.13932644      -0.65076242      -1.35406088
13
Frame=14 idx=002322 GeodesicLength=2.382099549161813 rxn_smarts="[O:1]=[C:2]([N:3]([C:4]1([H:9])[C:5]([H:10])([H:11])[C:6]1([H:12])[H:13])[H:8])[H:7]>>[O:1]=[C:2]([C:5]([N:3]([C:4](=[C:6]([H:12])[H:13])[H:9])[H:8])([H:10])[H:11])[H:7]"
O        1.82351192      -2.13929924       0.53354364
C        1.22238652      -1.23840163      -0.00128337
N        0.99977710       0.44032747       0.20732188
C       -0.08756312       1.05068576      -0.42721109
C       -0.60535787      -0.14347949       0.98196254
C       -1.16269402       0.36801544      -1.00219331
H        1.31703253      -1.23455108      -1.10861656
H        1.51708154       0.95833049       0.89687899
H       -0.06464784       2.13311791      -0.44666919
H       -0.24336530      -0.48301463       1.95288341
H       -1.65258037      -0.01260119       1.25495408
H       -1.92905593       0.95505398      -1.48866614
H       -1.13452516      -0.65418381      -1.35290490
13
Frame=15 idx=002322 GeodesicLength=2.553551596561722 rxn_smarts="[O:1]=[C:2]([N:3]([C:4]1([H:9])[C:5]([H:10])([H:11])[C:6]1([H:12])[H:13])[H:8])[H:7]>>[O:1]=[C:2]([C:5]([N:3]([C:4](=[C:6]([H:12])[H:13])[H:9])[H:8])([H:10])[H:11])[H:7]"
O        1.77345836      -2.18353423       0.53602638
C        1.21235525      -1.25230419       0.00966574
N        0.99867187       0.45818828       0.21766828
C       -0.09325427       1.05790540      -0.41813434
C       -0.58049271      -0.16407563       0.92727019
C       -1.16719497       0.36037961      -0.98991630
H        1.34864270      -1.22282441      -1.09340808
H        1.51070470       0.98035829       0.90765047
H       -0.08512587       2.14051891      -0.43658079
H       -0.22931346      -0.45883234       1.91686263
H       -1.61251321       0.00168728       1.23785239
H       -1.94619186       0.94044532      -1.46442848
H       -1.12974653      -0.65791230      -1.35052807
13
Frame=16 idx=002322 GeodesicLength=2.7250461227343465 rxn_smarts="[O:1]=[C:2]([N:3]([C:4]1([H:9])[C:5]([H:10])([H:11])[C:6]1([H:12])[H:13])[H:8])[H:7]>>[O:1]=[C:2]([C:5]([N:3]([C:4](=[C:6]([H:12])[H:13])[H:9])[H:8])([H:10])[H:11])[H:7]"
O        1.72031626      -2.22824262       0.53569578
C        1.20197669      -1.26623676       0.02088594
N        0.99774315       0.47705191       0.22800771
C       -0.09854811       1.06563676      -0.40965978
C       -0.55467012      -0.17949756       0.87543412
C       -1.17097442       0.35270442      -0.97784973
H        1.38069397      -1.21139408      -1.07562010
H        1.50412564       1.00369711       0.91841227
H       -0.10518112       2.14821625      -0.42798678
H       -0.21523635      -0.43658400       1.87993963
H       -1.57216649       0.01157803       1.21934272
H       -1.96313464       0.92507317      -1.43962477
H       -1.12494446      -0.66200264      -1.34697703
