14
Frame=0 idx=004873 GeodesicLength=0.0 rxn_smarts="[C:1]([C@@:2]([C:3]([O:4][H:13])([H:11])[H:12])([C:5](=[O:6])[H:14])[H:10])([H:7])([H:8])[H:9]>>[C:1]([C@@:2]([C:3]([O:4][H:13])([H:11])[H:12])([O+:6]=[C-:5][H:14])[H:10])([H:7])([H:8])[H:9]"
C       -1.19406612      -1.11481709       0.21073343
C       -0.23587716       0.02996695       0.44053158
C        1.17550187      -0.29878431      -0.04114181
O        2.12353583       0.64946258       0.30411553
C       -0.19985703       1.72690359      -0.52217519
O       -1.36248730       1.26732463      -0.27117757
H       -2.19330055      -0.88279762       0.56732108
H       -0.81361798      -1.97778605       0.76381361
H       -1.24678916      -1.38452600      -0.84430154
H       -0.23398373       0.44127288       1.44281803
H        1.41819448      -1.23317462       0.48019312
H        1.16274584      -0.52522479      -1.11746507
H        1.63933436       1.49969413       0.22578907
H       -0.03933338       1.80248569      -1.63905426
14
Frame=1 idx=004873 GeodesicLength=0.04974489903451439 rxn_smarts="[C:1]([C@@:2]([C:3]([O:4][H:13])([H:11])[H:12])([C:5](=[O:6])[H:14])[H:10])([H:7])([H:8])[H:9]>>[C:1]([C@@:2]([C:3]([O:4][H:13])([H:11])[H:12])([O+:6]=[C-:5][H:14])[H:10])([H:7])([H:8])[H:9]"
C       -1.19423933      -1.11882074       0.21510552
C       -0.24005950       0.03209319       0.43524945
C        1.17317248      -0.29905303      -0.03809784
O        2.12225181       0.64088538       0.33006995
C       -0.20967213       1.72594593      -0.51869235
O       -1.37122607       1.25897541      -0.29184357
H       -2.19489690      -0.88716737       0.56856341
H       -0.81656463      -1.97716869       0.77690624
H       -1.24423797      -1.39670712      -0.83803654
H       -0.23768835       0.43738563       1.44095856
H        1.41420414      -1.23968247       0.47276535
H        1.16691281      -0.51601140      -1.11631496
H        1.67267304       1.50079738       0.19278442
H       -0.04062938       1.83852790      -1.62941764
14
Frame=2 idx=004873 GeodesicLength=0.09920892170507309 rxn_smarts="[C:1]([C@@:2]([C:3]([O:4][H:13])([H:11])[H:12])([C:5](=[O:6])[H:14])[H:10])([H:7])([H:8])[H:9]>>[C:1]([C@@:2]([C:3]([O:4][H:13])([H:11])[H:12])([O+:6]=[C-:5][H:14])[H:10])([H:7])([H:8])[H:9]"
C       -1.19446479      -1.12297762       0.21938782
C       -0.24448235       0.03406527       0.43004215
C        1.17071483      -0.29927303      -0.03480720
O        2.11938195       0.63399378       0.35475787
C       -0.21961309       1.72522578      -0.51459151
O       -1.37954825       1.25016568      -0.31338574
H       -2.19666218      -0.89163955       0.56930514
H       -0.81959882      -1.97656088       0.78995430
H       -1.24141638      -1.40912219      -0.83177212
H       -0.24186903       0.43326416       1.43916531
H        1.41073512      -1.24522293       0.46663222
H        1.17084784      -0.50743881      -1.11466067
H        1.70757189       1.49948524       0.15756190
H       -0.04159674       1.87603510      -1.61758948
14
Frame=3 idx=004873 GeodesicLength=0.14842694212290208 rxn_smarts="[C:1]([C@@:2]([C:3]([O:4][H:13])([H:11])[H:12])([C:5](=[O:6])[H:14])[H:10])([H:7])([H:8])[H:9]>>[C:1]([C@@:2]([C:3]([O:4][H:13])([H:11])[H:12])([O+:6]=[C-:5][H:14])[H:10])([H:7])([H:8])[H:9]"
C       -1.19474041      -1.12728656       0.22361048
C       -0.24913289       0.03590118       0.42486687
C        1.16811734      -0.29942922      -0.03139021
O        2.11510497       0.62893988       0.37763316
C       -0.22970008       1.72476297      -0.50993342
O       -1.38736031       1.24085835      -0.33604339
H       -2.19859149      -0.89615941       0.56954683
H       -0.82270415      -1.97592556       0.80304656
H       -1.23834927      -1.42187133      -0.82545915
H       -0.24645711       0.42897846       1.43738986
H        1.40786159      -1.24973605       0.46183240
H        1.17438775      -0.49965899      -1.11262981
H        1.74375374       1.49560984       0.12097915
H       -0.04218969       1.91501643      -1.60344933
14
Frame=4 idx=004873 GeodesicLength=0.19739464192175765 rxn_smarts="[C:1]([C@@:2]([C:3]([O:4][H:13])([H:11])[H:12])([C:5](=[O:6])[H:14])[H:10])([H:7])([H:8])[H:9]>>[C:1]([C@@:2]([C:3]([O:4][H:13])([H:11])[H:12])([O+:6]=[C-:5][H:14])[H:10])([H:7])([H:8])[H:9]"
C       -1.19505910      -1.13171667       0.22780512
C       -0.25399086       0.03761358       0.41968972
C        1.16537267      -0.29948214      -0.02794320
O        2.10961769       0.62577111       0.39835173
C       -0.23995878       1.72449967      -0.50482376
O       -1.39454358       1.23098476      -0.35996540
H       -2.20066541      -0.90068427       0.56931338
H       -0.82589496      -1.97520351       0.81622720
H       -1.23503652      -1.43495567      -0.81902725
H       -0.25139467       0.42456748       1.43556388
H        1.40557730      -1.25318313       0.45832332
H        1.17745215      -0.49270214      -1.11031417
H        1.78095369       1.48910932       0.08369876
H       -0.04242961       1.95538161      -1.58689934
14
Frame=5 idx=004873 GeodesicLength=0.24615477531939417 rxn_smarts="[C:1]([C@@:2]([C:3]([O:4][H:13])([H:11])[H:12])([C:5](=[O:6])[H:14])[H:10])([H:7])([H:8])[H:9]>>[C:1]([C@@:2]([C:3]([O:4][H:13])([H:11])[H:12])([O+:6]=[C-:5][H:14])[H:10])([H:7])([H:8])[H:9]"
C       -1.19540728      -1.13622741       0.23199917
C       -0.25902424       0.03923263       0.41448640
C        1.16249490      -0.29942086      -0.02455995
O        2.10315998       0.62441272       0.41674288
C       -0.25046372       1.72440313      -0.49938967
O       -1.40101748       1.22051274      -0.38530910
H       -2.20286804      -0.90513423       0.56862144
H       -0.82916315      -1.97433260       0.82956442
H       -1.23148038      -1.44840042      -0.81243263
H       -0.25659246       0.42011839       1.43365460
H        1.40388296      -1.25561511       0.45599100
H        1.17999068      -0.48657431      -1.10784199
H        1.81894632       1.48002553       0.04637324
H       -0.04245811       1.99699980      -1.56789981
14
Frame=6 idx=004873 GeodesicLength=0.2947269529801541 rxn_smarts="[C:1]([C@@:2]([C:3]([O:4][H:13])([H:11])[H:12])([C:5](=[O:6])[H:14])[H:10])([H:7])([H:8])[H:9]>>[C:1]([C@@:2]([C:3]([O:4][H:13])([H:11])[H:12])([O+:6]=[C-:5][H:14])[H:10])([H:7])([H:8])[H:9]"
C       -1.19577689      -1.14078157       0.23622189
C       -0.26419555       0.04079016       0.40923572
C        1.15949081      -0.29922544      -0.02132996
O        2.09596228       0.62474833       0.43274948
C       -0.26128501       1.72444059      -0.49375867
O       -1.40668019       1.20941064      -0.41220943
H       -2.20517895      -0.90944288       0.56748932
H       -0.83252196      -1.97325822       0.84312712
H       -1.22768952      -1.46222605      -0.80562445
H       -0.26194870       0.41571477       1.43162855
H        1.40273464      -1.25710873       0.45466797
H        1.18196487      -0.48121313      -1.10534046
H        1.85756567       1.46848697       0.00956645
H       -0.04244151       2.03966454      -1.54642353
14
Frame=7 idx=004873 GeodesicLength=0.34313524974392956 rxn_smarts="[C:1]([C@@:2]([C:3]([O:4][H:13])([H:11])[H:12])([C:5](=[O:6])[H:14])[H:10])([H:7])([H:8])[H:9]>>[C:1]([C@@:2]([C:3]([O:4][H:13])([H:11])[H:12])([O+:6]=[C-:5][H:14])[H:10])([H:7])([H:8])[H:9]"
C       -1.19615630      -1.14532633       0.24048043
C       -0.26947591       0.04230814       0.40393490
C        1.15637463      -0.29887270      -0.01828419
O        2.08817091       0.62666935       0.44643106
C       -0.27250771       1.72454943      -0.48801408
O       -1.41141902       1.19762080      -0.44074075
H       -2.20758107      -0.91355024       0.56590423
H       -0.83599658      -1.97191117       0.85693033
H       -1.22363845      -1.47639235      -0.79856987
H       -0.26740667       0.41140348       1.42946685
H        1.40208292      -1.25770428       0.45423993
H        1.18339535      -0.47654258      -1.10286050
H        1.89675835       1.45453762      -0.02653304
H       -0.04260046       2.08321081      -1.52238530
14
Frame=8 idx=004873 GeodesicLength=0.3914130403040866 rxn_smarts="[C:1]([C@@:2]([C:3]([O:4][H:13])([H:11])[H:12])([C:5](=[O:6])[H:14])[H:10])([H:7])([H:8])[H:9]>>[C:1]([C@@:2]([C:3]([O:4][H:13])([H:11])[H:12])([O+:6]=[C-:5][H:14])[H:10])([H:7])([H:8])[H:9]"
C       -1.19654990      -1.14982051       0.24477705
C       -0.27483359       0.04381254       0.39858736
C        1.15317270      -0.29834329      -0.01544996
O        2.07993765       0.63007761       0.45786620
C       -0.28421854       1.72470584      -0.48223704
O       -1.41512651       1.18512584      -0.47096102
H       -2.21007900      -0.91740232       0.56384485
H       -0.83962078      -1.97025290       0.87098942
H       -1.21933021      -1.49086803      -0.79125008
H       -0.27289293       0.40723097       1.42716910
H        1.40189846      -1.25746157       0.45459596
H        1.18430394      -0.47247913      -1.10045672
H        1.93653294       1.43825080      -0.06173116
H       -0.04319423       2.12742416      -1.49574396
14
Frame=9 idx=004873 GeodesicLength=0.4394930153611346 rxn_smarts="[C:1]([C@@:2]([C:3]([O:4][H:13])([H:11])[H:12])([C:5](=[O:6])[H:14])[H:10])([H:7])([H:8])[H:9]>>[C:1]([C@@:2]([C:3]([O:4][H:13])([H:11])[H:12])([O+:6]=[C-:5][H:14])[H:10])([H:7])([H:8])[H:9]"
C       -1.19693115      -1.15416485       0.24910346
C       -0.28022723       0.04534974       0.39319495
C        1.14989211      -0.29760824      -0.01289848
O        2.07138796       0.63481239       0.46711732
C       -0.29650922       1.72485414      -0.47649791
O       -1.41767320       1.17194016      -0.50280172
H       -2.21261827      -0.92088180       0.56131087
H       -0.84340317      -1.96817532       0.88527616
H       -1.21473890      -1.50555311      -0.78365602
H       -0.27832374       0.40325524       1.42473333
H        1.40211891      -1.25643387       0.45551497
H        1.18470955      -0.46889332      -1.09822703
H        1.97680486       1.41976577      -0.09559695
H       -0.04448851       2.17173309      -1.46657297
14
Frame=10 idx=004873 GeodesicLength=0.48745569900748165 rxn_smarts="[C:1]([C@@:2]([C:3]([O:4][H:13])([H:11])[H:12])([C:5](=[O:6])[H:14])[H:10])([H:7])([H:8])[H:9]>>[C:1]([C@@:2]([C:3]([O:4][H:13])([H:11])[H:12])([O+:6]=[C-:5][H:14])[H:10])([H:7])([H:8])[H:9]"
C       -1.19731981      -1.15833205       0.25343079
C       -0.28562793       0.04693041       0.38779298
C        1.14658225      -0.29665594      -0.01057947
O        2.06259766       0.64086651       0.47430200
C       -0.30944827       1.72497573      -0.47084480
O       -1.41895489       1.15808691      -0.53623666
H       -2.21523447      -0.92396822       0.55824340
H       -0.84739588      -1.96569497       0.89974182
H       -1.20987406      -1.52036375      -0.77582598
H       -0.28365013       0.39947223       1.42220802
H        1.40275747      -1.25464128       0.45704238
H        1.18467550      -0.46575434      -1.09613738
H        2.01774573       1.39900708      -0.12826954
H       -0.04685317       2.21607168      -1.43486758
14
Frame=11 idx=004873 GeodesicLength=0.5352721920964203 rxn_smarts="[C:1]([C@@:2]([C:3]([O:4][H:13])([H:11])[H:12])([C:5](=[O:6])[H:14])[H:10])([H:7])([H:8])[H:9]>>[C:1]([C@@:2]([C:3]([O:4][H:13])([H:11])[H:12])([O+:6]=[C-:5][H:14])[H:10])([H:7])([H:8])[H:9]"
C       -1.19770270      -1.16223954       0.25772748
C       -0.29099107       0.04859194       0.38240076
C        1.14326116      -0.29545792      -0.00851320
O        2.05364120       0.64816322       0.47948183
C       -0.32310163       1.72502444      -0.46532143
O       -1.41884712       1.14361861      -0.57110983
H       -2.21788838      -0.92657898       0.55461724
H       -0.85161922      -1.96274977       0.91430687
H       -1.20473664      -1.53516891      -0.76778839
H       -0.28878660       0.39590699       1.41961369
H        1.40377858      -1.25209784       0.45906730
H        1.18422904      -0.46297068      -1.09421861
H        2.05938394       1.37599560      -0.15949797
H       -0.05062055       2.25996284      -1.40076574
14
Frame=12 idx=004873 GeodesicLength=0.5829455130783602 rxn_smarts="[C:1]([C@@:2]([C:3]([O:4][H:13])([H:11])[H:12])([C:5](=[O:6])[H:14])[H:10])([H:7])([H:8])[H:9]>>[C:1]([C@@:2]([C:3]([O:4][H:13])([H:11])[H:12])([O+:6]=[C-:5][H:14])[H:10])([H:7])([H:8])[H:9]"
C       -1.19808160      -1.16581879       0.26196032
C       -0.29627762       0.05036676       0.37704523
C        1.13996270      -0.29398560      -0.00670675
O        2.04459061       0.65664769       0.48272301
C       -0.33753069       1.72496876      -0.45997569
O       -1.41726939       1.12862667      -0.60720725
H       -2.22056688      -0.92865916       0.55042343
H       -0.85609508      -1.95931644       0.92887758
H       -1.19935073      -1.54981990      -0.75958853
H       -0.29365843       0.39256266       1.41698566
H        1.40517306      -1.24881571       0.46151000
H        1.18342083      -0.46044771      -1.09248971
H        2.10181967       1.35071537      -0.18905900
H       -0.05613644       2.30297541      -1.36449830
14
Frame=13 idx=004873 GeodesicLength=0.6304848334110075 rxn_smarts="[C:1]([C@@:2]([C:3]([O:4][H:13])([H:11])[H:12])([C:5](=[O:6])[H:14])[H:10])([H:7])([H:8])[H:9]>>[C:1]([C@@:2]([C:3]([O:4][H:13])([H:11])[H:12])([O+:6]=[C-:5][H:14])[H:10])([H:7])([H:8])[H:9]"
C       -1.19844387      -1.16901136       0.26609174
C       -0.30144595       0.05228799       0.37174998
C        1.13669885      -0.29221045      -0.00515920
O        2.03546620       0.66630090       0.48406987
C       -0.35277073       1.72477274      -0.45484607
O       -1.41414033       1.11320824      -0.64427629
H       -2.22322308      -0.93016925       0.54565582
H       -0.86083019      -1.95538115       0.94334183
H       -1.19373837      -1.56417940      -0.75127364
H       -0.29818876       0.38945222       1.41434594
H        1.40691039      -1.24478831       0.46431287
H        1.18227565      -0.45811441      -1.09094720
H        2.14517205       1.32307775      -0.21674673
H       -0.06374186       2.34475450      -1.32631891
14
Frame=14 idx=004873 GeodesicLength=0.6779226704263508 rxn_smarts="[C:1]([C@@:2]([C:3]([O:4][H:13])([H:11])[H:12])([C:5](=[O:6])[H:14])[H:10])([H:7])([H:8])[H:9]>>[C:1]([C@@:2]([C:3]([O:4][H:13])([H:11])[H:12])([O+:6]=[C-:5][H:14])[H:10])([H:7])([H:8])[H:9]"
C       -1.19879108      -1.17176175       0.27009574
C       -0.30646769       0.05438918       0.36654211
C        1.13351018      -0.29010695      -0.00388787
O        2.02632498       0.67707797       0.48356720
C       -0.36889145       1.72442514      -0.44997952
O       -1.40947494       1.09750767      -0.68203070
H       -2.22585027      -0.93107758       0.54035235
H       -0.86581230      -1.95095165       0.95760806
H       -1.18794203      -1.57809303      -0.74291080
H       -0.30231723       0.38657174       1.41174528
H        1.40901221      -1.24003101       0.46739366
H        1.18085472      -0.45586635      -1.08963526
H        2.18960726       1.29297990      -0.24224883
H       -0.07376236       2.38493670      -1.28661139
14
Frame=15 idx=004873 GeodesicLength=0.7252840136255232 rxn_smarts="[C:1]([C@@:2]([C:3]([O:4][H:13])([H:11])[H:12])([C:5](=[O:6])[H:14])[H:10])([H:7])([H:8])[H:9]>>[C:1]([C@@:2]([C:3]([O:4][H:13])([H:11])[H:12])([O+:6]=[C-:5][H:14])[H:10])([H:7])([H:8])[H:9]"
C       -1.19911555      -1.17402297       0.27395139
C       -0.31131602       0.05670441       0.36143628
C        1.13041804      -0.28764061      -0.00292367
O        2.01719210       0.68895153       0.48122950
C       -0.38594263       1.72390451      -0.44542081
O       -1.40332436       1.08167014      -0.72014403
H       -2.22841925      -0.93137349       0.53457534
H       -0.87100947      -1.94603656       0.97157781
H       -1.18201124      -1.59141652      -0.73455410
H       -0.30598069       0.38392419       1.40920557
H        1.41148208      -1.23453996       0.47064741
H        1.17919785      -0.45358620      -1.08859595
H        2.23531932       1.26026418      -0.26518212
H       -0.08649017       2.42319735      -1.24580263
14
Frame=16 idx=004873 GeodesicLength=0.7726089753333717 rxn_smarts="[C:1]([C@@:2]([C:3]([O:4][H:13])([H:11])[H:12])([C:5](=[O:6])[H:14])[H:10])([H:7])([H:8])[H:9]>>[C:1]([C@@:2]([C:3]([O:4][H:13])([H:11])[H:12])([O+:6]=[C-:5][H:14])[H:10])([H:7])([H:8])[H:9]"
C       -1.19939973      -1.17576587       0.27764829
C       -0.31597212       0.05926987       0.35644012
C        1.12743149      -0.28477832      -0.00230938
O        2.00806804       0.70192566       0.47702048
C       -0.40398539       1.72320909      -0.44120604
O       -1.39577716       1.06583762      -0.75832448
H       -2.23088954      -0.93106241       0.52840833
H       -0.87636179      -1.94066025       0.98517355
H       -1.17599257      -1.60404175      -0.72625572
H       -0.30912111       0.38152768       1.40674630
H        1.41432824      -1.22830719       0.47397438
H        1.17732298      -0.45116858      -1.08789039
H        2.28252883       1.22468093      -0.28511803
H       -0.10218018       2.45933352      -1.20430741
