16
Frame=0 idx=006475 GeodesicLength=0.0 rxn_smarts="[C:1]([C@@:2]([C:3]([O:4][H:14])([H:12])[H:13])([N:5]([C:6](=[O:7])[H:16])[H:15])[H:11])([H:8])([H:9])[H:10]>>[C:1]([C@@:2]([C:3]([O:4][H:14])([H:12])[H:13])(/[N:5]=[C:6](/[O:7][H:15])[H:16])[H:11])([H:8])([H:9])[H:10]"
C       -1.15933937       1.42929330      -0.06212844
C       -0.35584961       0.20076588       0.33846417
C       -1.09929512      -1.08490849      -0.01650188
O       -0.40109300      -2.24048991       0.38098383
N        0.93984108       0.20641156      -0.31024722
C        2.11941679       0.11094194       0.21540641
O        2.99479147       0.16582072      -0.71403960
H       -0.63733814       2.34232844       0.22438084
H       -2.13789334       1.42618460       0.42167652
H       -1.30993879       1.45177881      -1.14360709
H       -0.19628472       0.20067075       1.42301655
H       -2.05644800      -1.10520280       0.50786883
H       -1.30547004      -1.09481024      -1.09547599
H        0.40949177      -2.28616137      -0.13149638
H        1.82632206       0.27524636      -1.30803664
H        2.36908701       0.00213050       1.26973614
16
Frame=1 idx=006475 GeodesicLength=0.05403503447146574 rxn_smarts="[C:1]([C@@:2]([C:3]([O:4][H:14])([H:12])[H:13])([N:5]([C:6](=[O:7])[H:16])[H:15])[H:11])([H:8])([H:9])[H:10]>>[C:1]([C@@:2]([C:3]([O:4][H:14])([H:12])[H:13])(/[N:5]=[C:6](/[O:7][H:15])[H:16])[H:11])([H:8])([H:9])[H:10]"
C       -1.16643102       1.43078689      -0.05362714
C       -0.35673931       0.20416106       0.34061025
C       -1.09246886      -1.08324280      -0.02507546
O       -0.39208830      -2.23729852       0.37265104
N        0.93957308       0.22878933      -0.30642308
C        2.11655967       0.09937802       0.21860902
O        2.98778509       0.06564205      -0.71622655
H       -0.64897661       2.34556794       0.23598954
H       -2.14442305       1.42063289       0.43156546
H       -1.31966083       1.45790837      -1.13488215
H       -0.19951081       0.19660097       1.42574250
H       -2.05368557      -1.10822313       0.49198380
H       -1.28978505      -1.08943854      -1.10601792
H        0.42313666      -2.27586668      -0.13402012
H        1.81997853       0.27455049      -1.31681612
H        2.37673639       0.07005163       1.27593692
16
Frame=2 idx=006475 GeodesicLength=0.107330920281169 rxn_smarts="[C:1]([C@@:2]([C:3]([O:4][H:14])([H:12])[H:13])([N:5]([C:6](=[O:7])[H:16])[H:15])[H:11])([H:8])([H:9])[H:10]>>[C:1]([C@@:2]([C:3]([O:4][H:14])([H:12])[H:13])(/[N:5]=[C:6](/[O:7][H:15])[H:16])[H:11])([H:8])([H:9])[H:10]"
C       -1.17183638       1.43189996      -0.04517413
C       -0.35722665       0.20667042       0.34261010
C       -1.08597190      -1.08179119      -0.03387701
O       -0.38473889      -2.23488161       0.36401843
N        0.93944811       0.24931610      -0.30204414
C        2.11229649       0.08648421       0.22323343
O        2.97432710      -0.02648954      -0.71386810
H       -0.65842540       2.34799959       0.24765653
H       -2.14898843       1.41531295       0.44107235
H       -1.32740088       1.46380247      -1.12584429
H       -0.20254026       0.19144009       1.42792925
H       -2.05098556      -1.11073867       0.47547739
H       -1.27412425      -1.08398911      -1.11638353
H        0.43480020      -2.26700647      -0.13650560
H        1.81399246       0.27052722      -1.32396079
H        2.38737421       0.14144359       1.27566010
16
Frame=3 idx=006475 GeodesicLength=0.16091136791017163 rxn_smarts="[C:1]([C@@:2]([C:3]([O:4][H:14])([H:12])[H:13])([N:5]([C:6](=[O:7])[H:16])[H:15])[H:11])([H:8])([H:9])[H:10]>>[C:1]([C@@:2]([C:3]([O:4][H:14])([H:12])[H:13])(/[N:5]=[C:6](/[O:7][H:15])[H:16])[H:11])([H:8])([H:9])[H:10]"
C       -1.17709158       1.43298153      -0.03758867
C       -0.35764345       0.20928615       0.34466012
C       -1.07949776      -1.08022052      -0.04222318
O       -0.37777346      -2.23233774       0.35684640
N        0.93969391       0.26927665      -0.29721225
C        2.10777480       0.07454604       0.22889866
O        2.95703388      -0.10995569      -0.70874805
H       -0.66768259       2.35044643       0.25823798
H       -2.15364506       1.41029978       0.44944071
H       -1.33460742       1.46913051      -1.11786807
H       -0.20562607       0.18689170       1.43028544
H       -2.04858660      -1.11263848       0.45901494
H       -1.25801202      -1.07889273      -1.12642243
H        0.44634146      -2.25850480      -0.13710145
H        1.80833088       0.26655600      -1.33044173
H        2.40099108       0.20313517       1.27022158
16
Frame=4 idx=006475 GeodesicLength=0.2147123640527789 rxn_smarts="[C:1]([C@@:2]([C:3]([O:4][H:14])([H:12])[H:13])([N:5]([C:6](=[O:7])[H:16])[H:15])[H:11])([H:8])([H:9])[H:10]>>[C:1]([C@@:2]([C:3]([O:4][H:14])([H:12])[H:13])(/[N:5]=[C:6](/[O:7][H:15])[H:16])[H:11])([H:8])([H:9])[H:10]"
C       -1.18185743       1.43387986      -0.03044616
C       -0.35795796       0.21162732       0.34672712
C       -1.07333721      -1.07866241      -0.05039063
O       -0.37165856      -2.22999316       0.35030151
N        0.94033525       0.28819756      -0.29196365
C        2.10299244       0.06301176       0.23562572
O        2.93716616      -0.18607898      -0.70103355
H       -0.67615231       2.35254826       0.26835745
H       -2.15799045       1.40548850       0.45719432
H       -1.34102473       1.47406747      -1.11044835
H       -0.20880532       0.18225751       1.43272861
H       -2.04665321      -1.11404513       0.44252211
H       -1.24194437      -1.07392957      -1.13631532
H        0.45718988      -2.25060709      -0.13675270
H        1.80287916       0.26156186      -1.33631832
H        2.41681867       0.26067625       1.26021183
16
Frame=5 idx=006475 GeodesicLength=0.2688219437819693 rxn_smarts="[C:1]([C@@:2]([C:3]([O:4][H:14])([H:12])[H:13])([N:5]([C:6](=[O:7])[H:16])[H:15])[H:11])([H:8])([H:9])[H:10]>>[C:1]([C@@:2]([C:3]([O:4][H:14])([H:12])[H:13])(/[N:5]=[C:6](/[O:7][H:15])[H:16])[H:11])([H:8])([H:9])[H:10]"
C       -1.18627150       1.43475793      -0.02376473
C       -0.35818903       0.21386046       0.34883700
C       -1.06705598      -1.07712796      -0.05841017
O       -0.36610013      -2.22788216       0.34468468
N        0.94104506       0.30638484      -0.28618596
C        2.09775626       0.05218500       0.24305152
O        2.91454883      -0.25627911      -0.69165734
H       -0.68430432       2.35459986       0.27801433
H       -2.16202326       1.40092450       0.46411918
H       -1.34669640       1.47877153      -1.10349685
H       -0.21207056       0.17773607       1.43515068
H       -2.04474400      -1.11499096       0.42547339
H       -1.22508386      -1.06924801      -1.14600725
H        0.46776756      -2.24331815      -0.13459827
H        1.79685960       0.25702073      -1.34162156
H        2.43456173       0.31260543       1.24641133
16
Frame=6 idx=006475 GeodesicLength=0.32264561806716896 rxn_smarts="[C:1]([C@@:2]([C:3]([O:4][H:14])([H:12])[H:13])([N:5]([C:6](=[O:7])[H:16])[H:15])[H:11])([H:8])([H:9])[H:10]>>[C:1]([C@@:2]([C:3]([O:4][H:14])([H:12])[H:13])(/[N:5]=[C:6](/[O:7][H:15])[H:16])[H:11])([H:8])([H:9])[H:10]"
C       -1.19013685       1.43533615      -0.01741779
C       -0.35829527       0.21585409       0.35087159
C       -1.06099823      -1.07559903      -0.06625566
O       -0.36128588      -2.22581991       0.33945999
N        0.94203397       0.32376663      -0.28014629
C        2.09227617       0.04245897       0.25119118
O        2.89038906      -0.32071267      -0.68026781
H       -0.69161724       2.35618520       0.28724975
H       -2.16555974       1.39627042       0.47061828
H       -1.35162105       1.48302939      -1.09682760
H       -0.21542722       0.17310211       1.43741542
H       -2.04306226      -1.11564037       0.40847538
H       -1.20831258      -1.06462585      -1.15537315
H        0.47765725      -2.23624460      -0.13172411
H        1.79071201       0.25182505      -1.34645494
H        2.45324784       0.36081442       1.22918576
16
Frame=7 idx=006475 GeodesicLength=0.3771756388614277 rxn_smarts="[C:1]([C@@:2]([C:3]([O:4][H:14])([H:12])[H:13])([N:5]([C:6](=[O:7])[H:16])[H:15])[H:11])([H:8])([H:9])[H:10]>>[C:1]([C@@:2]([C:3]([O:4][H:14])([H:12])[H:13])(/[N:5]=[C:6](/[O:7][H:15])[H:16])[H:11])([H:8])([H:9])[H:10]"
C       -1.19396003       1.43599531      -0.01145844
C       -0.35838464       0.21783892       0.35298676
C       -1.05481448      -1.07410970      -0.07399436
O       -0.35685828      -2.22399806       0.33515709
N        0.94308779       0.34060573      -0.27368855
C        2.08675279       0.03346400       0.25971389
O        2.86468975      -0.38050265      -0.66812935
H       -0.69896978       2.35789638       0.29615455
H       -2.16916308       1.39190438       0.47644663
H       -1.35619689       1.48714820      -1.09067431
H       -0.21887472       0.16870227       1.43982146
H       -2.04146568      -1.11589198       0.39089084
H       -1.19075933      -1.06035615      -1.16467411
H        0.48750378      -2.22975176      -0.12704307
H        1.78389020       0.24750418      -1.35118113
H        2.47352260       0.40355093       1.20967211
16
Frame=8 idx=006475 GeodesicLength=0.43155385993678447 rxn_smarts="[C:1]([C@@:2]([C:3]([O:4][H:14])([H:12])[H:13])([N:5]([C:6](=[O:7])[H:16])[H:15])[H:11])([H:8])([H:9])[H:10]>>[C:1]([C@@:2]([C:3]([O:4][H:14])([H:12])[H:13])(/[N:5]=[C:6](/[O:7][H:15])[H:16])[H:11])([H:8])([H:9])[H:10]"
C       -1.19727207       1.43637705      -0.00559494
C       -0.35838146       0.21948079       0.35503950
C       -1.04886077      -1.07264665      -0.08174741
O       -0.35326547      -2.22236744       0.33096178
N        0.94434088       0.35654167      -0.26706335
C        2.08109396       0.02547868       0.26887245
O        2.83809759      -0.43610711      -0.65419114
H       -0.70551020       2.35909179       0.30500636
H       -2.17228361       1.38745123       0.48214239
H       -1.36012103       1.49104206      -1.08456032
H       -0.22243014       0.16389524       1.44208206
H       -2.04013032      -1.11585418       0.37307485
H       -1.17321897      -1.05603349      -1.17384390
H        0.49668416      -2.22354067      -0.12167600
H        1.77690979       0.24251158      -1.35554316
H        2.49434766       0.44467942       1.18704083
16
Frame=9 idx=006475 GeodesicLength=0.4860872411320547 rxn_smarts="[C:1]([C@@:2]([C:3]([O:4][H:14])([H:12])[H:13])([N:5]([C:6](=[O:7])[H:16])[H:15])[H:11])([H:8])([H:9])[H:10]>>[C:1]([C@@:2]([C:3]([O:4][H:14])([H:12])[H:13])(/[N:5]=[C:6](/[O:7][H:15])[H:16])[H:11])([H:8])([H:9])[H:10]"
C       -1.20038946       1.43666803      -0.00019372
C       -0.35832308       0.22114019       0.35709867
C       -1.04272688      -1.07120381      -0.08922516
O       -0.35002062      -2.22076639       0.32771756
N        0.94559612       0.37217169      -0.26010838
C        2.07532444       0.01828894       0.27807205
O        2.81039947      -0.48727523      -0.64001583
H       -0.71193761       2.36024666       0.31325539
H       -2.17522938       1.38298879       0.48712860
H       -1.36356579       1.49459021      -1.07889176
H       -0.22607707       0.15935969       1.44426952
H       -2.03865476      -1.11557096       0.35498667
H       -1.15498099      -1.05202125      -1.18259109
H        0.50563407      -2.21757504      -0.11466034
H        1.76916997       0.23909211      -1.35984635
H        2.51578158       0.47986634       1.16300417
16
Frame=10 idx=006475 GeodesicLength=0.541073913147461 rxn_smarts="[C:1]([C@@:2]([C:3]([O:4][H:14])([H:12])[H:13])([N:5]([C:6](=[O:7])[H:16])[H:15])[H:11])([H:8])([H:9])[H:10]>>[C:1]([C@@:2]([C:3]([O:4][H:14])([H:12])[H:13])(/[N:5]=[C:6](/[O:7][H:15])[H:16])[H:11])([H:8])([H:9])[H:10]"
C       -1.20348533       1.43696385       0.00501104
C       -0.35824732       0.22271008       0.35919034
C       -1.03664616      -1.06980530      -0.09667166
O       -0.34719082      -2.21939627       0.32493262
N        0.94699086       0.38721230      -0.25295818
C        2.06980764       0.01181310       0.28757392
O        2.78238704      -0.53502624      -0.62516520
H       -0.71825356       2.36137798       0.32137174
H       -2.17826531       1.37872537       0.49184474
H       -1.36689432       1.49800811      -1.07354854
H       -0.22976738       0.15487081       1.44657507
H       -2.03736551      -1.11496757       0.33655452
H       -1.13648298      -1.04822656      -1.19131917
H        0.51440120      -2.21205406      -0.10652622
H        1.76106677       0.23607371      -1.36422038
H        2.53794519       0.51172070       1.13735537
16
Frame=11 idx=006475 GeodesicLength=0.5960613259943187 rxn_smarts="[C:1]([C@@:2]([C:3]([O:4][H:14])([H:12])[H:13])([N:5]([C:6](=[O:7])[H:16])[H:15])[H:11])([H:8])([H:9])[H:10]>>[C:1]([C@@:2]([C:3]([O:4][H:14])([H:12])[H:13])(/[N:5]=[C:6](/[O:7][H:15])[H:16])[H:11])([H:8])([H:9])[H:10]"
C       -1.20622615       1.43706630       0.01011309
C       -0.35810573       0.22405591       0.36125285
C       -1.03058032      -1.06842422      -0.10410253
O       -0.34501537      -2.21817878       0.32246006
N        0.94843525       0.40164063      -0.24566153
C        2.06422385       0.00615110       0.29734486
O        2.75384209      -0.57954705      -0.60938816
H       -0.72410294       2.36216373       0.32942803
H       -2.18094443       1.37435480       0.49636292
H       -1.36968973       1.50128107      -1.06825265
H       -0.23355749       0.15011692       1.44875459
H       -2.03610901      -1.11411097       0.31770663
H       -1.11758174      -1.04446067      -1.19985485
H        0.52266631      -2.20675572      -0.09727847
H        1.75257584       0.23337503      -1.36846649
H        2.56016956       0.54127193       1.10958166
16
Frame=12 idx=006475 GeodesicLength=0.6513675002215867 rxn_smarts="[C:1]([C@@:2]([C:3]([O:4][H:14])([H:12])[H:13])([N:5]([C:6](=[O:7])[H:16])[H:15])[H:11])([H:8])([H:9])[H:10]>>[C:1]([C@@:2]([C:3]([O:4][H:14])([H:12])[H:13])(/[N:5]=[C:6](/[O:7][H:15])[H:16])[H:11])([H:8])([H:9])[H:10]"
C       -1.20888650       1.43712645       0.01502335
C       -0.35793230       0.22533103       0.36333657
C       -1.02446805      -1.06708555      -0.11147033
O       -0.34326107      -2.21713643       0.32049385
N        0.94993296       0.41564724      -0.23818057
C        2.05881602       0.00112087       0.30723517
O        2.72504345      -0.62104710      -0.59328043
H       -0.72984732       2.36289504       0.33731668
H       -2.18359817       1.37004676       0.50058543
H       -1.37228237       1.50440219      -1.06320483
H       -0.23738318       0.14540150       1.45096250
H       -2.03487396      -1.11299838       0.29845545
H       -1.09823012      -1.04091009      -1.20824232
H        0.53067568      -2.20178982      -0.08674374
H        1.74361344       0.23156801      -1.37281339
H        2.58268148       0.56742830       1.08052664
16
Frame=13 idx=006475 GeodesicLength=0.7068078557359907 rxn_smarts="[C:1]([C@@:2]([C:3]([O:4][H:14])([H:12])[H:13])([N:5]([C:6](=[O:7])[H:16])[H:15])[H:11])([H:8])([H:9])[H:10]>>[C:1]([C@@:2]([C:3]([O:4][H:14])([H:12])[H:13])(/[N:5]=[C:6](/[O:7][H:15])[H:16])[H:11])([H:8])([H:9])[H:10]"
C       -1.21139306       1.43707328       0.01973839
C       -0.35771647       0.22651851       0.36543009
C       -1.01829402      -1.06577331      -0.11873418
O       -0.34195895      -2.21620418       0.31902033
N        0.95147427       0.42927281      -0.23051375
C        2.05352244      -0.00334292       0.31716464
O        2.69602462      -0.65963517      -0.57697349
H       -0.73541737       2.36347936       0.34499457
H       -2.18613949       1.36569813       0.50449185
H       -1.37456486       1.50731464      -1.05835500
H       -0.24126369       0.14069025       1.45313210
H       -2.03359886      -1.11165572       0.27886001
H       -1.07841218      -1.03753701      -1.21637088
H        0.53833580      -2.19705175      -0.07494644
H        1.73421534       0.23085279      -1.37722680
H        2.60518647       0.59030028       1.05028855
16
Frame=14 idx=006475 GeodesicLength=0.7623752722806231 rxn_smarts="[C:1]([C@@:2]([C:3]([O:4][H:14])([H:12])[H:13])([N:5]([C:6](=[O:7])[H:16])[H:15])[H:11])([H:8])([H:9])[H:10]>>[C:1]([C@@:2]([C:3]([O:4][H:14])([H:12])[H:13])(/[N:5]=[C:6](/[O:7][H:15])[H:16])[H:11])([H:8])([H:9])[H:10]"
C       -1.21377417       1.43695068       0.02425737
C       -0.35744771       0.22763146       0.36752185
C       -1.01206069      -1.06450391      -0.12587284
O       -0.34099794      -2.21540950       0.31795465
N        0.95305631       0.44251073      -0.22273076
C        2.04838177      -0.00729358       0.32710718
O        2.66700870      -0.69551697      -0.56051613
H       -0.74082381       2.36397637       0.35243761
H       -2.18857932       1.36137719       0.50813259
H       -1.37662692       1.51004408      -1.05372779
H       -0.24514688       0.13601026       1.45528019
H       -2.03222312      -1.11011012       0.25908075
H       -1.05828583      -1.03435182      -1.22422808
H        0.54566900      -2.19255220      -0.06210736
H        1.72442771       0.23116773      -1.38178792
H        2.62742288       0.61006959       1.01919870
16
Frame=15 idx=006475 GeodesicLength=0.8180297248759641 rxn_smarts="[C:1]([C@@:2]([C:3]([O:4][H:14])([H:12])[H:13])([N:5]([C:6](=[O:7])[H:16])[H:15])[H:11])([H:8])([H:9])[H:10]>>[C:1]([C@@:2]([C:3]([O:4][H:14])([H:12])[H:13])(/[N:5]=[C:6](/[O:7][H:15])[H:16])[H:11])([H:8])([H:9])[H:10]"
C       -1.21604213       1.43673430       0.02855709
C       -0.35712691       0.22869348       0.36962013
C       -1.00573791      -1.06326662      -0.13284986
O       -0.34036026      -2.21469857       0.31735606
N        0.95467915       0.45544059      -0.21480285
C        2.04339974      -0.01084411       0.33695689
O        2.63801325      -0.72882986      -0.54419056
H       -0.74610820       2.36437712       0.35959120
H       -2.19093912       1.35704000       0.51146316
H       -1.37845826       1.51253682      -1.04933363
H       -0.24903563       0.13140988       1.45739884
H       -2.03071332      -1.10837052       0.23912788
H       -1.03778465      -1.03137210      -1.23175204
H        0.55267186      -2.18823857      -0.04814944
H        1.71424235       0.23281779      -1.38652583
H        2.64930004       0.62657037       0.98753296
16
Frame=16 idx=006475 GeodesicLength=0.8737568920972466 rxn_smarts="[C:1]([C@@:2]([C:3]([O:4][H:14])([H:12])[H:13])([N:5]([C:6](=[O:7])[H:16])[H:15])[H:11])([H:8])([H:9])[H:10]>>[C:1]([C@@:2]([C:3]([O:4][H:14])([H:12])[H:13])(/[N:5]=[C:6](/[O:7][H:15])[H:16])[H:11])([H:8])([H:9])[H:10]"
C       -1.21820361       1.43644023       0.03262190
C       -0.35674453       0.22971943       0.37172273
C       -0.99931351      -1.06207214      -0.13963221
O       -0.33996990      -2.21407064       0.31720537
N        0.95634220       0.46808985      -0.20675179
C        2.03857986      -0.01408151       0.34665966
O        2.60912423      -0.75974678      -0.52813728
H       -0.75127901       2.36471561       0.36641032
H       -2.19321651       1.35270777       0.51448552
H       -1.38008533       1.51478760      -1.04519750
H       -0.25290088       0.12692077       1.45949659
H       -2.02901473      -1.10646863       0.21911500
H       -1.01697788      -1.02861167      -1.23890725
H        0.55934759      -2.18410429      -0.03319812
H        1.70367478       0.23589474      -1.39149083
H        2.67063723       0.63987966       0.95559789
