10
Frame=0 idx=007765 GeodesicLength=0.0 rxn_smarts="[O:1]=[C:2]([n:3]1[c:4]([H:9])[n:5][c:6]([H:10])[n:7]1)[H:8]>>[O:1]1[C@:2]2([H:8])[N:3]3[C@:4]2([H:9])[N:5]2[C@:6]1([H:10])[N:7]32"
O        0.36164205      -1.20567783      -0.64660134
C        1.07377225      -0.33196475       0.05030734
N        0.34080468       0.30026223       1.13059431
C        0.17790289       1.13329124      -0.01304260
N       -0.96793698       0.72672678      -0.60015919
C       -0.97603270      -0.67302993      -0.27831502
N       -0.94381991      -0.47064743       1.09410900
H        2.15179832      -0.35014774      -0.01198508
H        0.55774357       2.14176458      -0.03194689
H       -1.77587417      -1.27057714      -0.69296052
10
Frame=1 idx=007765 GeodesicLength=0.10758189652053034 rxn_smarts="[O:1]=[C:2]([n:3]1[c:4]([H:9])[n:5][c:6]([H:10])[n:7]1)[H:8]>>[O:1]1[C@:2]2([H:8])[N:3]3[C@:4]2([H:9])[N:5]2[C@:6]1([H:10])[N:7]32"
O        0.38629556      -1.19388245      -0.67289516
C        1.08418326      -0.33041672       0.04552552
N        0.34369372       0.29652282       1.12247291
C        0.16866582       1.13481123      -0.01375118
N       -0.99246672       0.73229831      -0.57787897
C       -0.98506954      -0.67125671      -0.28138690
N       -0.93592500      -0.47227346       1.09026901
H        2.16364669      -0.36669025       0.02626565
H        0.55803471       2.13887404      -0.05335800
H       -1.79105852      -1.26798681      -0.68526287
10
Frame=2 idx=007765 GeodesicLength=0.21514689393075392 rxn_smarts="[O:1]=[C:2]([n:3]1[c:4]([H:9])[n:5][c:6]([H:10])[n:7]1)[H:8]>>[O:1]1[C@:2]2([H:8])[N:3]3[C@:4]2([H:9])[N:5]2[C@:6]1([H:10])[N:7]32"
O        0.41203894      -1.18071527      -0.69983622
C        1.09512876      -0.32850561       0.04079681
N        0.34669870       0.29290561       1.11418585
C        0.15938270       1.13638536      -0.01445400
N       -1.01654165       0.73759422      -0.55509766
C       -0.99420542      -0.66924107      -0.28439537
N       -0.92767188      -0.47419520       1.08632680
H        2.17396145      -0.38479228       0.06515169
H        0.55747097       2.13578804      -0.07548481
H       -1.80626258      -1.26522380      -0.67719308
10
Frame=3 idx=007765 GeodesicLength=0.3226941952600067 rxn_smarts="[O:1]=[C:2]([n:3]1[c:4]([H:9])[n:5][c:6]([H:10])[n:7]1)[H:8]>>[O:1]1[C@:2]2([H:8])[N:3]3[C@:4]2([H:9])[N:5]2[C@:6]1([H:10])[N:7]32"
O        0.43896576      -1.16614002      -0.72731899
C        1.10663191      -0.32624953       0.03621374
N        0.34979679       0.28942018       1.10575558
C        0.15008475       1.13799756      -0.01515140
N       -1.04009614       0.74258882      -0.53187035
C       -1.00344247      -0.66699610      -0.28733055
N       -0.91910443      -0.47636552       1.08226128
H        2.18260760      -0.40444430       0.10446704
H        0.55603763       2.13248726      -0.09828370
H       -1.82148140      -1.26229836      -0.66874265
10
Frame=4 idx=007765 GeodesicLength=0.43022307908539753 rxn_smarts="[O:1]=[C:2]([n:3]1[c:4]([H:9])[n:5][c:6]([H:10])[n:7]1)[H:8]>>[O:1]1[C@:2]2([H:8])[N:3]3[C@:4]2([H:9])[N:5]2[C@:6]1([H:10])[N:7]32"
O        0.46717409      -1.15012996      -0.75522875
C        1.11870839      -0.32368010       0.03187500
N        0.35296162       0.28607351       1.09720475
C        0.14080576       1.13962389      -0.01584986
N       -1.06306865       0.74725900      -0.50825863
C       -1.01279019      -0.66453590      -0.29018222
N       -0.91027207      -0.47873325       1.07805319
H        2.18947358      -0.42560431       0.14399050
H        0.55372867       2.12894348      -0.12170272
H       -1.83672120      -1.25921634      -0.65990127
10
Frame=5 idx=007765 GeodesicLength=0.5377503390718876 rxn_smarts="[O:1]=[C:2]([n:3]1[c:4]([H:9])[n:5][c:6]([H:10])[n:7]1)[H:8]>>[O:1]1[C@:2]2([H:8])[N:3]3[C@:4]2([H:9])[N:5]2[C@:6]1([H:10])[N:7]32"
O        0.49677006      -1.13266498      -0.78345862
C        1.13136881      -0.32083727       0.02786847
N        0.35617116       0.28287384       1.08855320
C        0.13157601       1.14123489      -0.01656621
N       -1.08541392       0.75158771      -0.48432250
C       -1.02226548      -0.66187313      -0.29294185
N       -0.90121682      -0.48124365       1.07368962
H        2.19447390      -0.44822053       0.18351894
H        0.55053693       2.12512193      -0.14568600
H       -1.85200065      -1.25597882      -0.65065504
10
Frame=6 idx=007765 GeodesicLength=0.645229932220168 rxn_smarts="[O:1]=[C:2]([n:3]1[c:4]([H:9])[n:5][c:6]([H:10])[n:7]1)[H:8]>>[O:1]1[C@:2]2([H:8])[N:3]3[C@:4]2([H:9])[N:5]2[C@:6]1([H:10])[N:7]32"
O        0.52786117      -1.11369296      -0.81187370
C        1.14461179      -0.31775577       0.02430083
N        0.35938263       0.27979894       1.07981659
C        0.12243080       1.14279339      -0.01731679
N       -1.10707480       0.75555688      -0.46013064
C       -1.03189475      -0.65902235      -0.29558965
N       -0.89201314      -0.48387319       1.06915289
H        2.19754130      -0.47219469       0.22281300
H        0.54649738       2.12097121      -0.17019648
H       -1.86734239      -1.25258145      -0.64097605
10
Frame=7 idx=007765 GeodesicLength=0.7527080214232115 rxn_smarts="[O:1]=[C:2]([n:3]1[c:4]([H:9])[n:5][c:6]([H:10])[n:7]1)[H:8]>>[O:1]1[C@:2]2([H:8])[N:3]3[C@:4]2([H:9])[N:5]2[C@:6]1([H:10])[N:7]32"
O        0.56056724      -1.09321622      -0.84036682
C        1.15844082      -0.31449317       0.02124364
N        0.36258541       0.27685429       1.07100642
C        0.11339632       1.14426811      -0.01813714
N       -1.12803647       0.75916620      -0.43574525
C       -1.04171858      -0.65599995      -0.29811978
N       -0.88269720      -0.48656928       1.06443573
H        2.19865416      -0.49744955       0.26169309
H        0.54161023       2.11646517      -0.19516378
H       -1.88280192      -1.24902559      -0.63084610
10
Frame=8 idx=007765 GeodesicLength=0.8603245388630614 rxn_smarts="[O:1]=[C:2]([n:3]1[c:4]([H:9])[n:5][c:6]([H:10])[n:7]1)[H:8]>>[O:1]1[C@:2]2([H:8])[N:3]3[C@:4]2([H:9])[N:5]2[C@:6]1([H:10])[N:7]32"
O        0.59503032      -1.07125433      -0.86884175
C        1.17289122      -0.31112235       0.01879310
N        0.36578003       0.27404662       1.06217397
C        0.10447885       1.14565332      -0.01903858
N       -1.14833451       0.76244114      -0.41123728
C       -1.05181444      -0.65283449      -0.30053612
N       -0.87332627      -0.48928604       1.05955129
H        2.19789273      -0.52391477       0.29996495
H        0.53589014       2.11160003      -0.22055374
H       -1.89848807      -1.24532914      -0.62027585
10
Frame=9 idx=007765 GeodesicLength=0.967644689347766 rxn_smarts="[O:1]=[C:2]([n:3]1[c:4]([H:9])[n:5][c:6]([H:10])[n:7]1)[H:8]>>[O:1]1[C@:2]2([H:8])[N:3]3[C@:4]2([H:9])[N:5]2[C@:6]1([H:10])[N:7]32"
O        0.63134998      -1.04759567      -0.89712161
C        1.18782451      -0.30760500       0.01693664
N        0.36886422       0.27127609       1.05316962
C        0.09574747       1.14680627      -0.02013178
N       -1.16779776       0.76530343      -0.38660819
C       -1.06213550      -0.64949660      -0.30276473
N       -0.86392906      -0.49207218       1.05441701
H        2.19495778      -0.55141514       0.33749795
H        0.52941510       2.10619547      -0.24630798
H       -1.91429674      -1.24139668      -0.60908691
10
Frame=10 idx=007765 GeodesicLength=1.075091322732935 rxn_smarts="[O:1]=[C:2]([n:3]1[c:4]([H:9])[n:5][c:6]([H:10])[n:7]1)[H:8]>>[O:1]1[C@:2]2([H:8])[N:3]3[C@:4]2([H:9])[N:5]2[C@:6]1([H:10])[N:7]32"
O        0.66970903      -1.02242054      -0.92511815
C        1.20334422      -0.30409925       0.01581050
N        0.37189378       0.26859674       1.04413392
C        0.08717569       1.14777326      -0.02140689
N       -1.18657928       0.76784272      -0.36198516
C       -1.07285499      -0.64604611      -0.30484527
N       -0.85458700      -0.49481469       1.04909982
H        2.19020029      -0.57987634       0.37404102
H        0.52217664       2.10034401      -0.27234568
H       -1.93047838      -1.23729982      -0.59738411
10
Frame=11 idx=007765 GeodesicLength=1.1825314921508425 rxn_smarts="[O:1]=[C:2]([n:3]1[c:4]([H:9])[n:5][c:6]([H:10])[n:7]1)[H:8]>>[O:1]1[C@:2]2([H:8])[N:3]3[C@:4]2([H:9])[N:5]2[C@:6]1([H:10])[N:7]32"
O        0.71027226      -0.99560364      -0.95269832
C        1.21939789      -0.30060685       0.01541955
N        0.37482832       0.26595880       1.03499315
C        0.07878418       1.14847963      -0.02295105
N       -1.20464457       0.77004840      -0.33738099
C       -1.08400826      -0.64247988      -0.30673971
N       -0.84532224      -0.49753636       1.04356413
H        2.18353828      -0.60923442       0.40948942
H        0.51421048       2.09397308      -0.29863649
H       -1.94705635      -1.23299877      -0.58505970
10
Frame=12 idx=007765 GeodesicLength=1.2899125178126527 rxn_smarts="[O:1]=[C:2]([n:3]1[c:4]([H:9])[n:5][c:6]([H:10])[n:7]1)[H:8]>>[O:1]1[C@:2]2([H:8])[N:3]3[C@:4]2([H:9])[N:5]2[C@:6]1([H:10])[N:7]32"
O        0.75321723      -0.96706381      -0.97971045
C        1.23595199      -0.29716459       0.01580171
N        0.37764266       0.26331926       1.02571026
C        0.07058742       1.14886887      -0.02483156
N       -1.22199078       0.77192930      -0.31283240
C       -1.09567320      -0.63881319      -0.30841822
N       -0.83618037      -0.50024529       1.03778723
H        2.17499019      -0.63939475       0.44368445
H        0.50556936       2.08704230      -0.32514760
H       -1.96411449      -1.22847809      -0.57204342
10
Frame=13 idx=007765 GeodesicLength=1.3973043574301636 rxn_smarts="[O:1]=[C:2]([n:3]1[c:4]([H:9])[n:5][c:6]([H:10])[n:7]1)[H:8]>>[O:1]1[C@:2]2([H:8])[N:3]3[C@:4]2([H:9])[N:5]2[C@:6]1([H:10])[N:7]32"
O        0.79877212      -0.93677996      -1.00603454
C        1.25300198      -0.29383071       0.01696064
N        0.38033429       0.26066986       1.01625170
C        0.06257583       1.14887920      -0.02714955
N       -1.23866765       0.77351474      -0.28837039
C       -1.10794636      -0.63505660      -0.30986494
N       -0.82717930      -0.50290873       1.03176670
H        2.16461924      -0.67030574       0.47650970
H        0.49625556       2.07953398      -0.35179830
H       -1.98176570      -1.22371604      -0.55827100
10
Frame=14 idx=007765 GeodesicLength=1.5046838359872823 rxn_smarts="[O:1]=[C:2]([n:3]1[c:4]([H:9])[n:5][c:6]([H:10])[n:7]1)[H:8]>>[O:1]1[C@:2]2([H:8])[N:3]3[C@:4]2([H:9])[N:5]2[C@:6]1([H:10])[N:7]32"
O        0.84717425      -0.90462930      -1.03151281
C        1.27052899      -0.29063788       0.01891834
N        0.38288952       0.25796870       1.00657315
C        0.05474641       1.14845170      -0.02999798
N       -1.25470199       0.77482755      -0.26401734
C       -1.12093072      -0.63122756      -0.31104527
N       -0.81835145      -0.50554766       1.02548662
H        2.15245498      -0.70193521       0.50782958
H        0.48631042       2.07143045      -0.37858023
H       -2.00012040      -1.21870080      -0.54365406
10
Frame=15 idx=007765 GeodesicLength=1.6120171424819025 rxn_smarts="[O:1]=[C:2]([n:3]1[c:4]([H:9])[n:5][c:6]([H:10])[n:7]1)[H:8]>>[O:1]1[C@:2]2([H:8])[N:3]3[C@:4]2([H:9])[N:5]2[C@:6]1([H:10])[N:7]32"
O        0.89869386      -0.87043929      -1.05595283
C        1.28850390      -0.28760737       0.02168963
N        0.38528675       0.25517111       0.99660755
C        0.04709960       1.14750265      -0.03348462
N       -1.27010860       0.77587511      -0.23978474
C       -1.13473410      -0.62734041      -0.31191230
N       -0.80973248      -0.50818234       1.01891733
H        2.13849658      -0.73425816       0.53748900
H        0.47578307       2.06269129      -0.40548915
H       -2.01928858      -1.21341258      -0.52807986
10
Frame=16 idx=007765 GeodesicLength=1.7193307107101214 rxn_smarts="[O:1]=[C:2]([n:3]1[c:4]([H:9])[n:5][c:6]([H:10])[n:7]1)[H:8]>>[O:1]1[C@:2]2([H:8])[N:3]3[C@:4]2([H:9])[N:5]2[C@:6]1([H:10])[N:7]32"
O        0.95366072      -0.83402100      -1.07915349
C        1.30691821      -0.28477280       0.02528145
N        0.38751437       0.25224131       0.98629479
C        0.03961644       1.14594489      -0.03773685
N       -1.28493166       0.77668185      -0.21567762
C       -1.14948073      -0.62340740      -0.31242080
N       -0.80134558      -0.51082499       1.01204264
H        2.12275802      -0.76730313       0.56533518
H        0.46469018       2.05328611      -0.43253642
H       -2.03939997      -1.20782482      -0.51142889
