14
Frame=0 idx=011711 GeodesicLength=0.0 rxn_smarts="[C:1]([c:2]1[c:3]([H:11])[o:4][c:5]([H:12])[c:6]1[N:7]([H:13])[H:14])([H:8])([H:9])[H:10]>>[C:1]([C@:2]1([H:12])[C-:3]([H:11])[O+:4]=[C:5]=[C:6]1[N:7]([H:13])[H:14])([H:8])([H:9])[H:10]"
C       -1.56631764       0.42835882       0.36458775
C       -0.34254715      -0.36234415       0.01688183
C       -0.19851637      -1.74183711      -0.04341266
O        1.07347367      -2.04424231      -0.22879479
C        1.93475735      -0.96325887      -0.24680036
C        1.07370551       0.12941938      -0.03152076
N        1.45589617       1.44571069       0.14071204
H       -2.47154800      -0.13205771       0.13241253
H       -1.60890203       1.36801038      -0.18803944
H       -1.57334186       0.66433935       1.42967676
H       -0.92797241      -2.53574965      -0.04656767
H        0.16093920      -0.11946941      -1.08664449
H        0.73162830       2.13940598       0.18616007
H        2.25874525       1.72371459      -0.39865084
14
Frame=1 idx=011711 GeodesicLength=0.10517869550035915 rxn_smarts="[C:1]([c:2]1[c:3]([H:11])[o:4][c:5]([H:12])[c:6]1[N:7]([H:13])[H:14])([H:8])([H:9])[H:10]>>[C:1]([C@:2]1([H:12])[C-:3]([H:11])[O+:4]=[C:5]=[C:6]1[N:7]([H:13])[H:14])([H:8])([H:9])[H:10]"
C       -1.56672511       0.42614480       0.36520683
C       -0.34521989      -0.35953631      -0.00251408
C       -0.19990250      -1.74142981      -0.03063354
O        1.06958825      -2.04639896      -0.21556702
C        1.92048433      -0.95224547      -0.28917095
C        1.06971785       0.13179254      -0.01914898
N        1.45095148       1.44863269       0.15806261
H       -2.47418833      -0.13576716       0.14544588
H       -1.61769385       1.36685008      -0.18487116
H       -1.56156304       0.66136876       1.43058306
H       -0.93015397      -2.53514246      -0.03280230
H        0.18109602      -0.13153109      -1.12560484
H        0.72976333       2.14741848       0.15534816
H        2.27384544       1.71984389      -0.35433367
14
Frame=2 idx=011711 GeodesicLength=0.21023159794613203 rxn_smarts="[C:1]([c:2]1[c:3]([H:11])[o:4][c:5]([H:12])[c:6]1[N:7]([H:13])[H:14])([H:8])([H:9])[H:10]>>[C:1]([C@:2]1([H:12])[C-:3]([H:11])[O+:4]=[C:5]=[C:6]1[N:7]([H:13])[H:14])([H:8])([H:9])[H:10]"
C       -1.56692414       0.42375982       0.36670412
C       -0.34809943      -0.35671488      -0.02216056
C       -0.20134007      -1.74046099      -0.01920040
O        1.06590911      -2.04739851      -0.20375330
C        1.90545476      -0.94105507      -0.32465136
C        1.06515353       0.13422937      -0.00791062
N        1.44498375       1.45187108       0.17372147
H       -2.47659533      -0.13925695       0.15893411
H       -1.62619092       1.36610422      -0.17969445
H       -1.54935704       0.65715477       1.43246597
H       -0.93207763      -2.53425695      -0.02092618
H        0.20178042      -0.14399885      -1.16514917
H        0.72940955       2.15488128       0.12161815
H        2.28789343       1.71514168      -0.30999779
14
Frame=3 idx=011711 GeodesicLength=0.31521319174700585 rxn_smarts="[C:1]([c:2]1[c:3]([H:11])[o:4][c:5]([H:12])[c:6]1[N:7]([H:13])[H:14])([H:8])([H:9])[H:10]>>[C:1]([C@:2]1([H:12])[C-:3]([H:11])[O+:4]=[C:5]=[C:6]1[N:7]([H:13])[H:14])([H:8])([H:9])[H:10]"
C       -1.56689192       0.42126734       0.36886295
C       -0.35108274      -0.35387049      -0.04179571
C       -0.20287629      -1.73898388      -0.00886452
O        1.06224514      -2.04758225      -0.19329620
C        1.89019393      -0.92976966      -0.35437974
C        1.06010053       0.13674121       0.00261310
N        1.43812434       1.45545304       0.18784492
H       -2.47873798      -0.14243499       0.17243633
H       -1.63414973       1.36579211      -0.17279973
H       -1.53701358       0.65184403       1.43508632
H       -0.93389978      -2.53305602      -0.01047103
H        0.22316207      -0.15703113      -1.20508239
H        0.73062088       2.16163987       0.08626933
H        2.30020512       1.70999084      -0.26642362
14
Frame=4 idx=011711 GeodesicLength=0.42020094894180643 rxn_smarts="[C:1]([c:2]1[c:3]([H:11])[o:4][c:5]([H:12])[c:6]1[N:7]([H:13])[H:14])([H:8])([H:9])[H:10]>>[C:1]([C@:2]1([H:12])[C-:3]([H:11])[O+:4]=[C:5]=[C:6]1[N:7]([H:13])[H:14])([H:8])([H:9])[H:10]"
C       -1.56662947       0.41871265       0.37152664
C       -0.35409119      -0.35099011      -0.06119845
C       -0.20455216      -1.73705266       0.00053963
O        1.05849078      -2.04719326      -0.18398922
C        1.87498289      -0.91843702      -0.37935500
C        1.05463398       0.13932153       0.01270713
N        1.43053257       1.45936616       0.20056862
H       -2.48060666      -0.14526187       0.18567464
H       -1.64144086       1.36589513      -0.16445401
H       -1.52474447       0.64559622       1.43826295
H       -0.93573447      -2.53151859      -0.00114804
H        0.24539894      -0.17074376      -1.24527407
H        0.73334213       2.16760646       0.05038656
H        2.31041801       1.70469914      -0.22424736
14
Frame=5 idx=011711 GeodesicLength=0.5253293510581651 rxn_smarts="[C:1]([c:2]1[c:3]([H:11])[o:4][c:5]([H:12])[c:6]1[N:7]([H:13])[H:14])([H:8])([H:9])[H:10]>>[C:1]([C@:2]1([H:12])[C-:3]([H:11])[O+:4]=[C:5]=[C:6]1[N:7]([H:13])[H:14])([H:8])([H:9])[H:10]"
C       -1.56613866       0.41613786       0.37456823
C       -0.35704364      -0.34805553      -0.08016852
C       -0.20638931      -1.73471384       0.00916162
O        1.05459000      -2.04641396      -0.17556096
C        1.85998705      -0.90708965      -0.40046061
C        1.04884655       0.14194027       0.02264827
N        1.42237666       1.46357363       0.21202665
H       -2.48219649      -0.14771914       0.19846118
H       -1.64797921       1.36637270      -0.15491916
H       -1.51271492       0.63858696       1.44184134
H       -0.93767420      -2.52963600       0.00716884
H        0.26856943      -0.18526553      -1.28564498
H        0.73745463       2.17276980       0.01495390
H        2.31831212       1.69951242      -0.18407580
14
Frame=6 idx=011711 GeodesicLength=0.6305693516043029 rxn_smarts="[C:1]([c:2]1[c:3]([H:11])[o:4][c:5]([H:12])[c:6]1[N:7]([H:13])[H:14])([H:8])([H:9])[H:10]>>[C:1]([C@:2]1([H:12])[C-:3]([H:11])[O+:4]=[C:5]=[C:6]1[N:7]([H:13])[H:14])([H:8])([H:9])[H:10]"
C       -1.56545767       0.41355559       0.37795389
C       -0.35991914      -0.34504552      -0.09856328
C       -0.20840846      -1.73201406       0.01706437
O        1.05051264      -2.04533664      -0.16785746
C        1.84523651      -0.89571541      -0.41838543
C        1.04277238       0.14460657       0.03253237
N        1.41375870       1.46806896       0.22236660
H       -2.48353790      -0.14985124       0.21079290
H       -1.65380458       1.36716156      -0.14436011
H       -1.50100634       0.63095484       1.44577174
H       -0.93976417      -2.52742062       0.01455762
H        0.29274472      -0.20066935      -1.32612866
H        0.74276853       2.17715410      -0.01983460
H        2.32410479       1.69455124      -0.14590995
14
Frame=7 idx=011711 GeodesicLength=0.7359723974301486 rxn_smarts="[C:1]([c:2]1[c:3]([H:11])[o:4][c:5]([H:12])[c:6]1[N:7]([H:13])[H:14])([H:8])([H:9])[H:10]>>[C:1]([C@:2]1([H:12])[C-:3]([H:11])[O+:4]=[C:5]=[C:6]1[N:7]([H:13])[H:14])([H:8])([H:9])[H:10]"
C       -1.56462225       0.41098753       0.38165260
C       -0.36270030      -0.34193673      -0.11624985
C       -0.21061602      -1.72899504       0.02433023
O        1.04624464      -2.04403349      -0.16074999
C        1.83073158      -0.88429074      -0.43374254
C        1.03645961       0.14731796       0.04245672
N        1.40476478       1.47284042       0.23170617
H       -2.48466832      -0.15169193       0.22267464
H       -1.65895620       1.36820758      -0.13293671
H       -1.48969075       0.62283392       1.45000879
H       -0.94203825      -2.52489408       0.02106859
H        0.31797277      -0.21705979      -1.36670564
H        0.74913376       2.18077936      -0.05375829
H        2.32798495       1.68993505      -0.10975472
14
Frame=8 idx=011711 GeodesicLength=0.8415029845041607 rxn_smarts="[C:1]([c:2]1[c:3]([H:11])[o:4][c:5]([H:12])[c:6]1[N:7]([H:13])[H:14])([H:8])([H:9])[H:10]>>[C:1]([C@:2]1([H:12])[C-:3]([H:11])[O+:4]=[C:5]=[C:6]1[N:7]([H:13])[H:14])([H:8])([H:9])[H:10]"
C       -1.56367295       0.40845330       0.38563862
C       -0.36538052      -0.33870893      -0.13314315
C       -0.21301446      -1.72569751       0.03101524
O        1.04178340      -2.04254452      -0.15413452
C        1.81645698      -0.87280116      -0.44701729
C        1.02995152       0.15007418       0.05246151
N        1.39547068       1.47786898       0.24013448
H       -2.48562392      -0.15326641       0.23413061
H       -1.66349005       1.36946288      -0.12078794
H       -1.47881324       0.61434481       1.45451761
H       -0.94451552      -2.52207832       0.02675823
H        0.34430984      -0.23454324      -1.40737811
H        0.75642851       2.18369210      -0.08658825
H        2.33010975       1.68574385      -0.07560705
14
Frame=9 idx=011711 GeodesicLength=0.9469316681682556 rxn_smarts="[C:1]([c:2]1[c:3]([H:11])[o:4][c:5]([H:12])[c:6]1[N:7]([H:13])[H:14])([H:8])([H:9])[H:10]>>[C:1]([C@:2]1([H:12])[C-:3]([H:11])[O+:4]=[C:5]=[C:6]1[N:7]([H:13])[H:14])([H:8])([H:9])[H:10]"
C       -1.56270590       0.40596439       0.38997947
C       -0.36805772      -0.33535389      -0.14921308
C       -0.21561902      -1.72212810       0.03704807
O        1.03717237      -2.04083135      -0.14774438
C        1.80222338      -0.86124072      -0.45860426
C        1.02319676       0.15294780       0.06225559
N        1.38589622       1.48315107       0.24752243
H       -2.48649556      -0.15459809       0.24536233
H       -1.66758359       1.37087111      -0.10789894
H       -1.46835597       0.60556984       1.45934351
H       -0.94718733      -2.51899534       0.03151171
H        0.37218068      -0.25324144      -1.44802744
H        0.76448031       2.18593667      -0.11845977
H        2.33085537       1.68194806      -0.04307522
14
Frame=10 idx=011711 GeodesicLength=1.0525342584480846 rxn_smarts="[C:1]([c:2]1[c:3]([H:11])[o:4][c:5]([H:12])[c:6]1[N:7]([H:13])[H:14])([H:8])([H:9])[H:10]>>[C:1]([C@:2]1([H:12])[C-:3]([H:11])[O+:4]=[C:5]=[C:6]1[N:7]([H:13])[H:14])([H:8])([H:9])[H:10]"
C       -1.56169974       0.40354464       0.39463100
C       -0.37065160      -0.33181997      -0.16438794
C       -0.21842016      -1.71833247       0.04256449
O        1.03236912      -2.03896075      -0.14172144
C        1.78813851      -0.84954601      -0.46884142
C        1.01629918       0.15588307       0.07223114
N        1.37610226       1.48867783       0.25413156
H       -2.48727065      -0.15570854       0.25629087
H       -1.67118972       1.37244072      -0.09440173
H       -1.45837411       0.59657019       1.46445781
H       -0.95008390      -2.51565320       0.03543824
H        0.40135713      -0.27327690      -1.48881945
H        0.77322142       2.18754241      -0.14929573
H        2.33020227       1.67863897      -0.01227740
14
Frame=11 idx=011711 GeodesicLength=1.1582449626770634 rxn_smarts="[C:1]([c:2]1[c:3]([H:11])[o:4][c:5]([H:12])[c:6]1[N:7]([H:13])[H:14])([H:8])([H:9])[H:10]>>[C:1]([C@:2]1([H:12])[C-:3]([H:11])[O+:4]=[C:5]=[C:6]1[N:7]([H:13])[H:14])([H:8])([H:9])[H:10]"
C       -1.56068973       0.40120905       0.39961451
C       -0.37318083      -0.32807379      -0.17867399
C       -0.22141905      -1.71432191       0.04758313
O        1.02738049      -2.03692841      -0.13601285
C        1.77413579      -0.83768270      -0.47798318
C        1.00927181       0.15888943       0.08240516
N        1.36611668       1.49444934       0.26003285
H       -2.48798792      -0.15660626       0.26698729
H       -1.67437666       1.37415980      -0.08030532
H       -1.44886244       0.58738317       1.46988409
H       -0.95321120      -2.51206418       0.03851003
H        0.43195490      -0.29480526      -1.52979641
H        0.78255085       2.18854462      -0.17916686
H        2.32831730       1.67584709       0.01692156
14
Frame=12 idx=011711 GeodesicLength=1.2640298622155584 rxn_smarts="[C:1]([c:2]1[c:3]([H:11])[o:4][c:5]([H:12])[c:6]1[N:7]([H:13])[H:14])([H:8])([H:9])[H:10]>>[C:1]([C@:2]1([H:12])[C-:3]([H:11])[O+:4]=[C:5]=[C:6]1[N:7]([H:13])[H:14])([H:8])([H:9])[H:10]"
C       -1.55970383       0.39897550       0.40494769
C       -0.37566469      -0.32408114      -0.19207061
C       -0.22461754      -1.71010239       0.05211860
O        1.02221512      -2.03471381      -0.13057178
C        1.76014847      -0.82561379      -0.48626099
C        1.00212979       0.16197481       0.09280441
N        1.35597619       1.50044860       0.26528457
H       -2.48868109      -0.15729689       0.27751018
H       -1.67720799       1.37602370      -0.06562421
H       -1.43981546       0.57804230       1.47564007
H       -0.95656908      -2.50822710       0.04071033
H        0.46411325      -0.31799306      -1.57101850
H        0.79234644       2.18899526      -0.20806433
H        2.32533043       1.67356801       0.04459457
14
Frame=13 idx=011711 GeodesicLength=1.369868986264104 rxn_smarts="[C:1]([c:2]1[c:3]([H:11])[o:4][c:5]([H:12])[c:6]1[N:7]([H:13])[H:14])([H:8])([H:9])[H:10]>>[C:1]([C@:2]1([H:12])[C-:3]([H:11])[O+:4]=[C:5]=[C:6]1[N:7]([H:13])[H:14])([H:8])([H:9])[H:10]"
C       -1.55877642       0.39686176       0.41066366
C       -0.37813949      -0.31980274      -0.20459748
C       -0.22802888      -1.70567563       0.05616445
O        1.01687023      -2.03228811      -0.12534918
C        1.74608968      -0.81329394      -0.49390444
C        0.99487320       0.16515419       0.10340793
N        1.34569742       1.50666779       0.26994768
H       -2.48938933      -0.15778469       0.28794507
H       -1.67975429       1.37803433      -0.05034452
H       -1.43120848       0.56857245       1.48175958
H       -0.96016887      -2.50414229       0.04200624
H        0.49807815      -0.34305545      -1.61251996
H        0.80249585       2.18894925      -0.23601658
H        2.32136123       1.67180307       0.07083757
14
Frame=14 idx=011711 GeodesicLength=1.4757008777074363 rxn_smarts="[C:1]([c:2]1[c:3]([H:11])[o:4][c:5]([H:12])[c:6]1[N:7]([H:13])[H:14])([H:8])([H:9])[H:10]>>[C:1]([C@:2]1([H:12])[C-:3]([H:11])[O+:4]=[C:5]=[C:6]1[N:7]([H:13])[H:14])([H:8])([H:9])[H:10]"
C       -1.55794205       0.39488611       0.41680299
C       -0.38065085      -0.31519247      -0.21629293
C       -0.23166553      -1.70103020       0.05970288
O        1.01134998      -2.02961746      -0.12032971
C        1.73187611      -0.80067262      -0.50108342
C        0.98748762       0.16845296       0.11420058
N        1.33526913       1.51311497       0.27402104
H       -2.49015239      -0.15806011       0.29836867
H       -1.68208249       1.38021075      -0.03440348
H       -1.42302105       0.55896432       1.48828290
H       -0.96401056      -2.49980535       0.04236189
H        0.53409484      -0.37024499      -1.65433299
H        0.81295534       2.18842972      -0.26306163
H        2.31649190       1.67056439       0.09576322
14
Frame=15 idx=011711 GeodesicLength=1.581429325071225 rxn_smarts="[C:1]([c:2]1[c:3]([H:11])[o:4][c:5]([H:12])[c:6]1[N:7]([H:13])[H:14])([H:8])([H:9])[H:10]>>[C:1]([C@:2]1([H:12])[C-:3]([H:11])[O+:4]=[C:5]=[C:6]1[N:7]([H:13])[H:14])([H:8])([H:9])[H:10]"
C       -1.55722920       0.39306538       0.42340737
C       -0.38325099      -0.31020886      -0.22719752
C       -0.23555312      -1.69615537       0.06270196
O        1.00564310      -2.02666606      -0.11547498
C        1.71742267      -0.78771475      -0.50798212
C        0.97996079       0.17189101       0.12512575
N        1.32469462       1.51978738       0.27752312
H       -2.49100584      -0.15811891       0.30887795
H       -1.68426121       1.38256318      -0.01775349
H       -1.41520993       0.54922318       1.49524665
H       -0.96811346      -2.49520868       0.04172238
H        0.57248628      -0.39982012      -1.69644137
H        0.82362793       2.18751241      -0.28917532
H        2.31078836       1.66985022       0.11941963
14
Frame=16 idx=011711 GeodesicLength=1.6870000272133 rxn_smarts="[C:1]([c:2]1[c:3]([H:11])[o:4][c:5]([H:12])[c:6]1[N:7]([H:13])[H:14])([H:8])([H:9])[H:10]>>[C:1]([C@:2]1([H:12])[C-:3]([H:11])[O+:4]=[C:5]=[C:6]1[N:7]([H:13])[H:14])([H:8])([H:9])[H:10]"
C       -1.55667128       0.39141697       0.43053710
C       -0.38601269      -0.30479947      -0.23736216
C       -0.23973079      -1.69103165       0.06510439
O        0.99972955      -2.02338622      -0.11075664
C        1.70262301      -0.77437610      -0.51479693
C        0.97226329       0.17549873       0.13610361
N        1.31395643       1.52669206       0.28045831
H       -2.49198983      -0.15795091       0.31958843
H       -1.68636407       1.38511298      -0.00029986
H       -1.40772448       0.53933064       1.50270451
H       -0.97250323      -2.49033501       0.04001323
H        0.61369415      -0.43209426      -1.73878130
H        0.83443025       2.18626521      -0.31437001
H        2.30429969       1.66965703       0.14185732
