15
Frame=0 idx=008873 GeodesicLength=0.0 rxn_smarts="[C:1]([n:2]1[c:3]([H:11])[c:4]([H:12])[c:5]([N:6]([H:13])[H:14])[c:7]1[H:15])([H:8])([H:9])[H:10]>>[C:1]([N:2]=[C:3]([C:4](=[C:5]1[N+:6]([H:13])([H:14])[C-:7]1[H:15])[H:12])[H:11])([H:8])([H:9])[H:10]"
C        2.63532383      -0.01760238       0.09384950
N        1.19557999       0.03516376       0.11941856
C        0.54226946      -1.06107699       0.10995333
C       -0.90023390      -1.04277941       0.04838717
C       -1.38505128       0.19561604      -0.13566120
N       -2.67092296       0.81293574      -0.24243491
C       -0.89454084       1.45478732      -0.36266839
H        3.03025191      -1.04313588       0.09551439
H        3.00506960       0.49280312      -0.79848852
H        3.04101609       0.51241699       0.95911812
H        1.05771619      -2.02999839       0.11450218
H       -1.50419349      -1.93697874       0.07947767
H       -3.27332353       0.74150484       0.56217792
H       -3.13629793       0.77022917      -1.13229446
H       -0.74266318       2.11611481       0.48914869
15
Frame=1 idx=008873 GeodesicLength=0.054763980687080514 rxn_smarts="[C:1]([n:2]1[c:3]([H:11])[c:4]([H:12])[c:5]([N:6]([H:13])[H:14])[c:7]1[H:15])([H:8])([H:9])[H:10]>>[C:1]([N:2]=[C:3]([C:4](=[C:5]1[N+:6]([H:13])([H:14])[C-:7]1[H:15])[H:12])[H:11])([H:8])([H:9])[H:10]"
C        2.62296200      -0.00708720       0.09136428
N        1.18266892       0.03093233       0.11356302
C        0.53745836      -1.07305701       0.12331080
C       -0.90245846      -1.05621160       0.04686206
C       -1.38360469       0.18249567      -0.15636699
N       -2.65972302       0.82149234      -0.24186586
C       -0.86950815       1.43531359      -0.35459008
H        3.02698297      -1.02880474       0.09067045
H        2.98956684       0.50821441      -0.79942076
H        3.02276667       0.52395335       0.95877311
H        1.05946199      -2.03775003       0.11214403
H       -1.51251052      -1.94459394       0.10651510
H       -3.26587123       0.72038005       0.55684475
H       -3.12366232       0.81371915      -1.13367459
H       -0.72452936       2.11100363       0.48587067
15
Frame=2 idx=008873 GeodesicLength=0.10930801592227432 rxn_smarts="[C:1]([n:2]1[c:3]([H:11])[c:4]([H:12])[c:5]([N:6]([H:13])[H:14])[c:7]1[H:15])([H:8])([H:9])[H:10]>>[C:1]([N:2]=[C:3]([C:4](=[C:5]1[N+:6]([H:13])([H:14])[C-:7]1[H:15])[H:12])[H:11])([H:8])([H:9])[H:10]"
C        2.61092222       0.00313187       0.09069731
N        1.17016997       0.02658469       0.10244945
C        0.53290346      -1.08468075       0.13023429
C       -0.90456726      -1.06919288       0.04322128
C       -1.38249632       0.16964410      -0.17827421
N       -2.64900647       0.82925183      -0.23772328
C       -0.84622801       1.41540769      -0.34982206
H        3.02381139      -1.01475868       0.09182407
H        2.97877589       0.52139289      -0.79781171
H        3.00067617       0.53688924       0.96102864
H        1.06100757      -2.04523450       0.10872845
H       -1.52031208      -1.95103743       0.13177108
H       -3.25683871       0.69910144       0.55560308
H       -3.11399478       0.85639286      -1.12881519
H       -0.70482303       2.10710764       0.47688879
15
Frame=3 idx=008873 GeodesicLength=0.16401817985660755 rxn_smarts="[C:1]([n:2]1[c:3]([H:11])[c:4]([H:12])[c:5]([N:6]([H:13])[H:14])[c:7]1[H:15])([H:8])([H:9])[H:10]>>[C:1]([N:2]=[C:3]([C:4](=[C:5]1[N+:6]([H:13])([H:14])[C-:7]1[H:15])[H:12])[H:11])([H:8])([H:9])[H:10]"
C        2.59874175       0.01313229       0.08925101
N        1.15776435       0.02220776       0.09709074
C        0.52827454      -1.09602086       0.13885859
C       -0.90663870      -1.08172441       0.04056487
C       -1.38106387       0.15713572      -0.19963293
N       -2.63781037       0.83613069      -0.23445859
C       -0.82326796       1.39525745      -0.34440324
H        3.02021000      -1.00095460       0.08472407
H        2.96397324       0.53924244      -0.79568011
H        2.98240853       0.54454750       0.96373326
H        1.06221527      -2.05252607       0.11040284
H       -1.52790860      -1.95641167       0.15597043
H       -3.24903834       0.67752536       0.55116715
H       -3.10209107       0.89805438      -1.12439618
H       -0.68576878       2.10440401       0.46680808
15
Frame=4 idx=008873 GeodesicLength=0.21856676317497167 rxn_smarts="[C:1]([n:2]1[c:3]([H:11])[c:4]([H:12])[c:5]([N:6]([H:13])[H:14])[c:7]1[H:15])([H:8])([H:9])[H:10]>>[C:1]([N:2]=[C:3]([C:4](=[C:5]1[N+:6]([H:13])([H:14])[C-:7]1[H:15])[H:12])[H:11])([H:8])([H:9])[H:10]"
C        2.58678479       0.02287627       0.08928012
N        1.14572578       0.01771249       0.08808075
C        0.52378388      -1.10711764       0.14352871
C       -0.90871998      -1.09381223       0.03705283
C       -1.38001209       0.14499774      -0.22071250
N       -2.62690657       0.84229441      -0.22832755
C       -0.80168481       1.37480989      -0.34128294
H        3.01669370      -0.98738348       0.08313525
H        2.95253181       0.55462985      -0.79202125
H        2.96132596       0.55394992       0.96794279
H        1.06327720      -2.05969600       0.10965006
H       -1.53504951      -1.96107778       0.17752906
H       -3.24042898       0.65623083       0.54958211
H       -3.09191257       0.93837721      -1.11506934
H       -0.66540863       2.10320851       0.45163188
15
Frame=5 idx=008873 GeodesicLength=0.2731321371618484 rxn_smarts="[C:1]([n:2]1[c:3]([H:11])[c:4]([H:12])[c:5]([N:6]([H:13])[H:14])[c:7]1[H:15])([H:8])([H:9])[H:10]>>[C:1]([N:2]=[C:3]([C:4](=[C:5]1[N+:6]([H:13])([H:14])[C-:7]1[H:15])[H:12])[H:11])([H:8])([H:9])[H:10]"
C        2.57486641       0.03235279       0.08889174
N        1.13389408       0.01330678       0.08207370
C        0.51926783      -1.11786671       0.14919718
C       -0.91075801      -1.10538695       0.03427596
C       -1.37882667       0.13336436      -0.24054961
N       -2.61581825       0.84770383      -0.22228132
C       -0.78071584       1.35441953      -0.33722040
H        3.01289367      -0.97410268       0.07814710
H        2.93914019       0.57142203      -0.78852279
H        2.94248698       0.56108576       0.97189629
H        1.06410046      -2.06663035       0.11147722
H       -1.54194534      -1.96515843       0.19670780
H       -3.23305297       0.63479520       0.54588205
H       -3.08009123       0.97749362      -1.10532664
H       -0.64544131       2.10320121       0.43535173
15
Frame=6 idx=008873 GeodesicLength=0.3276657418768525 rxn_smarts="[C:1]([n:2]1[c:3]([H:11])[c:4]([H:12])[c:5]([N:6]([H:13])[H:14])[c:7]1[H:15])([H:8])([H:9])[H:10]>>[C:1]([N:2]=[C:3]([C:4](=[C:5]1[N+:6]([H:13])([H:14])[C-:7]1[H:15])[H:12])[H:11])([H:8])([H:9])[H:10]"
C        2.56304874       0.04159883       0.08887799
N        1.12230936       0.00890834       0.07657654
C        0.51479596      -1.12840043       0.15409951
C       -0.91278395      -1.11654580       0.03169711
C       -1.37772187       0.12218231      -0.25928067
N       -2.60474258       0.85246164      -0.21527799
C       -0.76057601       1.33402861      -0.33332897
H        3.00898138      -0.96104602       0.07331859
H        2.92580148       0.58811393      -0.78450990
H        2.92392885       0.56761728       0.97629582
H        1.06477426      -2.07342997       0.11308046
H       -1.54859144      -1.96881869       0.21396994
H       -3.22620839       0.61354557       0.54189931
H       -3.06784791       1.01527718      -1.09368611
H       -0.62516788       2.10450722       0.41626838
15
Frame=7 idx=008873 GeodesicLength=0.3822863458134941 rxn_smarts="[C:1]([n:2]1[c:3]([H:11])[c:4]([H:12])[c:5]([N:6]([H:13])[H:14])[c:7]1[H:15])([H:8])([H:9])[H:10]>>[C:1]([N:2]=[C:3]([C:4](=[C:5]1[N+:6]([H:13])([H:14])[C-:7]1[H:15])[H:12])[H:11])([H:8])([H:9])[H:10]"
C        2.55127318       0.05062558       0.08873432
N        1.11087138       0.00464217       0.07405715
C        0.51032741      -1.13873162       0.15972274
C       -0.91477374      -1.12730112       0.02992678
C       -1.37647671       0.11144144      -0.27665143
N       -2.59356160       0.85655552      -0.20834152
C       -0.74100572       1.31371693      -0.32866380
H        3.00479014      -0.94818282       0.06508846
H        2.91061877       0.60650409      -0.78009931
H        2.90752379       0.57168449       0.98095787
H        1.06531634      -2.08006478       0.11568950
H       -1.55511846      -1.97206622       0.23005727
H       -3.22053726       0.59240108       0.53596165
H       -3.05416025       1.05172309      -1.08170027
H       -0.60508727       2.10705217       0.39526059
15
Frame=8 idx=008873 GeodesicLength=0.4368074084073643 rxn_smarts="[C:1]([n:2]1[c:3]([H:11])[c:4]([H:12])[c:5]([N:6]([H:13])[H:14])[c:7]1[H:15])([H:8])([H:9])[H:10]>>[C:1]([N:2]=[C:3]([C:4](=[C:5]1[N+:6]([H:13])([H:14])[C-:7]1[H:15])[H:12])[H:11])([H:8])([H:9])[H:10]"
C        2.53964804       0.05945137       0.08927234
N        1.09972946       0.00032255       0.07007358
C        0.50594392      -1.14890139       0.16367237
C       -0.91674501      -1.13772055       0.02770732
C       -1.37546680       0.10117652      -0.29304301
N       -2.58253889       0.86014665      -0.19981568
C       -0.72238004       1.29354663      -0.32430356
H        3.00064090      -0.93550521       0.05988274
H        2.89692007       0.62323200      -0.77527181
H        2.88999164       0.57683416       0.98598487
H        1.06575959      -2.08661584       0.11692069
H       -1.56135387      -1.97510861       0.24421583
H       -3.21505889       0.57151189       0.53075311
H       -3.04072889       1.08703300      -1.06700138
H       -0.58436124       2.11059684       0.37095258
15
Frame=9 idx=008873 GeodesicLength=0.4913670461395825 rxn_smarts="[C:1]([n:2]1[c:3]([H:11])[c:4]([H:12])[c:5]([N:6]([H:13])[H:14])[c:7]1[H:15])([H:8])([H:9])[H:10]>>[C:1]([N:2]=[C:3]([C:4](=[C:5]1[N+:6]([H:13])([H:14])[C-:7]1[H:15])[H:12])[H:11])([H:8])([H:9])[H:10]"
C        2.52810651       0.06807745       0.08975799
N        1.08875443      -0.00385592       0.06827063
C        0.50158783      -1.15889045       0.16807567
C       -0.91866344      -1.14778900       0.02597025
C       -1.37434903       0.09138338      -0.30818978
N       -2.57152377       0.86317382      -0.19116737
C       -0.70435806       1.27361318      -0.31891496
H        2.99626798      -0.92298712       0.05240378
H        2.88194863       0.64096592      -0.77015430
H        2.87413799       0.58024776       0.99114676
H        1.06611848      -2.09301746       0.11876395
H       -1.56747070      -1.97788821       0.25729625
H       -3.21067733       0.55072426       0.52385633
H       -3.02613857       1.12118823      -1.05176323
H       -0.56374096       2.11505418       0.34464803
15
Frame=10 idx=008873 GeodesicLength=0.5459067435186507 rxn_smarts="[C:1]([n:2]1[c:3]([H:11])[c:4]([H:12])[c:5]([N:6]([H:13])[H:14])[c:7]1[H:15])([H:8])([H:9])[H:10]>>[C:1]([N:2]=[C:3]([C:4](=[C:5]1[N+:6]([H:13])([H:14])[C-:7]1[H:15])[H:12])[H:11])([H:8])([H:9])[H:10]"
C        2.51671780       0.07647718       0.08995718
N        1.07799236      -0.00782933       0.06822055
C        0.49724853      -1.16858063       0.17314421
C       -0.92048642      -1.15747893       0.02442550
C       -1.37307394       0.08217407      -0.32214876
N       -2.56062044       0.86565241      -0.18241832
C       -0.68699842       1.25412118      -0.31182456
H        2.99165950      -0.91068892       0.04328257
H        2.86597343       0.65892966      -0.76534979
H        2.85995534       0.58258880       0.99584694
H        1.06637849      -2.09918961       0.12200932
H       -1.57346266      -1.98052810       0.26870109
H       -3.20754487       0.52982252       0.51500934
H       -3.01037130       1.15440063      -1.03604339
H       -0.54336738       2.12012907       0.31718815
15
Frame=11 idx=008873 GeodesicLength=0.6003166816806251 rxn_smarts="[C:1]([n:2]1[c:3]([H:11])[c:4]([H:12])[c:5]([N:6]([H:13])[H:14])[c:7]1[H:15])([H:8])([H:9])[H:10]>>[C:1]([N:2]=[C:3]([C:4](=[C:5]1[N+:6]([H:13])([H:14])[C-:7]1[H:15])[H:12])[H:11])([H:8])([H:9])[H:10]"
C        2.50552892       0.08466316       0.09020541
N        1.06751247      -0.01168666       0.06820273
C        0.49296857      -1.17799608       0.17793026
C       -0.92222688      -1.16679713       0.02273645
C       -1.37179795       0.07358059      -0.33502216
N       -2.54995434       0.86766029      -0.17293978
C       -0.67043601       1.23509205      -0.30340477
H        2.98698175      -0.89862792       0.03493403
H        2.85031807       0.67595106      -0.76079515
H        2.84612284       0.58515480       1.00022753
H        1.06654953      -2.10517344       0.12550333
H       -1.57926226      -1.98311332       0.27832315
H       -3.20528003       0.50896858       0.50522088
H       -2.99412337       1.18666761      -1.01895790
H       -0.52290129       2.12565642       0.28783600
15
Frame=12 idx=008873 GeodesicLength=0.6546193905156256 rxn_smarts="[C:1]([n:2]1[c:3]([H:11])[c:4]([H:12])[c:5]([N:6]([H:13])[H:14])[c:7]1[H:15])([H:8])([H:9])[H:10]>>[C:1]([N:2]=[C:3]([C:4](=[C:5]1[N+:6]([H:13])([H:14])[C-:7]1[H:15])[H:12])[H:11])([H:8])([H:9])[H:10]"
C        2.49453754       0.09264439       0.09042796
N        1.05730480      -0.01541383       0.06830881
C        0.48872077      -1.18711648       0.18259982
C       -0.92386434      -1.17578686       0.02061166
C       -1.37047426       0.06564194      -0.34695270
N       -2.53953912       0.86918345      -0.16271504
C       -0.65464063       1.21657569      -0.29339623
H        2.98222330      -0.88681683       0.02719697
H        2.83489770       0.69208060      -0.75660110
H        2.83272124       0.58793740       1.00420570
H        1.06663254      -2.11095520       0.12979827
H       -1.58489252      -1.98569302       0.28600723
H       -3.20384130       0.48805757       0.49439613
H       -2.97741101       1.21817907      -1.00042180
H       -0.50237468       2.13148211       0.25653433
15
Frame=13 idx=008873 GeodesicLength=0.7088318943987534 rxn_smarts="[C:1]([n:2]1[c:3]([H:11])[c:4]([H:12])[c:5]([N:6]([H:13])[H:14])[c:7]1[H:15])([H:8])([H:9])[H:10]>>[C:1]([N:2]=[C:3]([C:4](=[C:5]1[N+:6]([H:13])([H:14])[C-:7]1[H:15])[H:12])[H:11])([H:8])([H:9])[H:10]"
C        2.48375126       0.10041106       0.09029583
N        1.04733126      -0.01888953       0.06993305
C        0.48448453      -1.19588641       0.18805878
C       -0.92535752      -1.18440639       0.01843725
C       -1.36890124       0.05841703      -0.35779855
N       -2.52941931       0.87017922      -0.15233908
C       -0.63954537       1.19866233      -0.28092954
H        2.97721863      -0.87524585       0.01794915
H        2.81868057       0.70827483      -0.75283679
H        2.82097827       0.58984054       1.00760019
H        1.06663622      -2.11646777       0.13580121
H       -1.59042478      -1.98827794       0.29189234
H       -3.20362472       0.46702621       0.48139899
H       -2.95974787       1.24889765      -0.98129636
H       -0.48205994       2.13746501       0.22383354
15
Frame=14 idx=008873 GeodesicLength=0.7628942169481643 rxn_smarts="[C:1]([n:2]1[c:3]([H:11])[c:4]([H:12])[c:5]([N:6]([H:13])[H:14])[c:7]1[H:15])([H:8])([H:9])[H:10]>>[C:1]([N:2]=[C:3]([C:4](=[C:5]1[N+:6]([H:13])([H:14])[C-:7]1[H:15])[H:12])[H:11])([H:8])([H:9])[H:10]"
C        2.47317986       0.10798965       0.09013788
N        1.03762160      -0.02219127       0.07197626
C        0.48027714      -1.20435391       0.19360169
C       -0.92672432      -1.19268630       0.01588985
C       -1.36719280       0.05193300      -0.36764655
N       -2.51966354       0.87068640      -0.14127402
C       -0.62522871       1.18132632      -0.26626381
H        2.97209654      -0.86390822       0.00876057
H        2.80253596       0.72394418      -0.74926449
H        2.80992920       0.59160911       1.01071469
H        1.06656150      -2.12175750       0.14261255
H       -1.59582145      -1.99091787       0.29591355
H       -3.20422446       0.44604536       0.46712670
H       -2.94169500       1.27882159      -0.96079267
H       -0.46165153       2.14345945       0.18850781
15
Frame=15 idx=008873 GeodesicLength=0.8166803746192595 rxn_smarts="[C:1]([n:2]1[c:3]([H:11])[c:4]([H:12])[c:5]([N:6]([H:13])[H:14])[c:7]1[H:15])([H:8])([H:9])[H:10]>>[C:1]([N:2]=[C:3]([C:4](=[C:5]1[N+:6]([H:13])([H:14])[C-:7]1[H:15])[H:12])[H:11])([H:8])([H:9])[H:10]"
C        2.46282891       0.11542888       0.09056233
N        1.02820811      -0.02548856       0.07289463
C        0.47613378      -1.21268114       0.19810293
C       -0.92799753      -1.20074125       0.01240591
C       -1.36557917       0.04621252      -0.37663432
N       -2.51031049       0.87081854      -0.12854618
C       -0.61176734       1.16451327      -0.25003596
H        2.96715715      -0.85279573       0.00205818
H        2.78775745       0.73831459      -0.74541676
H        2.79801359       0.59433274       1.01420051
H        1.06643949      -2.12700748       0.14877243
H       -1.60101176      -1.99377730       0.29782282
H       -3.20500812       0.42540169       0.45331938
H       -2.92410146       1.30805415      -0.93753944
H       -0.44076260       2.14941506       0.14803353
15
Frame=16 idx=008873 GeodesicLength=0.8704484210459685 rxn_smarts="[C:1]([n:2]1[c:3]([H:11])[c:4]([H:12])[c:5]([N:6]([H:13])[H:14])[c:7]1[H:15])([H:8])([H:9])[H:10]>>[C:1]([N:2]=[C:3]([C:4](=[C:5]1[N+:6]([H:13])([H:14])[C-:7]1[H:15])[H:12])[H:11])([H:8])([H:9])[H:10]"
C        2.45261845       0.12271641       0.09094823
N        1.01898249      -0.02846805       0.07561902
C        0.47201206      -1.22063853       0.20322999
C       -0.92913146      -1.20827422       0.00918912
C       -1.36361332       0.04136060      -0.38412719
N       -2.50137130       0.87038690      -0.11554316
C       -0.59906500       1.14829609      -0.23011564
H        2.96185779      -0.84175976      -0.00668132
H        2.77202066       0.75346743      -0.74118522
H        2.78780982       0.59549681       1.01774223
H        1.06620713      -2.13185830       0.15534478
H       -1.60612097      -1.99651314       0.29832429
H       -3.20678709       0.40499916       0.43738234
H       -2.90568990       1.33613590      -0.91363475
H       -0.41972936       2.15465271       0.10350728
