14
Frame=0 idx=004234 GeodesicLength=0.0 rxn_smarts="[C:1]1([H:7])([H:8])[C@@:2]2([H:9])[C:3]([H:10])([H:11])[C@:4]1([H:12])[O:5][C:6]2([H:13])[H:14]>>[C:1]1([H:7])([H:8])[C:2]([C:6]([O:5][H:12])([H:13])[H:14])([H:9])[C:3]([H:10])([H:11])[C:4]1"
C       -0.96285241      -1.12475295      -0.22422758
C        0.13747847       0.05646008      -0.52534405
C       -0.91208495       1.19060689       0.03764756
C       -0.95668781      -0.05770456       0.71421918
O        1.38610558      -0.20255131       1.49426165
C        1.52964398      -0.05519055       0.16717671
H       -1.66927449      -1.17141677      -1.04793190
H       -0.56595981      -2.07456760       0.11676641
H        0.06651123       0.18163162      -1.59995508
H       -1.61252893       1.44768005      -0.75165782
H       -0.47503392       2.02382560       0.57658659
H       -0.07992080      -0.17080704       1.52990469
H        2.03571764      -0.90176476      -0.34336667
H        2.07888616       0.85855131      -0.14407969
14
Frame=1 idx=004234 GeodesicLength=0.08315883414330304 rxn_smarts="[C:1]1([H:7])([H:8])[C@@:2]2([H:9])[C:3]([H:10])([H:11])[C@:4]1([H:12])[O:5][C:6]2([H:13])[H:14]>>[C:1]1([H:7])([H:8])[C:2]([C:6]([O:5][H:12])([H:13])[H:14])([H:9])[C:3]([H:10])([H:11])[C:4]1"
C       -0.95640859      -1.12138006      -0.22699435
C        0.13789124       0.05808244      -0.53616596
C       -0.90548810       1.18681188       0.03561416
C       -0.94683750      -0.05988205       0.72246135
O        1.36595373      -0.19488420       1.48977513
C        1.52473221      -0.05394334       0.16006822
H       -1.67563136      -1.16303970      -1.04024054
H       -0.55932744      -2.07548236       0.10223916
H        0.07364003       0.18305930      -1.61119615
H       -1.61934490       1.43870528      -0.74369458
H       -0.46849383       2.02586173       0.56585671
H       -0.08436876      -0.17604535       1.56425358
H        2.03381407      -0.90511580      -0.33757176
H        2.07986920       0.85725223      -0.14440497
14
Frame=2 idx=004234 GeodesicLength=0.16633894270914568 rxn_smarts="[C:1]1([H:7])([H:8])[C@@:2]2([H:9])[C:3]([H:10])([H:11])[C@:4]1([H:12])[O:5][C:6]2([H:13])[H:14]>>[C:1]1([H:7])([H:8])[C:2]([C:6]([O:5][H:12])([H:13])[H:14])([H:9])[C:3]([H:10])([H:11])[C:4]1"
C       -0.94995338      -1.11788140      -0.22973919
C        0.13833594       0.05975093      -0.54732973
C       -0.89889463       1.18291941       0.03349549
C       -0.93646046      -0.06206306       0.73078992
O        1.34546372      -0.18742063       1.48512087
C        1.51979540      -0.05272857       0.15295711
H       -1.68190727      -1.15468469      -1.03220819
H       -0.55284340      -2.07621433       0.08762657
H        0.08077914       0.18449435      -1.62272344
H       -1.62607359       1.42962994      -0.73550039
H       -0.46208846       2.02783250       0.55490067
H       -0.08880383      -0.18126716       1.59874495
H        2.03186249      -0.90832377      -0.33171921
H        2.08078834       0.85595648      -0.14441541
14
Frame=3 idx=004234 GeodesicLength=0.24955499892308322 rxn_smarts="[C:1]1([H:7])([H:8])[C@@:2]2([H:9])[C:3]([H:10])([H:11])[C@:4]1([H:12])[O:5][C:6]2([H:13])[H:14]>>[C:1]1([H:7])([H:8])[C:2]([C:6]([O:5][H:12])([H:13])[H:14])([H:9])[C:3]([H:10])([H:11])[C:4]1"
C       -0.94350663      -1.11425751      -0.23245691
C        0.13880251       0.06145925      -0.55878421
C       -0.89232487       1.17892916       0.03129301
C       -0.92561090      -0.06424558       0.73920692
O        1.32466473      -0.18018689       1.48031102
C        1.51484091      -0.05154668       0.14585257
H       -1.68808712      -1.14635122      -1.02385607
H       -0.54653828      -2.07676201       0.07294469
H        0.08794984       0.18592844      -1.63449079
H       -1.63270104       1.42045643      -0.72709740
H       -0.45584640       2.02973051       0.54372913
H       -0.09312654      -0.18643809       1.63326206
H        2.02985483      -0.91138782      -0.32581834
H        2.08162896       0.85467201      -0.14409568
14
Frame=4 idx=004234 GeodesicLength=0.3328184630841057 rxn_smarts="[C:1]1([H:7])([H:8])[C@@:2]2([H:9])[C:3]([H:10])([H:11])[C@:4]1([H:12])[O:5][C:6]2([H:13])[H:14]>>[C:1]1([H:7])([H:8])[C:2]([C:6]([O:5][H:12])([H:13])[H:14])([H:9])[C:3]([H:10])([H:11])[C:4]1"
C       -0.93708908      -1.11051174      -0.23514288
C        0.13927880       0.06320049      -0.57047435
C       -0.88579973       1.17484323       0.02900891
C       -0.91435846      -0.06642669       0.74770837
O        1.30360270      -0.17321045       1.47536076
C        1.50987223      -0.05039814       0.13876643
H       -1.69415345      -1.13804319      -1.01521390
H       -0.54044335      -2.07712408       0.05821594
H        0.09517294       0.18735267      -1.64644773
H       -1.63920990       1.41119196      -0.71851615
H       -0.44979661       2.03154638       0.53236255
H       -0.09723090      -0.19152029       1.66768478
H        2.02778101      -0.91430531      -0.31988050
H        2.08237380       0.85340517      -0.14343224
14
Frame=5 idx=004234 GeodesicLength=0.4161376016223088 rxn_smarts="[C:1]1([H:7])([H:8])[C@@:2]2([H:9])[C:3]([H:10])([H:11])[C@:4]1([H:12])[O:5][C:6]2([H:13])[H:14]>>[C:1]1([H:7])([H:8])[C:2]([C:6]([O:5][H:12])([H:13])[H:14])([H:9])[C:3]([H:10])([H:11])[C:4]1"
C       -0.93072176      -1.10664929      -0.23779491
C        0.13975141       0.06496706      -0.58234388
C       -0.87933956       1.17066531       0.02664818
C       -0.90278379      -0.06860446       0.75628637
O        1.28233288      -0.16651342       1.47029098
C        1.50488974      -0.04928345       0.13171222
H       -1.70008793      -1.12976833      -1.00631531
H       -0.53458619      -2.07729981       0.04346246
H        0.10246813       0.18875997      -1.65854204
H       -1.64558286       1.40184990      -0.70978829
H       -0.44396534       2.03326860       0.52082251
H       -0.10100884      -0.19647612       1.70189224
H        2.02562939      -0.91707538      -0.31391454
H        2.08300472       0.85215943      -0.14241600
14
Frame=6 idx=004234 GeodesicLength=0.4995213619790607 rxn_smarts="[C:1]1([H:7])([H:8])[C@@:2]2([H:9])[C:3]([H:10])([H:11])[C@:4]1([H:12])[O:5][C:6]2([H:13])[H:14]>>[C:1]1([H:7])([H:8])[C:2]([C:6]([O:5][H:12])([H:13])[H:14])([H:9])[C:3]([H:10])([H:11])[C:4]1"
C       -0.92442402      -1.10267953      -0.24041236
C        0.14020593       0.06675142      -0.59433893
C       -0.87296409       1.16640087       0.02421212
C       -0.89097795      -0.07077686       0.76492676
O        1.26091926      -0.16011520       1.46512467
C        1.49988995      -0.04820270       0.12470302
H       -1.70587210      -1.12153658      -0.99720555
H       -0.52899281      -2.07729129       0.02871724
H        0.10985355       0.19014139      -1.67072229
H       -1.65180000       1.39244908      -0.70095026
H       -0.43837610       2.03488571       0.50914656
H       -0.10435151      -0.20126773       1.73577191
H        2.02338766      -0.91969499      -0.30792987
H        2.08350224       0.85093641      -0.14104305
14
Frame=7 idx=004234 GeodesicLength=0.5829772616194375 rxn_smarts="[C:1]1([H:7])([H:8])[C@@:2]2([H:9])[C:3]([H:10])([H:11])[C@:4]1([H:12])[O:5][C:6]2([H:13])[H:14]>>[C:1]1([H:7])([H:8])[C:2]([C:6]([O:5][H:12])([H:13])[H:14])([H:9])[C:3]([H:10])([H:11])[C:4]1"
C       -0.91821444      -1.09861238      -0.24299847
C        0.14062816       0.06854647      -0.60640849
C       -0.86669154       1.16205759       0.02170367
C       -0.87903697      -0.07294237       0.77361296
O        1.23942784      -0.15402888       1.45988804
C        1.49486618      -0.04715618       0.11775250
H       -1.71148775      -1.11336473      -0.98792821
H       -0.52368361      -2.07710000       0.01400749
H        0.11734557       0.19149132      -1.68293839
H       -1.65784310       1.38301402      -0.69203769
H       -0.43304774       2.03638587       0.49736897
H       -0.10715304      -0.20586179       1.76922397
H        2.02104278      -0.92216328      -0.30193280
H        2.08384765       0.84973434      -0.13931357
14
Frame=8 idx=004234 GeodesicLength=0.6664956593344868 rxn_smarts="[C:1]1([H:7])([H:8])[C@@:2]2([H:9])[C:3]([H:10])([H:11])[C@:4]1([H:12])[O:5][C:6]2([H:13])[H:14]>>[C:1]1([H:7])([H:8])[C:2]([C:6]([O:5][H:12])([H:13])[H:14])([H:9])[C:3]([H:10])([H:11])[C:4]1"
C       -0.91210905      -1.09445954      -0.24555649
C        0.14100328       0.07034552      -0.61850456
C       -0.86053750       1.15764349       0.01912818
C       -0.86705738      -0.07510048       0.78232596
O        1.21792746      -0.14826192       1.45460812
C        1.48981027      -0.04614424       0.11087333
H       -1.71691792      -1.10526540      -0.97853417
H       -0.51867368      -2.07673147      -0.00063660
H        0.12495772       0.19280517      -1.69514385
H       -1.66369465       1.37356759      -0.68309079
H       -0.42799601       2.03775753       0.48553177
H       -0.10931649      -0.21022418       1.80216207
H        2.01858114      -0.92448082      -0.29593000
H        2.08402282       0.84854874      -0.13723296
14
Frame=9 idx=004234 GeodesicLength=0.7500432881644776 rxn_smarts="[C:1]1([H:7])([H:8])[C@@:2]2([H:9])[C:3]([H:10])([H:11])[C@:4]1([H:12])[O:5][C:6]2([H:13])[H:14]>>[C:1]1([H:7])([H:8])[C:2]([C:6]([O:5][H:12])([H:13])[H:14])([H:9])[C:3]([H:10])([H:11])[C:4]1"
C       -0.90612219      -1.09023094      -0.24808820
C        0.14131839       0.07214299      -0.63058392
C       -0.85451629       1.15316511       0.01649183
C       -0.85512929      -0.07724970       0.79105080
O        1.19647827      -0.14282690       1.44931279
C        1.48471351      -0.04516681       0.10407979
H       -1.72214800      -1.09725332      -0.96906676
H       -0.51397332      -2.07618845      -0.01519243
H        0.13269948       0.19407886      -1.70729376
H       -1.66934159       1.36413204      -0.67414461
H       -0.42323041       2.03899139       0.47366556
H       -0.11075082      -0.21432372       1.83449672
H        2.01599069      -0.92664683      -0.28992528
H        2.08401157       0.84737626      -0.13480252
14
Frame=10 idx=004234 GeodesicLength=0.8336380085174163 rxn_smarts="[C:1]1([H:7])([H:8])[C@@:2]2([H:9])[C:3]([H:10])([H:11])[C@:4]1([H:12])[O:5][C:6]2([H:13])[H:14]>>[C:1]1([H:7])([H:8])[C:2]([C:6]([O:5][H:12])([H:13])[H:14])([H:9])[C:3]([H:10])([H:11])[C:4]1"
C       -0.90026228      -1.08594376      -0.25060751
C        0.14156234       0.07393409      -0.64261572
C       -0.84863699       1.14863320       0.01379685
C       -0.84334599      -0.07939475       0.79976099
O        1.17514277      -0.13770731       1.44402787
C        1.47956348      -0.04422435       0.09737629
H       -1.72716364      -1.08934478      -0.95958580
H       -0.50958697      -2.07548113      -0.02963126
H        0.14058149       0.19531316      -1.71935579
H       -1.67476848       1.35473792      -0.66523523
H       -0.41875757       2.04007582       0.46182255
H       -0.11138636      -0.21813586       1.86621754
H        2.01325759      -0.92866719      -0.28392268
H        2.08380061       0.84620495      -0.13204810
14
Frame=11 idx=004234 GeodesicLength=0.9172676446624026 rxn_smarts="[C:1]1([H:7])([H:8])[C@@:2]2([H:9])[C:3]([H:10])([H:11])[C@:4]1([H:12])[O:5][C:6]2([H:13])[H:14]>>[C:1]1([H:7])([H:8])[C:2]([C:6]([O:5][H:12])([H:13])[H:14])([H:9])[C:3]([H:10])([H:11])[C:4]1"
C       -0.89453669      -1.08161066      -0.25312533
C        0.14172615       0.07571556      -0.65457394
C       -0.84290712       1.14405561       0.01104632
C       -0.83178525      -0.08153823       0.80843797
O        1.15396715      -0.13289455       1.43877821
C        1.47434963      -0.04331762       0.09076952
H       -1.73195608      -1.08155497      -0.95013739
H       -0.50551342      -2.07461745      -0.04393648
H        0.14861078       0.19650885      -1.73130043
H       -1.67996695       1.34540997      -0.65639189
H       -0.41457888       2.04100302       0.45003938
H       -0.11115964      -0.22163761       1.89730339
H        2.01037130      -0.93054695      -0.27792286
H        2.08337901       0.84502505      -0.12898646
14
Frame=12 idx=004234 GeodesicLength=1.0009249190442588 rxn_smarts="[C:1]1([H:7])([H:8])[C@@:2]2([H:9])[C:3]([H:10])([H:11])[C@:4]1([H:12])[O:5][C:6]2([H:13])[H:14]>>[C:1]1([H:7])([H:8])[C:2]([C:6]([O:5][H:12])([H:13])[H:14])([H:9])[C:3]([H:10])([H:11])[C:4]1"
C       -0.88894888      -1.07724405      -0.25565179
C        0.14180362       0.07748535      -0.66644012
C       -0.83733084       1.13943971       0.00824523
C       -0.82051232      -0.08368462       0.81706553
O        1.13298603      -0.12837533       1.43358528
C        1.46906229      -0.04244665       0.08426275
H       -1.73651895      -1.07389401      -0.94076684
H       -0.50174940      -2.07360583      -0.05809374
H        0.15679149       0.19766915      -1.74310480
H       -1.68493194       1.33616732      -0.64764346
H       -0.41069277       2.04176738       0.43834955
H       -0.11002065      -0.22481224       1.92775565
H        2.00732263      -0.93229213      -0.27192601
H        2.08273968       0.84382595      -0.12563723
14
Frame=13 idx=004234 GeodesicLength=1.0846032150909735 rxn_smarts="[C:1]1([H:7])([H:8])[C@@:2]2([H:9])[C:3]([H:10])([H:11])[C@:4]1([H:12])[O:5][C:6]2([H:13])[H:14]>>[C:1]1([H:7])([H:8])[C:2]([C:6]([O:5][H:12])([H:13])[H:14])([H:9])[C:3]([H:10])([H:11])[C:4]1"
C       -0.88350038      -1.07285529      -0.25819746
C        0.14179022       0.07924199      -0.67820218
C       -0.83191068       1.13479072       0.00539728
C       -0.80958050      -0.08583966       0.82562983
O        1.11222332      -0.12413297       1.42846831
C        1.46369254      -0.04161196       0.07785876
H       -1.74085045      -1.06636933      -0.93151429
H       -0.49828652      -2.07245537      -0.07209786
H        0.16512668       0.19879772      -1.75475201
H       -1.68966184       1.32702683      -0.63901145
H       -0.40709469       2.04236503       0.42678014
H       -0.10792841      -0.22764379       1.95758973
H        2.00410328      -0.93391040      -0.26592927
H        2.08187744       0.84259649      -0.12201953
14
Frame=14 idx=004234 GeodesicLength=1.168306474728852 rxn_smarts="[C:1]1([H:7])([H:8])[C@@:2]2([H:9])[C:3]([H:10])([H:11])[C@:4]1([H:12])[O:5][C:6]2([H:13])[H:14]>>[C:1]1([H:7])([H:8])[C:2]([C:6]([O:5][H:12])([H:13])[H:14])([H:9])[C:3]([H:10])([H:11])[C:4]1"
C       -0.87819159      -1.06845348      -0.26077517
C        0.14168308       0.08098562      -0.68985367
C       -0.82664744       1.13011438       0.00250340
C       -0.79903268      -0.08800806       0.83411878
O        1.09169107      -0.12015076       1.42344293
C        1.45823202      -0.04081420       0.07155742
H       -1.74494917      -1.05898852      -0.92241477
H       -0.49511570      -2.07117587      -0.08594197
H        0.17361929       0.19989929      -1.76623003
H       -1.69415617       1.31800268      -0.63051648
H       -0.40377815       2.04279437       0.41535733
H       -0.10484875      -0.23012316       1.98683495
H        2.00070613      -0.93540884      -0.25993110
H        2.08078805       0.84132655      -0.11815161
14
Frame=15 idx=004234 GeodesicLength=1.25204219859039 rxn_smarts="[C:1]1([H:7])([H:8])[C@@:2]2([H:9])[C:3]([H:10])([H:11])[C@:4]1([H:12])[O:5][C:6]2([H:13])[H:14]>>[C:1]1([H:7])([H:8])[C:2]([C:6]([O:5][H:12])([H:13])[H:14])([H:9])[C:3]([H:10])([H:11])[C:4]1"
C       -0.87302066      -1.06404650      -0.26339669
C        0.14148215       0.08271691      -0.70139314
C       -0.82153975       1.12541427      -0.00043389
C       -0.78889833      -0.09019677       0.84252393
O        1.07139040      -0.11641069       1.41852277
C        1.45267455      -0.04005402       0.06535794
H       -1.74881826      -1.05175595      -0.91349685
H       -0.49222594      -2.06977573      -0.09962966
H        0.18227086       0.20097987      -1.77753104
H       -1.69841928       1.30910403      -0.62217308
H       -0.40073540       2.04305482       0.40409914
H       -0.10075747      -0.23223959       2.01552876
H        1.99712620      -0.93679625      -0.25392735
H        2.07947094       0.84000560      -0.11405083
14
Frame=16 idx=004234 GeodesicLength=1.335823753396525 rxn_smarts="[C:1]1([H:7])([H:8])[C@@:2]2([H:9])[C:3]([H:10])([H:11])[C@:4]1([H:12])[O:5][C:6]2([H:13])[H:14]>>[C:1]1([H:7])([H:8])[C:2]([C:6]([O:5][H:12])([H:13])[H:14])([H:9])[C:3]([H:10])([H:11])[C:4]1"
C       -0.86798493      -1.05964085      -0.26607242
C        0.14118865       0.08443711      -0.71282267
C       -0.81658553       1.12069296      -0.00341284
C       -0.77919709      -0.09241219       0.85083952
O        1.05131339      -0.11289724       1.41371796
C        1.44701510      -0.03933238       0.05925836
H       -1.75246272      -1.04467277      -0.90478499
H       -0.48960570      -2.06826358      -0.11316567
H        0.19108223       0.20204528      -1.78865058
H       -1.70245685       1.30033639      -0.61399351
H       -0.39795790       2.04314769       0.39301946
H       -0.09563421      -0.23398462       2.04371160
H        1.99335968      -0.93808045      -0.24791375
H        2.07792587       0.83862465      -0.10973047
