13
Frame=0 idx=004566 GeodesicLength=0.0 rxn_smarts="[C:1]([C@@:2]1([H:10])[C:3]([H:11])([H:12])[N:4]1[C:5](=[O:6])[H:13])([H:7])([H:8])[H:9]>>[C:1](=[C:2]([C:3]([N:4]1[C:5]([H:7])([H:13])[O:6]1)([H:11])[H:12])[H:10])([H:8])[H:9]"
C       -1.44780302      -0.25637226       0.37627915
C       -0.56304183      -0.86948654      -0.48293278
C        0.30372944       0.00889351      -1.31973639
N        1.10480320      -0.35538413      -0.20725305
C        1.06646741       0.55197040       0.94423315
O        1.90752327       1.43681672       0.55564155
H       -0.04528156       0.87696879       1.10955991
H       -1.97803124      -0.83223321       1.12687860
H       -1.81179768       0.74562045       0.19354979
H       -0.47887962      -1.94583345      -0.52058177
H        0.67154618      -0.36916698      -2.26825106
H       -0.03248129       1.04420639      -1.35962426
H        1.30324676      -0.03599970       1.85223711
13
Frame=1 idx=004566 GeodesicLength=0.10579840037737206 rxn_smarts="[C:1]([C@@:2]1([H:10])[C:3]([H:11])([H:12])[N:4]1[C:5](=[O:6])[H:13])([H:7])([H:8])[H:9]>>[C:1](=[C:2]([C:3]([N:4]1[C:5]([H:7])([H:13])[O:6]1)([H:11])[H:12])[H:10])([H:8])[H:9]"
C       -1.45340318      -0.25403550       0.38279755
C       -0.56561219      -0.86374681      -0.48010691
C        0.30007258       0.01241677      -1.32056646
N        1.10319459      -0.33771018      -0.20476355
C        1.08170920       0.55420292       0.95139689
O        1.92763687       1.42291973       0.53574774
H       -0.06149538       0.86614842       1.12526471
H       -2.00317068      -0.84227096       1.10934636
H       -1.82766638       0.74207379       0.18700289
H       -0.47337303      -1.93999161      -0.51204318
H        0.68165450      -0.37238304      -2.26088444
H       -0.03901454       1.04639299      -1.36848890
H        1.32946765      -0.03401653       1.85529732
13
Frame=2 idx=004566 GeodesicLength=0.2113583920450196 rxn_smarts="[C:1]([C@@:2]1([H:10])[C:3]([H:11])([H:12])[N:4]1[C:5](=[O:6])[H:13])([H:7])([H:8])[H:9]>>[C:1](=[C:2]([C:3]([N:4]1[C:5]([H:7])([H:13])[O:6]1)([H:11])[H:12])[H:10])([H:8])[H:9]"
C       -1.45926357      -0.25176749       0.38938758
C       -0.56825154      -0.85795943      -0.47711162
C        0.29641861       0.01589917      -1.32123930
N        1.10132399      -0.31988156      -0.20204833
C        1.09763935       0.55685827       0.95823060
O        1.94799534       1.40889086       0.51574874
H       -0.07802541       0.85449266       1.14168248
H       -2.02848457      -0.85201010       1.09077151
H       -1.84352004       0.73826332       0.18044354
H       -0.46790004      -1.93401754      -0.50326681
H        0.69165974      -0.37552156      -2.25314652
H       -0.04562544       1.04843099      -1.37741278
H        1.35603357      -0.03167759       1.85796092
13
Frame=3 idx=004566 GeodesicLength=0.3167689950918777 rxn_smarts="[C:1]([C@@:2]1([H:10])[C:3]([H:11])([H:12])[N:4]1[C:5](=[O:6])[H:13])([H:7])([H:8])[H:9]>>[C:1](=[C:2]([C:3]([N:4]1[C:5]([H:7])([H:13])[O:6]1)([H:11])[H:12])[H:10])([H:8])[H:9]"
C       -1.46541882      -0.24959056       0.39602076
C       -0.57095852      -0.85212741      -0.47395053
C        0.29276741       0.01934679      -1.32174891
N        1.09917741      -0.30187712      -0.19909638
C        1.11427570       0.55993950       0.96471925
O        1.96863127       1.39469372       0.49560834
H       -0.09492441       0.84196391       1.15882734
H       -2.05389179      -0.86140512       1.07117074
H       -1.85934639       0.73419518       0.17387923
H       -0.46245003      -1.92791105      -0.49425283
H        0.70156394      -0.37857201      -2.24503055
H       -0.05231864       1.05031811      -1.38639117
H        1.38289288      -0.02897395       1.86024472
13
Frame=4 idx=004566 GeodesicLength=0.422108850677403 rxn_smarts="[C:1]([C@@:2]1([H:10])[C:3]([H:11])([H:12])[N:4]1[C:5](=[O:6])[H:13])([H:7])([H:8])[H:9]>>[C:1](=[C:2]([C:3]([N:4]1[C:5]([H:7])([H:13])[O:6]1)([H:11])[H:12])[H:10])([H:8])[H:9]"
C       -1.47190548      -0.24752505       0.40266214
C       -0.57373102      -0.84625183      -0.47062861
C        0.28911966       0.02276831      -1.32209159
N        1.09673777      -0.28366644      -0.19589475
C        1.13163615       0.56345283       0.97084939
O        1.98958795       1.38027480       0.47528659
H       -0.11225349       0.82852151       1.17670841
H       -2.07930972      -0.87042467       1.05057702
H       -1.87513668       0.72988157       0.16731375
H       -0.45700888      -1.92166869      -0.48499769
H        0.71137070      -0.38152197      -2.23652696
H       -0.05909890       1.05205455      -1.39542418
H        1.40999193      -0.02589492       1.86216649
13
Frame=5 idx=004566 GeodesicLength=0.5274145830099848 rxn_smarts="[C:1]([C@@:2]1([H:10])[C:3]([H:11])([H:12])[N:4]1[C:5](=[O:6])[H:13])([H:7])([H:8])[H:9]>>[C:1](=[C:2]([C:3]([N:4]1[C:5]([H:7])([H:13])[O:6]1)([H:11])[H:12])[H:10])([H:8])[H:9]"
C       -1.47875670      -0.24558752       0.40927959
C       -0.57656672      -0.84033411      -0.46715174
C        0.28547546       0.02617030      -1.32226522
N        1.09399006      -0.26522188      -0.19243739
C        1.14973926       0.56740086       0.97660537
O        2.01087497       1.36559984       0.45476057
H       -0.13007740       0.81412412       1.19533362
H       -2.10464647      -0.87902110       1.02903644
H       -1.89087841       0.72533970       0.16074924
H       -0.45156421      -1.91528726      -0.47550090
H        0.72109250      -0.38436922      -2.22763193
H       -0.06596966       1.05363742      -1.40451637
H        1.43728733      -0.02245117       1.86373873
13
Frame=6 idx=004566 GeodesicLength=0.6327521593718487 rxn_smarts="[C:1]([C@@:2]1([H:10])[C:3]([H:11])([H:12])[N:4]1[C:5](=[O:6])[H:13])([H:7])([H:8])[H:9]>>[C:1](=[C:2]([C:3]([N:4]1[C:5]([H:7])([H:13])[O:6]1)([H:11])[H:12])[H:10])([H:8])[H:9]"
C       -1.48601549      -0.24379820       0.41582614
C       -0.57946322      -0.83437118      -0.46352686
C        0.28183601       0.02956806      -1.32226640
N        1.09090915      -0.24649314      -0.18870375
C        1.16861079       0.57179638       0.98197191
O        2.03255968       1.35057974       0.43397579
H       -0.14847396       0.79872322       1.21470085
H       -2.12981522      -0.88718834       1.00661126
H       -1.90657236       0.72059032       0.15418080
H       -0.44609543      -1.90875723      -0.46575408
H        0.73073736      -0.38709545      -2.21832955
H       -0.07293524       1.05507254      -1.41367106
H        1.46471793      -0.01862669       1.86498494
13
Frame=7 idx=004566 GeodesicLength=0.738200303026965 rxn_smarts="[C:1]([C@@:2]1([H:10])[C:3]([H:11])([H:12])[N:4]1[C:5](=[O:6])[H:13])([H:7])([H:8])[H:9]>>[C:1](=[C:2]([C:3]([N:4]1[C:5]([H:7])([H:13])[O:6]1)([H:11])[H:12])[H:10])([H:8])[H:9]"
C       -1.49372376      -0.24217746       0.42225809
C       -0.58241734      -0.82835891      -0.45975944
C        0.27819934       0.03297900      -1.32209020
N        1.08746880      -0.22742682      -0.18467473
C        1.18829159       0.57664894       0.98692595
O        2.05469638       1.33512891       0.41288166
H       -0.16753702       0.78227367       1.23480412
H       -2.15472693      -0.89490926       0.98337384
H       -1.92222461       0.71565042       0.14759627
H       -0.44057905      -1.90206584      -0.45574942
H        0.74032293      -0.38968723      -2.20860551
H       -0.08000089       1.05636669      -1.42288860
H        1.49223055      -0.01442212       1.86592797
13
Frame=8 idx=004566 GeodesicLength=0.843765235389655 rxn_smarts="[C:1]([C@@:2]1([H:10])[C:3]([H:11])([H:12])[N:4]1[C:5](=[O:6])[H:13])([H:7])([H:8])[H:9]>>[C:1](=[C:2]([C:3]([N:4]1[C:5]([H:7])([H:13])[O:6]1)([H:11])[H:12])[H:10])([H:8])[H:9]"
C       -1.50192259      -0.24074166       0.42852903
C       -0.58542448      -0.82228877      -0.45585280
C        0.27456541       0.03642259      -1.32173198
N        1.08363745      -0.20795529      -0.18032551
C        1.20881949       0.58198296       0.99144438
O        2.07735995       1.31913270       0.39141574
H       -0.18735176       0.76471922       1.25563524
H       -2.17931438      -0.90219996       0.95939671
H       -1.93784508       0.71054419       0.14098168
H       -0.43498655      -1.89519222      -0.44547028
H        0.74986288      -0.39212344      -2.19843750
H       -0.08717189       1.05752705      -1.43217691
H        1.51977156      -0.00982737       1.86659220
13
Frame=9 idx=004566 GeodesicLength=0.949733918877763 rxn_smarts="[C:1]([C@@:2]1([H:10])[C:3]([H:11])([H:12])[N:4]1[C:5](=[O:6])[H:13])([H:7])([H:8])[H:9]>>[C:1](=[C:2]([C:3]([N:4]1[C:5]([H:7])([H:13])[O:6]1)([H:11])[H:12])[H:10])([H:8])[H:9]"
C       -1.51068155      -0.23951030       0.43455596
C       -0.58848508      -0.81612608      -0.45179639
C        0.27090858       0.03998511      -1.32116935
N        1.07933342      -0.18790752      -0.17560100
C        1.23031424       0.58775652       0.99549936
O        2.10080469       1.30222823       0.36941478
H       -0.20802848       0.74606248       1.27710960
H       -2.20357735      -0.90926071       0.93473391
H       -1.95350942       0.70528597       0.13434667
H       -0.42923485      -1.88810386      -0.43485439
H        0.75938453      -0.39436711      -2.18778318
H       -0.09446692       1.05862993      -1.44150832
H        1.54723820      -0.00467266       1.86705235
13
Frame=10 idx=004566 GeodesicLength=1.0558426770121672 rxn_smarts="[C:1]([C@@:2]1([H:10])[C:3]([H:11])([H:12])[N:4]1[C:5](=[O:6])[H:13])([H:7])([H:8])[H:9]>>[C:1](=[C:2]([C:3]([N:4]1[C:5]([H:7])([H:13])[O:6]1)([H:11])[H:12])[H:10])([H:8])[H:9]"
C       -1.52000421      -0.23849549       0.44033973
C       -0.59158127      -0.80987814      -0.44759401
C        0.26724482       0.04364553      -1.32041074
N        1.07455169      -0.16723888      -0.17050103
C        1.25277493       0.59405673       0.99905498
O        2.12496610       1.28441158       0.34689542
H       -0.22966171       0.72621004       1.29928126
H       -2.22741972      -0.91597106       0.90944411
H       -1.96918814       0.69989530       0.12765613
H       -0.42330604      -1.88077810      -0.42389161
H        0.76889338      -0.39640977      -2.17662590
H       -0.10189772       1.05963399      -1.45092837
H        1.57462788       0.00091826       1.86728004
13
Frame=11 idx=004566 GeodesicLength=1.1620162244421928 rxn_smarts="[C:1]([C@@:2]1([H:10])[C:3]([H:11])([H:12])[N:4]1[C:5](=[O:6])[H:13])([H:7])([H:8])[H:9]>>[C:1](=[C:2]([C:3]([N:4]1[C:5]([H:7])([H:13])[O:6]1)([H:11])[H:12])[H:10])([H:8])[H:9]"
C       -1.52992051      -0.23770399       0.44584303
C       -0.59470164      -0.80352462      -0.44323757
C        0.26357113       0.04743813      -1.31944783
N        1.06924794      -0.14582449      -0.16500334
C        1.27626374       0.60090520       1.00208144
O        2.14992881       1.26548169       0.32378824
H       -0.25235233       0.70512616       1.32213281
H       -2.25080279      -0.92238999       0.88358576
H       -1.98490993       0.69438769       0.12089247
H       -0.41714606      -1.87317880      -0.41254032
H        0.77840826      -0.39822956      -2.16493141
H       -0.10948116       1.06055425      -1.46045318
H        1.60189454       0.00695833       1.86728990
13
Frame=12 idx=004566 GeodesicLength=1.2682575728977734 rxn_smarts="[C:1]([C@@:2]1([H:10])[C:3]([H:11])([H:12])[N:4]1[C:5](=[O:6])[H:13])([H:7])([H:8])[H:9]>>[C:1](=[C:2]([C:3]([N:4]1[C:5]([H:7])([H:13])[O:6]1)([H:11])[H:12])[H:10])([H:8])[H:9]"
C       -1.54046225      -0.23715025       0.45103069
C       -0.59782616      -0.79704003      -0.43870622
C        0.25987919       0.05141256      -1.31826824
N        1.06336225      -0.12349215      -0.15907402
C        1.30087651       0.60833326       1.00453837
O        2.17582566       1.24515642       0.29999914
H       -0.27624237       0.68278440       1.34563605
H       -2.27370771      -0.92860029       0.85719706
H       -2.00072256       0.68876135       0.11402847
H       -0.41067207      -1.86525440      -0.40072923
H        0.78794084      -0.39978918      -2.15265240
H       -0.11724663       1.06141638      -1.47009752
H        1.62899531       0.01346192       1.86709786
13
Frame=13 idx=004566 GeodesicLength=1.374450641376239 rxn_smarts="[C:1]([C@@:2]1([H:10])[C:3]([H:11])([H:12])[N:4]1[C:5](=[O:6])[H:13])([H:7])([H:8])[H:9]>>[C:1](=[C:2]([C:3]([N:4]1[C:5]([H:7])([H:13])[O:6]1)([H:11])[H:12])[H:10])([H:8])[H:9]"
C       -1.55165443      -0.23684264       0.45588120
C       -0.60093088      -0.79039432      -0.43397292
C        0.25615876       0.05561645      -1.31685655
N        1.05683322      -0.10005403      -0.15268468
C        1.32671572       0.61637299       1.00637777
O        2.20275131       1.22314928       0.27544042
H       -0.30145075       0.65913945       1.36977402
H       -2.29612374      -0.93467696       0.83029035
H       -2.01666367       0.68301484       0.10703951
H       -0.40379483      -1.85694299      -0.38838177
H        0.79750614      -0.40105612      -2.13973618
H       -0.12523143       1.06223463      -1.47988264
H        1.65588458       0.02043942       1.86671145
13
Frame=14 idx=004566 GeodesicLength=1.4805763039468989 rxn_smarts="[C:1]([C@@:2]1([H:10])[C:3]([H:11])([H:12])[N:4]1[C:5](=[O:6])[H:13])([H:7])([H:8])[H:9]>>[C:1](=[C:2]([C:3]([N:4]1[C:5]([H:7])([H:13])[O:6]1)([H:11])[H:12])[H:10])([H:8])[H:9]"
C       -1.56353095      -0.23680450       0.46036531
C       -0.60397758      -0.78354183      -0.42899357
C        0.25238694       0.06013249      -1.31518957
N        1.04956829      -0.07522259      -0.14578914
C        1.35391817       0.62506223       1.00754005
O        2.23088166       1.19896710       0.24998698
H       -0.32814399       0.63420666       1.39449455
H       -2.31802879      -0.94075491       0.80286787
H       -2.03281830       0.67710777       0.09988051
H       -0.39636449      -1.84815355      -0.37537160
H        0.80710974      -0.40196061      -2.12610953
H       -0.13350166       1.06305011      -1.48983030
H        1.68250097       0.02791162       1.86614846
13
Frame=15 idx=004566 GeodesicLength=1.5865304563552456 rxn_smarts="[C:1]([C@@:2]1([H:10])[C:3]([H:11])([H:12])[N:4]1[C:5](=[O:6])[H:13])([H:7])([H:8])[H:9]>>[C:1](=[C:2]([C:3]([N:4]1[C:5]([H:7])([H:13])[O:6]1)([H:11])[H:12])[H:10])([H:8])[H:9]"
C       -1.57612118      -0.23706474       0.46445860
C       -0.60691505      -0.77642745      -0.42371392
C        0.24853428       0.06505702      -1.31324232
N        1.04145769      -0.04864936      -0.13834481
C        1.38263898       0.63442868       1.00794920
O        2.26036274       1.17202508       0.22352279
H       -0.35648392       0.60801890       1.41974043
H       -2.33937016      -0.94696249       0.77492886
H       -2.04927713       0.67097572       0.09249585
H       -0.38819281      -1.83876838      -0.36155281
H        0.81675809      -0.40242092      -2.11169316
H       -0.14214611       1.06390064      -1.49997155
H        1.70875457       0.03588730       1.86542284
13
Frame=16 idx=004566 GeodesicLength=1.6922472709514051 rxn_smarts="[C:1]([C@@:2]1([H:10])[C:3]([H:11])([H:12])[N:4]1[C:5](=[O:6])[H:13])([H:7])([H:8])[H:9]>>[C:1](=[C:2]([C:3]([N:4]1[C:5]([H:7])([H:13])[O:6]1)([H:11])[H:12])[H:10])([H:8])[H:9]"
C       -1.58946115      -0.23766782       0.46814704
C       -0.60967011      -0.76897899      -0.41805773
C        0.24456438       0.07053752      -1.31098669
N        1.03235682      -0.01985036      -0.13030485
C        1.41308027       0.64448841       1.00750129
O        2.29139249       1.14147709       0.19590819
H       -0.38666362       0.58072463       1.44543214
H       -2.36007324      -0.95350820       0.74646136
H       -2.06619165       0.66450575       0.08481944
H       -0.37900662      -1.82864703      -0.34672925
H        0.82646237      -0.40231761      -2.09639886
H       -0.15129310       1.06486136      -1.51034673
H        1.73450317       0.04437525       1.86455464
