8
Frame=0 idx=000353 GeodesicLength=0.0 rxn_smarts="[n:1]1([H:6])[c:2]([H:7])[c:3]([H:8])[n:4][n:5]1>>[N:1]1=[N:5][N:4]=[C:3]([H:8])[C:2]1([H:6])[H:7]"
N       -1.27792319      -0.25631076      -0.14275894
C       -0.20084921       0.68692003      -0.17725092
C        0.95313427      -0.07917291      -0.06447083
N        0.59559292      -1.35189462       0.04798631
N       -0.72197689      -1.43345667       0.04453649
H       -0.96086950       0.49731362       0.83203102
H       -0.37341033       1.70818724      -0.47951894
H        1.98630193       0.22841407      -0.06055422
8
Frame=1 idx=000353 GeodesicLength=0.040395318068934274 rxn_smarts="[n:1]1([H:6])[c:2]([H:7])[c:3]([H:8])[n:4][n:5]1>>[N:1]1=[N:5][N:4]=[C:3]([H:8])[C:2]1([H:6])[H:7]"
N       -1.27248077      -0.25652155      -0.14211883
C       -0.19982729       0.68828877      -0.16555999
C        0.95523952      -0.07982127      -0.05710161
N        0.59946732      -1.35308238       0.04501930
N       -0.72100877      -1.43429804       0.03816249
H       -0.98088743       0.50473778       0.84069189
H       -0.36923048       1.70401758      -0.48788336
H        1.98872790       0.22667911      -0.07120990
8
Frame=2 idx=000353 GeodesicLength=0.0807933455012862 rxn_smarts="[n:1]1([H:6])[c:2]([H:7])[c:3]([H:8])[n:4][n:5]1>>[N:1]1=[N:5][N:4]=[C:3]([H:8])[C:2]1([H:6])[H:7]"
N       -1.26697834      -0.25669603      -0.14106975
C       -0.19876810       0.68961063      -0.15376813
C        0.95742892      -0.08054057      -0.05001442
N        0.60343478      -1.35427328       0.04166479
N       -0.71995522      -1.43507764       0.03195048
H       -1.00128561       0.51243780       0.84898137
H       -0.36476680       1.69946122      -0.49608215
H        1.99089037       0.22507786      -0.08166220
8
Frame=3 idx=000353 GeodesicLength=0.12116933683038188 rxn_smarts="[n:1]1([H:6])[c:2]([H:7])[c:3]([H:8])[n:4][n:5]1>>[N:1]1=[N:5][N:4]=[C:3]([H:8])[C:2]1([H:6])[H:7]"
N       -1.26143515      -0.25684132      -0.13952412
C       -0.19768847       0.69087426      -0.14193637
C        0.95969077      -0.08135208      -0.04339720
N        0.60748693      -1.35547996       0.03782164
N       -0.71882884      -1.43580226       0.02595413
H       -1.02197829       0.52045148       0.85689072
H       -0.36005818       1.69451112      -0.50412392
H        1.99281123       0.22363876      -0.09168488
8
Frame=4 idx=000353 GeodesicLength=0.16154928618359998 rxn_smarts="[n:1]1([H:6])[c:2]([H:7])[c:3]([H:8])[n:4][n:5]1>>[N:1]1=[N:5][N:4]=[C:3]([H:8])[C:2]1([H:6])[H:7]"
N       -1.25586897      -0.25697799      -0.13741973
C       -0.19658275       0.69204867      -0.13013736
C        0.96202074      -0.08227589      -0.03741161
N        0.61161166      -1.35670906       0.03341632
N       -0.71764600      -1.43648312       0.02022454
H       -1.04289984       0.52882888       0.86440822
H       -0.35516216       1.68918679      -0.51198712
H        1.99452731       0.22238171      -0.10109326
8
Frame=5 idx=000353 GeodesicLength=0.20192611820958525 rxn_smarts="[n:1]1([H:6])[c:2]([H:7])[c:3]([H:8])[n:4][n:5]1>>[N:1]1=[N:5][N:4]=[C:3]([H:8])[C:2]1([H:6])[H:7]"
N       -1.25029111      -0.25711938      -0.13474004
C       -0.19545610       0.69314079      -0.11839738
C        0.96441779      -0.08331175      -0.03208823
N        0.61581262      -1.35796550       0.02842839
N       -0.71641011      -1.43712696       0.01479035
H       -1.06406021       0.53760739       0.87148654
H       -0.35011796       1.68348406      -0.51961489
H        1.99610507       0.22129137      -0.10986474
8
Frame=6 idx=000353 GeodesicLength=0.24230253006585556 rxn_smarts="[n:1]1([H:6])[c:2]([H:7])[c:3]([H:8])[n:4][n:5]1>>[N:1]1=[N:5][N:4]=[C:3]([H:8])[C:2]1([H:6])[H:7]"
N       -1.24469958      -0.25728627      -0.13149160
C       -0.19429912       0.69413707      -0.10672800
C        0.96688026      -0.08446170      -0.02741000
N        0.62008412      -1.35925173       0.02287717
N       -0.71512514      -1.43775330       0.00966069
H       -1.08547546       0.54681460       0.87808026
H       -0.34495408       1.67744153      -0.52694979
H        1.99758900       0.22035980      -0.11803873
8
Frame=7 idx=000353 GeodesicLength=0.2826830822900573 rxn_smarts="[n:1]1([H:6])[c:2]([H:7])[c:3]([H:8])[n:4][n:5]1>>[N:1]1=[N:5][N:4]=[C:3]([H:8])[C:2]1([H:6])[H:7]"
N       -1.23909622      -0.25749848      -0.12766422
C       -0.19309755       0.69502660      -0.09515511
C        0.96940479      -0.08572731      -0.02339011
N        0.62442083      -1.36056746       0.01676694
N       -0.71379663      -1.43837696       0.00484544
H       -1.10713974       0.55648195       0.88414824
H       -0.33971575       1.67108583      -0.53393944
H        1.99902027       0.21957583      -0.12561175
8
Frame=8 idx=000353 GeodesicLength=0.323120214916495 rxn_smarts="[n:1]1([H:6])[c:2]([H:7])[c:3]([H:8])[n:4][n:5]1>>[N:1]1=[N:5][N:4]=[C:3]([H:8])[C:2]1([H:6])[H:7]"
N       -1.23349869      -0.25778666      -0.12326235
C       -0.19183760       0.69580317      -0.08368953
C        0.97200257      -0.08710176      -0.02001047
N        0.62882905      -1.36190913       0.01013565
N       -0.71244508      -1.43902469       0.00033008
H       -1.12906356       0.56664026       0.88965574
H       -0.33443068       1.66444976      -0.54052864
H        2.00044399       0.21892906      -0.13263048
8
Frame=9 idx=000353 GeodesicLength=0.3633453270203407 rxn_smarts="[n:1]1([H:6])[c:2]([H:7])[c:3]([H:8])[n:4][n:5]1>>[N:1]1=[N:5][N:4]=[C:3]([H:8])[C:2]1([H:6])[H:7]"
N       -1.22784798      -0.25809926      -0.11817917
C       -0.19056498       0.69644581      -0.07229248
C        0.97463889      -0.08859703      -0.01726682
N        0.63327204      -1.36328336       0.00285105
N       -0.71101164      -1.43964480      -0.00382092
H       -1.15126871       0.57723959       0.89451793
H       -0.32909725       1.65752934      -0.54676916
H        2.00187963       0.21840971      -0.13904042
8
Frame=10 idx=000353 GeodesicLength=0.40362019591031584 rxn_smarts="[n:1]1([H:6])[c:2]([H:7])[c:3]([H:8])[n:4][n:5]1>>[N:1]1=[N:5][N:4]=[C:3]([H:8])[C:2]1([H:6])[H:7]"
N       -1.22217945      -0.25851264      -0.11251696
C       -0.18921125       0.69697200      -0.06092851
C        0.97735914      -0.09018703      -0.01500212
N        0.63777866      -1.36467569      -0.00491932
N       -0.70954557      -1.44031275      -0.00769793
H       -1.17383035       0.58835388       0.89870793
H       -0.32373898       1.65037356      -0.55254440
H        2.00336781       0.21798868      -0.14509869
8
Frame=11 idx=000353 GeodesicLength=0.4439264127656337 rxn_smarts="[n:1]1([H:6])[c:2]([H:7])[c:3]([H:8])[n:4][n:5]1>>[N:1]1=[N:5][N:4]=[C:3]([H:8])[C:2]1([H:6])[H:7]"
N       -1.21646152      -0.25903035      -0.10628490
C       -0.18774811       0.69738211      -0.04955236
C        0.98016249      -0.09188232      -0.01312232
N        0.64236516      -1.36607704      -0.01316064
N       -0.70800861      -1.44101633      -0.01130561
H       -1.19679999       0.60002509       0.90212893
H       -0.31839197       1.64297993      -0.55777623
H        2.00488256       0.21761891      -0.15092688
8
Frame=12 idx=000353 GeodesicLength=0.4841702034382795 rxn_smarts="[n:1]1([H:6])[c:2]([H:7])[c:3]([H:8])[n:4][n:5]1>>[N:1]1=[N:5][N:4]=[C:3]([H:8])[C:2]1([H:6])[H:7]"
N       -1.21068140      -0.25963894      -0.09933922
C       -0.18621589       0.69765985      -0.03815959
C        0.98303476      -0.09367554      -0.01165935
N        0.64699105      -1.36749099      -0.02204093
N       -0.70640526      -1.44175411      -0.01459707
H       -1.22015876       0.61221895       0.90475619
H       -0.31303084       1.63534484      -0.56256580
H        2.00646634       0.21733595      -0.15639423
8
Frame=13 idx=000353 GeodesicLength=0.524417669110773 rxn_smarts="[n:1]1([H:6])[c:2]([H:7])[c:3]([H:8])[n:4][n:5]1>>[N:1]1=[N:5][N:4]=[C:3]([H:8])[C:2]1([H:6])[H:7]"
N       -1.20483968      -0.26037165      -0.09170243
C       -0.18457333       0.69780043      -0.02668790
C        0.98599848      -0.09556739      -0.01049970
N        0.65167286      -1.36890724      -0.03154189
N       -0.70473590      -1.44255116      -0.01758043
H       -1.24396342       0.62499120       0.90650016
H       -0.30767922       1.62749036      -0.56684036
H        2.00812021       0.21711544      -0.16164746
8
Frame=14 idx=000353 GeodesicLength=0.564665171285216 rxn_smarts="[n:1]1([H:6])[c:2]([H:7])[c:3]([H:8])[n:4][n:5]1>>[N:1]1=[N:5][N:4]=[C:3]([H:8])[C:2]1([H:6])[H:7]"
N       -1.19891302      -0.26123872      -0.08329493
C       -0.18280637       0.69780786      -0.01510161
C        0.98905275      -0.09756647      -0.00958989
N        0.65640423      -1.37030979      -0.04176751
N       -0.70297396      -1.44339796      -0.02024034
H       -1.26823594       0.63838824       0.90727406
H       -0.30236469       1.61937778      -0.57058955
H        2.00983701       0.21693907      -0.16669023
8
Frame=15 idx=000353 GeodesicLength=0.6048863435879273 rxn_smarts="[n:1]1([H:6])[c:2]([H:7])[c:3]([H:8])[n:4][n:5]1>>[N:1]1=[N:5][N:4]=[C:3]([H:8])[C:2]1([H:6])[H:7]"
N       -1.19289013      -0.26223794      -0.07406514
C       -0.18091070       0.69767686      -0.00335359
C        0.99220278      -0.09966438      -0.00893029
N        0.66116559      -1.37168844      -0.05263935
N       -0.70113082      -1.44430650      -0.02263143
H       -1.29298540       0.65237048       0.90700983
H       -0.29708248       1.61104385      -0.57379744
H        2.01163117       0.21680606      -0.17159258
8
Frame=16 idx=000353 GeodesicLength=0.6451078050976531 rxn_smarts="[n:1]1([H:6])[c:2]([H:7])[c:3]([H:8])[n:4][n:5]1>>[N:1]1=[N:5][N:4]=[C:3]([H:8])[C:2]1([H:6])[H:7]"
N       -1.18675813      -0.26339628      -0.06389389
C       -0.17887326       0.69740247       0.00858209
C        0.99544877      -0.10186978      -0.00847013
N        0.66594844      -1.37301943      -0.06432680
N       -0.69918993      -1.44528083      -0.02473014
H       -1.31820643       0.66701115       0.90562035
H       -0.29187024       1.60244402      -0.57647908
H        2.01350077       0.21670869      -0.17630241
