12
Frame=0 idx=007320 GeodesicLength=0.0 rxn_smarts="[O:1]([C:2]([c:3]1[n:4][n:5]([H:11])[c:6]([H:12])[n:7]1)([H:9])[H:10])[H:8]>>[O:1]([C:2]([N+:7]1=[C:3]=[N:4][N:5]([H:11])[C-:6]1[H:12])([H:9])[H:10])[H:8]"
O       -2.52160414       0.44536187       0.30385057
C       -1.59684782      -0.43487774       0.00291565
C       -0.00647633       0.89926013      -0.42747478
N        1.09749997       0.78943510      -1.17150704
N        1.96186575       0.07793905      -0.41097285
C        1.41332609      -0.29703770       0.73355837
N        0.18478706       0.20519111       0.79290620
H       -2.37252916       1.20248087      -0.28566712
H       -1.43386824      -0.71248007      -1.03061801
H       -1.56189268      -1.24475337       0.72015928
H        2.91484379      -0.04573646      -0.71007434
H        1.92089574      -0.88478275       1.48292408
12
Frame=1 idx=007320 GeodesicLength=0.06477564629785079 rxn_smarts="[O:1]([C:2]([c:3]1[n:4][n:5]([H:11])[c:6]([H:12])[n:7]1)([H:9])[H:10])[H:8]>>[O:1]([C:2]([N+:7]1=[C:3]=[N:4][N:5]([H:11])[C-:6]1[H:12])([H:9])[H:10])[H:8]"
O       -2.54138858       0.45887691       0.24421033
C       -1.58817811      -0.42250153       0.02569873
C       -0.00896760       0.90650883      -0.38568611
N        1.08561567       0.82537568      -1.14498459
N        1.96432955       0.10036842      -0.41337346
C        1.42331311      -0.32536731       0.71702866
N        0.19529169       0.17229387       0.80432428
H       -2.36822222       1.20340951      -0.35331898
H       -1.41586519      -0.76755801      -0.98650067
H       -1.59741442      -1.20329565       0.77651881
H        2.91471927      -0.00947662      -0.72532567
H        1.93676684      -0.93863410       1.44140866
12
Frame=2 idx=007320 GeodesicLength=0.12948567476448436 rxn_smarts="[O:1]([C:2]([c:3]1[n:4][n:5]([H:11])[c:6]([H:12])[n:7]1)([H:9])[H:10])[H:8]>>[O:1]([C:2]([N+:7]1=[C:3]=[N:4][N:5]([H:11])[C-:6]1[H:12])([H:9])[H:10])[H:8]"
O       -2.55823544       0.47027640       0.18074083
C       -1.58063743      -0.40908272       0.04933916
C       -0.01118449       0.91361644      -0.34114594
N        1.07220953       0.86028462      -1.11680461
N        1.96575284       0.12247902      -0.41566394
C        1.43241851      -0.35645168       0.69713435
N        0.20614858       0.13746900       0.81507737
H       -2.36010855       1.20154536      -0.42403916
H       -1.39958996      -0.82306189      -0.93597659
H       -1.63424639      -1.15555612       0.83377229
H        2.91475308       0.03240981      -0.73757978
H        1.95271973      -0.99392824       1.39514601
12
Frame=3 idx=007320 GeodesicLength=0.19455651076737068 rxn_smarts="[O:1]([C:2]([c:3]1[n:4][n:5]([H:11])[c:6]([H:12])[n:7]1)([H:9])[H:10])[H:8]>>[O:1]([C:2]([N+:7]1=[C:3]=[N:4][N:5]([H:11])[C-:6]1[H:12])([H:9])[H:10])[H:8]"
O       -2.57198289       0.47611923       0.11078694
C       -1.57235982      -0.39508557       0.07319574
C       -0.01349729       0.92374404      -0.29075329
N        1.05779751       0.90063841      -1.08263363
N        1.96464722       0.14527081      -0.41721236
C        1.44093971      -0.38563346       0.67656829
N        0.21690853       0.10316466       0.82730000
H       -2.34790554       1.19478985      -0.49873888
H       -1.38055739      -0.87869922      -0.87878167
H       -1.67047448      -1.10151432       0.89099751
H        2.90940882       0.06816719      -0.75416596
H        1.96707563      -1.05096162       1.34343730
12
Frame=4 idx=007320 GeodesicLength=0.25959308477293513 rxn_smarts="[O:1]([C:2]([c:3]1[n:4][n:5]([H:11])[c:6]([H:12])[n:7]1)([H:9])[H:10])[H:8]>>[O:1]([C:2]([N+:7]1=[C:3]=[N:4][N:5]([H:11])[C-:6]1[H:12])([H:9])[H:10])[H:8]"
O       -2.58090142       0.47922725       0.03802400
C       -1.56548427      -0.38038521       0.09708816
C       -0.01552051       0.93242756      -0.23797126
N        1.04171655       0.93853694      -1.04704348
N        1.96206077       0.16649233      -0.41938298
C        1.44802902      -0.41771309       0.65176284
N        0.22761577       0.06613530       0.83771189
H       -2.33001043       1.18525607      -0.57449842
H       -1.36619673      -0.93425055      -0.81525903
H       -1.70777252      -1.04020321       0.94785628
H        2.90490091       0.11175624      -0.76555817
H        1.98156287      -1.10727962       1.28727016
12
Frame=5 idx=007320 GeodesicLength=0.3247580682210245 rxn_smarts="[O:1]([C:2]([c:3]1[n:4][n:5]([H:11])[c:6]([H:12])[n:7]1)([H:9])[H:10])[H:8]>>[O:1]([C:2]([N+:7]1=[C:3]=[N:4][N:5]([H:11])[C-:6]1[H:12])([H:9])[H:10])[H:8]"
O       -2.58465930       0.47618163      -0.03931758
C       -1.55833655      -0.36589077       0.11971306
C       -0.01761821       0.94226265      -0.18022686
N        1.02483739       0.97988631      -1.00579050
N        1.95741228       0.18892655      -0.42012499
C        1.45379392      -0.44819420       0.62567788
N        0.23752412       0.02874858       0.84821753
H       -2.30621237       1.17192756      -0.65044791
H       -1.35273095      -0.98909310      -0.74652610
H       -1.74429778      -0.97285882       1.00197331
H        2.89546839       0.14972063      -0.78070900
H        1.99481907      -1.16161702       1.22756115
12
Frame=6 idx=007320 GeodesicLength=0.3901660225215139 rxn_smarts="[O:1]([C:2]([c:3]1[n:4][n:5]([H:11])[c:6]([H:12])[n:7]1)([H:9])[H:10])[H:8]>>[O:1]([C:2]([N+:7]1=[C:3]=[N:4][N:5]([H:11])[C-:6]1[H:12])([H:9])[H:10])[H:8]"
O       -2.58209913       0.46797000      -0.11944818
C       -1.55146600      -0.35193897       0.14110708
C       -0.01973199       0.95128193      -0.11940448
N        1.00706920       1.02163983      -0.96074042
N        1.95115060       0.21181059      -0.41989661
C        1.45813851      -0.47768035       0.59754594
N        0.24658073      -0.00958694       0.85746387
H       -2.27588451       1.15541395      -0.72545026
H       -1.34339952      -1.04362479      -0.67226592
H       -1.78040215      -0.89873762       1.05317418
H        2.88355068       0.18775321      -0.79579152
H        2.00649358      -1.21430084       1.16370632
12
Frame=7 idx=007320 GeodesicLength=0.45607428233452957 rxn_smarts="[O:1]([C:2]([c:3]1[n:4][n:5]([H:11])[c:6]([H:12])[n:7]1)([H:9])[H:10])[H:8]>>[O:1]([C:2]([N+:7]1=[C:3]=[N:4][N:5]([H:11])[C-:6]1[H:12])([H:9])[H:10])[H:8]"
O       -2.57251027       0.45517001      -0.20065748
C       -1.54505147      -0.33887230       0.16151265
C       -0.02176674       0.95820759      -0.05730747
N        0.98856058       1.06199746      -0.91352353
N        1.94338276       0.23412706      -0.41968460
C        1.46095162      -0.50634793       0.56670637
N        0.25483631      -0.04881699       0.86443110
H       -2.23893643       1.13563683      -0.79887730
H       -1.34071750      -1.09821790      -0.59166436
H       -1.81582505      -0.81696278       1.10129010
H        2.87137228       0.23024719      -0.80671777
H        2.01570391      -1.26616824       1.09449227
12
Frame=8 idx=007320 GeodesicLength=0.5228613702471281 rxn_smarts="[O:1]([C:2]([c:3]1[n:4][n:5]([H:11])[c:6]([H:12])[n:7]1)([H:9])[H:10])[H:8]>>[O:1]([C:2]([N+:7]1=[C:3]=[N:4][N:5]([H:11])[C-:6]1[H:12])([H:9])[H:10])[H:8]"
O       -2.55554502       0.43578421      -0.28371931
C       -1.53816530      -0.32747272       0.17995052
C       -0.02416341       0.96395118       0.00699582
N        0.97006831       1.10362249      -0.86146458
N        1.93468347       0.25879833      -0.41647068
C        1.46237150      -0.53164387       0.53564158
N        0.26173909      -0.08733412       0.87037307
H       -2.19571027       1.11283702      -0.86928622
H       -1.34271892      -1.15193722      -0.50566914
H       -1.84938973      -0.72915899       1.14358799
H        2.85516535       0.26873476      -0.82064643
H        2.02166493      -1.31618105       1.02070739
12
Frame=9 idx=007320 GeodesicLength=0.5902925477503163 rxn_smarts="[O:1]([C:2]([c:3]1[n:4][n:5]([H:11])[c:6]([H:12])[n:7]1)([H:9])[H:10])[H:8]>>[O:1]([C:2]([N+:7]1=[C:3]=[N:4][N:5]([H:11])[C-:6]1[H:12])([H:9])[H:10])[H:8]"
O       -2.53117999       0.41222258      -0.36470573
C       -1.53149240      -0.31798026       0.19681005
C       -0.02651272       0.96644898       0.07049526
N        0.95164208       1.14279460      -0.80806591
N        1.92517042       0.28294756      -0.41274666
C        1.46247657      -0.55520472       0.50272759
N        0.26752651      -0.12644511       0.87317973
H       -2.14707024       1.08775705      -0.93528611
H       -1.35401028      -1.20394022      -0.41462991
H       -1.88110073      -0.63632141       1.17906487
H        2.83885414       0.30996540      -0.83098216
H        2.02569665      -1.36224444       0.94413898
12
Frame=10 idx=007320 GeodesicLength=0.6585053717561514 rxn_smarts="[O:1]([C:2]([c:3]1[n:4][n:5]([H:11])[c:6]([H:12])[n:7]1)([H:9])[H:10])[H:8]>>[O:1]([C:2]([N+:7]1=[C:3]=[N:4][N:5]([H:11])[C-:6]1[H:12])([H:9])[H:10])[H:8]"
O       -2.50001498       0.38299774      -0.44412822
C       -1.52452677      -0.31056135       0.21207984
C       -0.02905915       0.96634464       0.13255864
N        0.93373878       1.17996344      -0.75327302
N        1.91536074       0.30747834      -0.40726446
C        1.46167294      -0.57539064       0.47001416
N        0.27212719      -0.16424303       0.87378400
H       -2.09470514       1.06092336      -0.99573742
H       -1.37267128      -1.25281964      -0.31864391
H       -1.90976931      -0.53994840       1.20652521
H        2.82165019       0.35099334      -0.83968354
H        2.02619678      -1.40573781       0.86376872
12
Frame=11 idx=007320 GeodesicLength=0.7279890681537678 rxn_smarts="[O:1]([C:2]([c:3]1[n:4][n:5]([H:11])[c:6]([H:12])[n:7]1)([H:9])[H:10])[H:8]>>[O:1]([C:2]([N+:7]1=[C:3]=[N:4][N:5]([H:11])[C-:6]1[H:12])([H:9])[H:10])[H:8]"
O       -2.46173060       0.34790126      -0.52192369
C       -1.51726850      -0.30513062       0.22648263
C       -0.03171204       0.96380778       0.19343847
N        0.91653197       1.21550479      -0.69665435
N        1.90553108       0.33270910      -0.39953627
C        1.45992020      -0.59265172       0.43730210
N        0.27577599      -0.20079297       0.87259964
H       -2.03888902       1.03194222      -1.05127147
H       -1.39848182      -1.29702318      -0.21724275
H       -1.93597382      -0.44126115       1.22528507
H        2.80308188       0.39128179      -0.84784595
H        2.02321469      -1.44628730       0.77936656
12
Frame=12 idx=007320 GeodesicLength=0.7988928241377269 rxn_smarts="[O:1]([C:2]([c:3]1[n:4][n:5]([H:11])[c:6]([H:12])[n:7]1)([H:9])[H:10])[H:8]>>[O:1]([C:2]([N+:7]1=[C:3]=[N:4][N:5]([H:11])[C-:6]1[H:12])([H:9])[H:10])[H:8]"
O       -2.41662322       0.30695314      -0.59709479
C       -1.50992399      -0.30144180       0.24054918
C       -0.03427026       0.95864632       0.25228436
N        0.89987547       1.24819616      -0.63975850
N        1.89559950       0.35742874      -0.39068736
C        1.45734837      -0.60753881       0.40441310
N        0.27864204      -0.23620432       0.86936900
H       -1.98113729       1.00133028      -1.10105517
H       -1.43145910      -1.33450529      -0.11123330
H       -1.95966611      -0.34171037       1.23503870
H        2.78445768       0.43211898      -0.85347459
H        2.01715692      -1.48327304       0.69164937
12
Frame=13 idx=007320 GeodesicLength=0.8713948453150278 rxn_smarts="[O:1]([C:2]([c:3]1[n:4][n:5]([H:11])[c:6]([H:12])[n:7]1)([H:9])[H:10])[H:8]>>[O:1]([C:2]([N+:7]1=[C:3]=[N:4][N:5]([H:11])[C-:6]1[H:12])([H:9])[H:10])[H:8]"
O       -2.36484692       0.26033872      -0.66869411
C       -1.50269420      -0.29911088       0.25485707
C       -0.03649544       0.95092534       0.30901521
N        0.88363492       1.27762462      -0.58328334
N        1.88547510       0.38107322      -0.38134686
C        1.45390433      -0.62063415       0.37099234
N        0.28085804      -0.27070967       0.86409554
H       -1.92267349       0.96915971      -1.14496889
H       -1.47092205      -1.36322782      -0.00214173
H       -1.98105056      -0.24295223       1.23582440
H        2.76618333       0.47347132      -0.85614539
H        2.00862694      -1.51595817       0.60179575
12
Frame=14 idx=007320 GeodesicLength=0.9454965109430817 rxn_smarts="[O:1]([C:2]([c:3]1[n:4][n:5]([H:11])[c:6]([H:12])[n:7]1)([H:9])[H:10])[H:8]>>[O:1]([C:2]([N+:7]1=[C:3]=[N:4][N:5]([H:11])[C-:6]1[H:12])([H:9])[H:10])[H:8]"
O       -2.30612533       0.20728396      -0.73641687
C       -1.49537198      -0.29762747       0.26967473
C       -0.03832732       0.94128439       0.36353975
N        0.86758502       1.30336689      -0.52816571
N        1.87506047       0.40336643      -0.37149950
C        1.44965603      -0.63157449       0.33831157
N        0.28250662      -0.30333111       0.85786627
H       -1.86564318       0.93610316      -1.18213358
H       -1.51372482      -1.38160983       0.10776273
H       -2.00023966      -0.14652125       1.22770226
H        2.74815131       0.51411082      -0.85613347
H        1.99647284      -1.54485150       0.50949182
12
Frame=15 idx=007320 GeodesicLength=1.021562349840902 rxn_smarts="[O:1]([C:2]([c:3]1[n:4][n:5]([H:11])[c:6]([H:12])[n:7]1)([H:9])[H:10])[H:8]>>[O:1]([C:2]([N+:7]1=[C:3]=[N:4][N:5]([H:11])[C-:6]1[H:12])([H:9])[H:10])[H:8]"
O       -2.24075082       0.14924680      -0.79841622
C       -1.48828297      -0.29634255       0.28566150
C       -0.03951392       0.92990879       0.41675264
N        0.85154530       1.32586520      -0.47404310
N        1.86414335       0.42424059      -0.36150425
C        1.44440398      -0.64102071       0.30574399
N        0.28368194      -0.33466543       0.85086421
H       -1.80966847       0.90038547      -1.21448445
H       -1.55938956      -1.38893492       0.21610111
H       -2.01748825      -0.05327698       1.21168954
H        2.73012134       0.55405085      -0.85390366
H        1.98119809      -1.56945713       0.41553870
12
Frame=16 idx=007320 GeodesicLength=1.1000278148104992 rxn_smarts="[O:1]([C:2]([c:3]1[n:4][n:5]([H:11])[c:6]([H:12])[n:7]1)([H:9])[H:10])[H:8]>>[O:1]([C:2]([N+:7]1=[C:3]=[N:4][N:5]([H:11])[C-:6]1[H:12])([H:9])[H:10])[H:8]"
O       -2.16949305       0.08729226      -0.85309819
C       -1.48148543      -0.29459677       0.30303186
C       -0.03998210       0.91714388       0.46924039
N        0.83537660       1.34544694      -0.42069793
N        1.85251386       0.44377326      -0.35135837
C        1.43797656      -0.64898316       0.27355371
N        0.28435961      -0.36457420       0.84365701
H       -1.75417440       0.86043033      -1.24347436
H       -1.60642921      -1.38529030       0.32053364
H       -2.03248752       0.03624531       1.18880850
H        2.71176937       0.59297305      -0.84979839
H        1.96205570      -1.58986061       0.31960214
