15
Frame=0 idx=006963 GeodesicLength=0.0 rxn_smarts="[C:1]([C:2]1([C:3]([H:11])([H:12])[H:13])[N:4]([H:14])[C@:5]1([C:6]#[N:7])[H:15])([H:8])([H:9])[H:10]>>[C:1]1([H:8])([H:10])[C@@:2]([C:3]([H:11])([H:12])[H:13])([H:9])[N:4]([H:14])[C:5]([H:15])=[C:6]=[N:7]1"
C       -0.22474148       1.41826381       0.08395508
C       -0.48786154       0.06822384      -0.28538633
C       -1.26145513      -0.80727015       0.67642625
N        0.33441485      -0.58184387      -1.24336761
C        1.44121663      -0.98544926      -0.40109672
C        1.95667205       0.05542206       0.32559426
N        2.10743667       1.12354973       0.79596813
H       -0.76223975       1.86252762       0.91324442
H       -1.25872601       0.87107695      -0.81007867
H        0.32796129       2.06192309      -0.58520470
H       -1.39329807      -1.79422039       0.23820250
H       -0.73026045      -0.90307362       1.62242652
H       -2.24435966      -0.37938481       0.88261062
H        0.59256537       0.02008476      -2.01674664
H        1.60267523      -2.02982977      -0.19654715
15
Frame=1 idx=006963 GeodesicLength=0.08664419777368233 rxn_smarts="[C:1]([C:2]1([C:3]([H:11])([H:12])[H:13])[N:4]([H:14])[C@:5]1([C:6]#[N:7])[H:15])([H:8])([H:9])[H:10]>>[C:1]1([H:8])([H:10])[C@@:2]([C:3]([H:11])([H:12])[H:13])([H:9])[N:4]([H:14])[C:5]([H:15])=[C:6]=[N:7]1"
C       -0.21319857       1.41051461       0.09596567
C       -0.47528040       0.05689190      -0.27498314
C       -1.28251841      -0.81351453       0.66301498
N        0.34170299      -0.60170493      -1.23350941
C        1.44107351      -0.97625213      -0.37280964
C        1.98268745       0.08620131       0.30241207
N        2.12338613       1.17168031       0.73661610
H       -0.72486479       1.83537738       0.95185117
H       -1.24331777       0.87553233      -0.80868914
H        0.29900862       2.07882525      -0.58137659
H       -1.46447921      -1.77816338       0.19359174
H       -0.75289059      -0.96484543       1.60252191
H       -2.24638191      -0.35617279       0.89437023
H        0.59277275      -0.01027681      -2.01672934
H        1.62230020      -2.01409310      -0.15224661
15
Frame=2 idx=006963 GeodesicLength=0.17075008185539509 rxn_smarts="[C:1]([C:2]1([C:3]([H:11])([H:12])[H:13])[N:4]([H:14])[C@:5]1([C:6]#[N:7])[H:15])([H:8])([H:9])[H:10]>>[C:1]1([H:8])([H:10])[C@@:2]([C:3]([H:11])([H:12])[H:13])([H:9])[N:4]([H:14])[C:5]([H:15])=[C:6]=[N:7]1"
C       -0.20201274       1.40283358       0.10726192
C       -0.46305728       0.04536728      -0.26475093
C       -1.30271243      -0.81890696       0.64976189
N        0.34926183      -0.62222157      -1.22294721
C        1.44119871      -0.96609301      -0.34431074
C        2.00700751       0.11600620       0.27878181
N        2.13582897       1.21715192       0.67785588
H       -0.68664028       1.80775602       0.98869726
H       -1.22808450       0.87975981      -0.80785078
H        0.26978671       2.09517323      -0.57544292
H       -1.53388062      -1.75744789       0.14950492
H       -0.77610720      -1.02636599       1.58011841
H       -2.24612235      -0.33416909       0.90810971
H        0.59301297      -0.04194766      -2.01624231
H        1.64252070      -1.99689589      -0.10854691
15
Frame=3 idx=006963 GeodesicLength=0.2525273876228689 rxn_smarts="[C:1]([C:2]1([C:3]([H:11])([H:12])[H:13])[N:4]([H:14])[C@:5]1([C:6]#[N:7])[H:15])([H:8])([H:9])[H:10]>>[C:1]1([H:8])([H:10])[C@@:2]([C:3]([H:11])([H:12])[H:13])([H:9])[N:4]([H:14])[C:5]([H:15])=[C:6]=[N:7]1"
C       -0.19123703       1.39528354       0.11781589
C       -0.45122517       0.03372434      -0.25478596
C       -1.32192967      -0.82349982       0.63672135
N        0.35706821      -0.64329780      -1.21177939
C        1.44151374      -0.95503308      -0.31582041
C        2.02955575       0.14473734       0.25483530
N        2.14486555       1.25989021       0.62003655
H       -0.64780546       1.77982391       1.02357424
H       -1.21307870       0.88383579      -0.80762490
H        0.24046361       2.11101876      -0.56745332
H       -1.60104685      -1.73227847       0.10631225
H       -0.79977548      -1.08737215       1.55515113
H       -2.24359037      -0.31368373       0.92375613
H        0.59332913      -0.07482209      -2.01531922
H        1.66289274      -1.97832675      -0.06541962
15
Frame=4 idx=006963 GeodesicLength=0.3321524969662245 rxn_smarts="[C:1]([C:2]1([C:3]([H:11])([H:12])[H:13])[N:4]([H:14])[C@:5]1([C:6]#[N:7])[H:15])([H:8])([H:9])[H:10]>>[C:1]1([H:8])([H:10])[C@@:2]([C:3]([H:11])([H:12])[H:13])([H:9])[N:4]([H:14])[C:5]([H:15])=[C:6]=[N:7]1"
C       -0.18092590       1.38794158       0.12763880
C       -0.43984523       0.02203724      -0.24520408
C       -1.34014614      -0.82733688       0.62398284
N        0.36510612      -0.66484430      -1.20021726
C        1.44202261      -0.94316307      -0.28763085
C        2.05037256       0.17226765       0.23081512
N        2.15079381       1.29986378       0.56350323
H       -0.60866203       1.75181819       1.05638123
H       -1.19843631       0.88783858      -0.80808332
H        0.21120814       2.12641218      -0.55747865
H       -1.66556234      -1.70303565       0.06445077
H       -0.82378345      -1.14747348       1.52769699
H       -2.23901278      -0.29502331       0.94117625
H        0.59380731      -0.10878251      -2.01411739
H        1.68306363      -1.95852003      -0.02291367
15
Frame=5 idx=006963 GeodesicLength=0.40987744185280833 rxn_smarts="[C:1]([C:2]1([C:3]([H:11])([H:12])[H:13])[N:4]([H:14])[C@:5]1([C:6]#[N:7])[H:15])([H:8])([H:9])[H:10]>>[C:1]1([H:8])([H:10])[C@@:2]([C:3]([H:11])([H:12])[H:13])([H:9])[N:4]([H:14])[C:5]([H:15])=[C:6]=[N:7]1"
C       -0.17103071       1.38081909       0.13666768
C       -0.42881131       0.01039525      -0.23601828
C       -1.35701421      -0.83053786       0.61145846
N        0.37325330      -0.68666710      -1.18807178
C        1.44230702      -0.93055319      -0.25981542
C        2.06908969       0.19854582       0.20658913
N        2.15335849       1.33699839       0.50830424
H       -0.56921985       1.72371092       1.08677616
H       -1.18388406       0.89193902      -0.80910939
H        0.18209056       2.14144109      -0.54552335
H       -1.72674857      -1.67005647       0.02421499
H       -0.84794831      -1.20645212       1.49755346
H       -2.23196294      -0.27844217       0.95995649
H        0.59429309      -0.14357441      -2.01226592
H        1.70222782      -1.93756626       0.01928355
15
Frame=6 idx=006963 GeodesicLength=0.4860622218046838 rxn_smarts="[C:1]([C:2]1([C:3]([H:11])([H:12])[H:13])[N:4]([H:14])[C@:5]1([C:6]#[N:7])[H:15])([H:8])([H:9])[H:10]>>[C:1]1([H:8])([H:10])[C@@:2]([C:3]([H:11])([H:12])[H:13])([H:9])[N:4]([H:14])[C:5]([H:15])=[C:6]=[N:7]1"
C       -0.16158635       1.37392812       0.14501913
C       -0.41819664      -0.00119519      -0.22729574
C       -1.37285446      -0.83319042       0.59925207
N        0.38160523      -0.70877857      -1.17562249
C        1.44261146      -0.91721039      -0.23259689
C        2.08611167       0.22366619       0.18236044
N        2.15328169       1.37159260       0.45443005
H       -0.52973240       1.69563922       1.11502960
H       -1.16959802       0.89610192      -0.81082218
H        0.15323693       2.15605107      -0.53174424
H       -1.78500587      -1.63356393      -0.01429535
H       -0.87239409      -1.26426237       1.46483710
H       -2.22294760      -0.26411724       0.98030514
H        0.59502367      -0.17924349      -2.01013618
H        1.72044476      -1.91541752       0.06127955
15
Frame=7 idx=006963 GeodesicLength=0.5607880961656532 rxn_smarts="[C:1]([C:2]1([C:3]([H:11])([H:12])[H:13])[N:4]([H:14])[C@:5]1([C:6]#[N:7])[H:15])([H:8])([H:9])[H:10]>>[C:1]1([H:8])([H:10])[C@@:2]([C:3]([H:11])([H:12])[H:13])([H:9])[N:4]([H:14])[C:5]([H:15])=[C:6]=[N:7]1"
C       -0.15261804       1.36730876       0.15273065
C       -0.40799788      -0.01265430      -0.21910123
C       -1.38751832      -0.83529716       0.58734059
N        0.39008094      -0.73105464      -1.16292957
C        1.44284745      -0.90329022      -0.20617181
C        2.10137093       0.24744298       0.15841170
N        2.15070800       1.40358841       0.40185901
H       -0.49032849       1.66777315       1.14104999
H       -1.15562812       0.90048877      -0.81315876
H        0.12457732       2.17028158      -0.51613639
H       -1.83989392      -1.59409192      -0.05069272
H       -0.89685736      -1.32048219       1.42956681
H       -2.21206846      -0.25215763       1.00172486
H        0.59594281      -0.21557836      -2.00762057
H        1.73738315      -1.89227723       0.10312745
15
Frame=8 idx=006963 GeodesicLength=0.6344713368514681 rxn_smarts="[C:1]([C:2]1([C:3]([H:11])([H:12])[H:13])[N:4]([H:14])[C@:5]1([C:6]#[N:7])[H:15])([H:8])([H:9])[H:10]>>[C:1]1([H:8])([H:10])[C@@:2]([C:3]([H:11])([H:12])[H:13])([H:9])[N:4]([H:14])[C:5]([H:15])=[C:6]=[N:7]1"
C       -0.14409117       1.36098295       0.15986407
C       -0.39817811      -0.02396764      -0.21144301
C       -1.40107741      -0.83699191       0.57571214
N        0.39868859      -0.75347336      -1.15002162
C        1.44293205      -0.88884654      -0.18058325
C        2.11496841       0.27000010       0.13467635
N        2.14585139       1.43322307       0.35043180
H       -0.45102858       1.64011824       1.16496213
H       -1.14186328       0.90517177      -0.81612532
H        0.09617462       2.18418806      -0.49875642
H       -1.89150123      -1.55194174      -0.08494293
H       -0.92144286      -1.37507774       1.39178692
H       -2.19938633      -0.24267506       1.02414444
H        0.59709798      -0.25254386      -2.00476268
H        1.75285594      -1.86816633       0.14505738
15
Frame=9 idx=006963 GeodesicLength=0.7072556551468064 rxn_smarts="[C:1]([C:2]1([C:3]([H:11])([H:12])[H:13])[N:4]([H:14])[C@:5]1([C:6]#[N:7])[H:15])([H:8])([H:9])[H:10]>>[C:1]1([H:8])([H:10])[C@@:2]([C:3]([H:11])([H:12])[H:13])([H:9])[N:4]([H:14])[C:5]([H:15])=[C:6]=[N:7]1"
C       -0.13604704       1.35495070       0.16650281
C       -0.38875377      -0.03511700      -0.20434250
C       -1.41365577      -0.83830957       0.56434963
N        0.40744878      -0.77604003      -1.13697520
C        1.44293868      -0.87394978      -0.15590483
C        2.12715479       0.29138586       0.11112909
N        2.13901631       1.46060420       0.30014986
H       -0.41194824       1.61273241       1.18691557
H       -1.12838184       0.91019638      -0.81972072
H        0.06801704       2.19769913      -0.47964058
H       -1.93997903      -1.50737457      -0.11701679
H       -0.94614889      -1.42781713       1.35156219
H       -2.18513325      -0.23569189       1.04748706
H        0.59851241      -0.29018200      -2.00164906
H        1.76695982      -1.84308674       0.18715346
15
Frame=10 idx=006963 GeodesicLength=0.7793639385019354 rxn_smarts="[C:1]([C:2]1([C:3]([H:11])([H:12])[H:13])[N:4]([H:14])[C@:5]1([C:6]#[N:7])[H:15])([H:8])([H:9])[H:10]>>[C:1]1([H:8])([H:10])[C@@:2]([C:3]([H:11])([H:12])[H:13])([H:9])[N:4]([H:14])[C:5]([H:15])=[C:6]=[N:7]1"
C       -0.12831329       1.34914291       0.17254214
C       -0.37964890      -0.04606564      -0.19780811
C       -1.42505951      -0.83935842       0.55328922
N        0.41620123      -0.79848551      -1.12366394
C        1.44244537      -0.85859278      -0.13226866
C        2.13755346       0.31161036       0.08798246
N        2.13006147       1.48573338       0.25107381
H       -0.37315142       1.58561825       1.20649879
H       -1.11485939       0.91560369      -0.82379568
H        0.04049684       2.21068036      -0.45894525
H       -1.98495099      -1.46095523      -0.14634348
H       -0.97086238      -1.47838614       1.30897417
H       -2.16912727      -0.23147392       1.07121413
H        0.60016149      -0.32805422      -1.99791335
H        1.77905328      -1.81701710       0.22916374
15
Frame=11 idx=006963 GeodesicLength=0.8509501567515416 rxn_smarts="[C:1]([C:2]1([C:3]([H:11])([H:12])[H:13])[N:4]([H:14])[C@:5]1([C:6]#[N:7])[H:15])([H:8])([H:9])[H:10]>>[C:1]1([H:8])([H:10])[C@@:2]([C:3]([H:11])([H:12])[H:13])([H:9])[N:4]([H:14])[C:5]([H:15])=[C:6]=[N:7]1"
C       -0.12102327       1.34364191       0.17820495
C       -0.37090321      -0.05681727      -0.19184829
C       -1.43554519      -0.84013170       0.54249239
N        0.42505892      -0.82099001      -1.11028916
C        1.44178721      -0.84295171      -0.10968612
C        2.14667109       0.33071305       0.06517606
N        2.11942873       1.50880507       0.20305971
H       -0.33470041       1.55892337       1.22426446
H       -1.10155040       0.92149845      -0.82842259
H        0.01330443       2.22318221      -0.43665773
H       -2.02681143      -1.41292070      -0.17322182
H       -0.99563415      -1.52665980       1.26428120
H       -2.15184956      -0.22976653       1.09530581
H        0.60208042      -0.36643173      -1.99391148
H        1.78968683      -1.79009461       0.27125260
15
Frame=12 idx=006963 GeodesicLength=0.9221035622936394 rxn_smarts="[C:1]([C:2]1([C:3]([H:11])([H:12])[H:13])[N:4]([H:14])[C@:5]1([C:6]#[N:7])[H:15])([H:8])([H:9])[H:10]>>[C:1]1([H:8])([H:10])[C@@:2]([C:3]([H:11])([H:12])[H:13])([H:9])[N:4]([H:14])[C:5]([H:15])=[C:6]=[N:7]1"
C       -0.11412405       1.33842716       0.18347932
C       -0.36250927      -0.06734802      -0.18647819
C       -1.44512814      -0.84069759       0.53199058
N        0.43395505      -0.84341910      -1.09687850
C        1.44081827      -0.82707728      -0.08823250
C        2.15451416       0.34872623       0.04275277
N        2.10723763       1.52985809       0.15627989
H       -0.29671793       1.53267368       1.24015914
H       -1.08838385       0.92793481      -0.83353377
H       -0.01331294       2.23509875      -0.41293523
H       -2.06544075      -1.36383133      -0.19745027
H       -1.02039930      -1.57226194       1.21785573
H       -2.13348715      -0.23061893       1.11942067
H        0.60426761      -0.40510439      -1.98960553
H        1.79871065      -1.76236015       0.31317588
15
Frame=13 idx=006963 GeodesicLength=0.992951484815229 rxn_smarts="[C:1]([C:2]1([C:3]([H:11])([H:12])[H:13])[N:4]([H:14])[C@:5]1([C:6]#[N:7])[H:15])([H:8])([H:9])[H:10]>>[C:1]1([H:8])([H:10])[C@@:2]([C:3]([H:11])([H:12])[H:13])([H:9])[N:4]([H:14])[C:5]([H:15])=[C:6]=[N:7]1"
C       -0.10761554       1.33345496       0.18840237
C       -0.35442920      -0.07766250      -0.18166421
C       -1.45382683      -0.84106239       0.52176820
N        0.44289805      -0.86572404      -1.08338310
C        1.43954520      -0.81102971      -0.06791836
C        2.16112084       0.36567582       0.02082505
N        2.09354486       1.54894123       0.11064819
H       -0.25926185       1.50690910       1.25420335
H       -1.07533122       0.93493065      -0.83905790
H       -0.03938292       2.24629561      -0.38792231
H       -2.10102475      -1.31385522      -0.21897786
H       -1.04512009      -1.61517067       1.16979758
H       -2.11408542      -0.23389854       1.14334488
H        0.60674473      -0.44397375      -1.98487262
H        1.80622414      -1.73383055       0.35480674
15
Frame=14 idx=006963 GeodesicLength=1.0637746347965025 rxn_smarts="[C:1]([C:2]1([C:3]([H:11])([H:12])[H:13])[N:4]([H:14])[C@:5]1([C:6]#[N:7])[H:15])([H:8])([H:9])[H:10]>>[C:1]1([H:8])([H:10])[C@@:2]([C:3]([H:11])([H:12])[H:13])([H:9])[N:4]([H:14])[C:5]([H:15])=[C:6]=[N:7]1"
C       -0.10144203       1.32871331       0.19311301
C       -0.34664286      -0.08779129      -0.17739254
C       -1.46179561      -0.84129996       0.51174197
N        0.45189847      -0.88797868      -1.06978780
C        1.43795791      -0.79480856      -0.04868968
C        2.16663422       0.38174893      -0.00075491
N        2.07851949       1.56632758       0.06579545
H       -0.22215638       1.48151474       1.26667570
H       -1.06227123       0.94252374      -0.84495664
H       -0.06488742       2.25680112      -0.36151867
H       -2.13375269      -1.26326890      -0.23798997
H       -1.06996855      -1.65534237       1.12025295
H       -2.09382851      -0.23958054       1.16693727
H        0.60952720      -0.48316877      -1.97974868
H        1.81220799      -1.70439033       0.39632255
15
Frame=15 idx=006963 GeodesicLength=1.1346910613404113 rxn_smarts="[C:1]([C:2]1([C:3]([H:11])([H:12])[H:13])[N:4]([H:14])[C@:5]1([C:6]#[N:7])[H:15])([H:8])([H:9])[H:10]>>[C:1]1([H:8])([H:10])[C@@:2]([C:3]([H:11])([H:12])[H:13])([H:9])[N:4]([H:14])[C:5]([H:15])=[C:6]=[N:7]1"
C       -0.09562971       1.32414643       0.19765503
C       -0.33912926      -0.09774333      -0.17361115
C       -1.46911864      -0.84140764       0.50186465
N        0.46098056      -0.91019109      -1.05597008
C        1.43611661      -0.77841054      -0.03047014
C        2.17115162       0.39703435      -0.02215146
N        2.06220208       1.58208166       0.02175622
H       -0.18543092       1.45642511       1.27762467
H       -1.04918410       0.95073554      -0.85120003
H       -0.08980794       2.26645092      -0.33388875
H       -2.16393243      -1.21192088      -0.25457111
H       -1.09495096      -1.69284636       1.06916008
H       -2.07272177      -0.24766029       1.19018675
H        0.61255983      -0.52277533      -1.97413663
H        1.81689502      -1.67391856       0.43775195
15
Frame=16 idx=006963 GeodesicLength=1.2058824297110944 rxn_smarts="[C:1]([C:2]1([C:3]([H:11])([H:12])[H:13])[N:4]([H:14])[C@:5]1([C:6]#[N:7])[H:15])([H:8])([H:9])[H:10]>>[C:1]1([H:8])([H:10])[C@@:2]([C:3]([H:11])([H:12])[H:13])([H:9])[N:4]([H:14])[C:5]([H:15])=[C:6]=[N:7]1"
C       -0.09013787       1.31976501       0.20206230
C       -0.33185611      -0.10754429      -0.17030231
C       -1.47582192      -0.84142682       0.49213850
N        0.47014475      -0.93237861      -1.04192063
C        1.43399374      -0.76189034      -0.01328302
C        2.17468181       0.41160814      -0.04327956
N        2.04463723       1.59632762      -0.02148364
H       -0.14913583       1.43175892       1.28709333
H       -1.03599408       0.95957020      -0.85772480
H       -0.11407236       2.27521492      -0.30516447
H       -2.19170020      -1.16002063      -0.26863370
H       -1.12011348      -1.72771632       1.01658815
H       -2.05080026      -0.25806044       1.21295080
H        0.61589410      -0.56277719      -1.96798037
H        1.82028047      -1.64243018       0.47893942
