16
Frame=0 idx=000023 GeodesicLength=0.0 rxn_smarts="[O:1]([C:2]1([H:8])[C:3]([H:9])([H:10])[C:4]([H:11])([H:12])[C:5]([H:13])([H:14])[C:6]1([H:15])[H:16])[H:7]>>[C:2]1([H:8])=[C:6]([H:16])[C:5]([H:13])([H:14])[C:4]([H:11])([H:12])[C:3]1([H:9])[H:10].[O:1]([H:7])[H:15]"
O       -2.06686533       0.41862762       0.70785597
C       -0.80515575       0.25847892      -0.77298024
C       -0.16451107      -1.08789703      -0.64043199
C        0.92148963      -0.87095119       0.42125211
C        1.32617876       0.60035079       0.24398108
C        0.03111751       1.25336408      -0.21821657
H       -2.21683805      -0.30976232       1.32136084
H       -1.58319919       0.44226745      -1.50050913
H       -0.86288752      -1.89665972      -0.42973288
H        0.29498195      -1.29946773      -1.61495095
H        1.75464518      -1.56542763       0.31586123
H        0.49213479      -1.01873054       1.41525179
H        1.72076894       1.03115870       1.16524951
H        2.10949507       0.69604296      -0.51678906
H       -0.95901769       1.08147247       0.70301667
H        0.00766276       2.26713311      -0.60021841
16
Frame=1 idx=000023 GeodesicLength=0.04581550340733742 rxn_smarts="[O:1]([C:2]1([H:8])[C:3]([H:9])([H:10])[C:4]([H:11])([H:12])[C:5]([H:13])([H:14])[C:6]1([H:15])[H:16])[H:7]>>[C:2]1([H:8])=[C:6]([H:16])[C:5]([H:13])([H:14])[C:4]([H:11])([H:12])[C:3]1([H:9])[H:10].[O:1]([H:7])[H:15]"
O       -2.06636347       0.41673564       0.71918304
C       -0.80932208       0.25575805      -0.77206539
C       -0.16276310      -1.08923743      -0.64595599
C        0.92081833      -0.87310436       0.41831749
C        1.32257215       0.60000017       0.24760609
C        0.03001836       1.25269520      -0.22284334
H       -2.21214961      -0.30581270       1.33996579
H       -1.57998056       0.44164503      -1.50752185
H       -0.85961011      -1.89987907      -0.43633725
H        0.29763578      -1.29842251      -1.62038443
H        1.75647782      -1.56443893       0.31155113
H        0.48999613      -1.02629098       1.41076114
H        1.70827283       1.02949402       1.17331523
H        2.11190265       0.70088301      -0.50599874
H       -0.96367176       1.09977045       0.71219500
H        0.01616664       2.26020440      -0.62178792
16
Frame=2 idx=000023 GeodesicLength=0.09162870963036074 rxn_smarts="[O:1]([C:2]1([H:8])[C:3]([H:9])([H:10])[C:4]([H:11])([H:12])[C:5]([H:13])([H:14])[C:6]1([H:15])[H:16])[H:7]>>[C:2]1([H:8])=[C:6]([H:16])[C:5]([H:13])([H:14])[C:4]([H:11])([H:12])[C:3]1([H:9])[H:10].[O:1]([H:7])[H:15]"
O       -2.06555241       0.41496479       0.73071781
C       -0.81351169       0.25296193      -0.77125234
C       -0.16100173      -1.09060098      -0.65155178
C        0.92012712      -0.87526940       0.41533558
C        1.31883280       0.59964341       0.25125335
C        0.02880410       1.25196443      -0.22745314
H       -2.20721633      -0.30164758       1.35870511
H       -1.57658204       0.44093714      -1.51470020
H       -0.85631941      -1.90311512      -0.44301903
H        0.30034177      -1.29739972      -1.62586462
H        1.75833042      -1.56338851       0.30720480
H        0.48785264      -1.03392012       1.40618662
H        1.69553550       1.02777001       1.18136318
H        2.11414014       0.70579089      -0.49506209
H       -0.96840916       1.11841846       0.72126330
H        0.02462828       2.25289036      -0.64312655
16
Frame=3 idx=000023 GeodesicLength=0.13743182032765427 rxn_smarts="[O:1]([C:2]1([H:8])[C:3]([H:9])([H:10])[C:4]([H:11])([H:12])[C:5]([H:13])([H:14])[C:6]1([H:15])[H:16])[H:7]>>[C:2]1([H:8])=[C:6]([H:16])[C:5]([H:13])([H:14])[C:4]([H:11])([H:12])[C:3]1([H:9])[H:10].[O:1]([H:7])[H:15]"
O       -2.06444245       0.41333101       0.74244041
C       -0.81771806       0.25008980      -0.77054141
C       -0.15922666      -1.09198977      -0.65720464
C        0.91942380      -0.87744295       0.41231248
C        1.31497357       0.59927816       0.25490104
C        0.02747248       1.25117156      -0.23202602
H       -2.20210043      -0.29728298       1.37751401
H       -1.57297919       0.44014986      -1.52205299
H       -0.85301647      -1.90636575      -0.44975246
H        0.30309558      -1.29641443      -1.63137601
H        1.76020530      -1.56227923       0.30283524
H        0.48571644      -1.04159586       1.40153870
H        1.68260784       1.02598844       1.18935192
H        2.11619246       0.71075517      -0.48402924
H       -0.97322379       1.13738553       0.73024429
H        0.03301958       2.24522145      -0.66415532
16
Frame=4 idx=000023 GeodesicLength=0.1832296589962889 rxn_smarts="[O:1]([C:2]1([H:8])[C:3]([H:9])([H:10])[C:4]([H:11])([H:12])[C:5]([H:13])([H:14])[C:6]1([H:15])[H:16])[H:7]>>[C:2]1([H:8])=[C:6]([H:16])[C:5]([H:13])([H:14])[C:4]([H:11])([H:12])[C:3]1([H:9])[H:10].[O:1]([H:7])[H:15]"
O       -2.06301753       0.41183977       0.75435940
C       -0.82194820       0.24713777      -0.76993868
C       -0.15743825      -1.09340490      -0.66292372
C        0.91870582      -0.87962911       0.40924146
C        1.31098165       0.59890315       0.25856396
C        0.02601989       1.25031452      -0.23657411
H       -2.19674965      -0.29269133       1.39643510
H       -1.56917690       0.43927369      -1.52958157
H       -0.84969985      -1.90963494      -0.45655296
H        0.30589975      -1.29546175      -1.63692780
H        1.76210525      -1.56110670       0.29842929
H        0.48358351      -1.04933826       1.39680612
H        1.66944908       1.02414000       1.19730907
H        2.11806046       0.71578513      -0.47286484
H       -0.97811991       1.15668305       0.73912238
H        0.04134488       2.23718990      -0.68490311
16
Frame=5 idx=000023 GeodesicLength=0.22901216373324523 rxn_smarts="[O:1]([C:2]1([H:8])[C:3]([H:9])([H:10])[C:4]([H:11])([H:12])[C:5]([H:13])([H:14])[C:6]1([H:15])[H:16])[H:7]>>[C:2]1([H:8])=[C:6]([H:16])[C:5]([H:13])([H:14])[C:4]([H:11])([H:12])[C:3]1([H:9])[H:10].[O:1]([H:7])[H:15]"
O       -2.06128806       0.41050337       0.76645232
C       -0.82619496       0.24410640      -0.76944617
C       -0.15563761      -1.09484812      -0.66869390
C        0.91797971      -0.88182339       0.40612744
C        1.30686959       0.59851792       0.26222126
C        0.02444646       1.24939322      -0.24107859
H       -2.19122485      -0.28788931       1.41540698
H       -1.56515058       0.43831248      -1.53729412
H       -0.84637224      -1.91292091      -0.46339386
H        0.30874680      -1.29455823      -1.64250415
H        1.76403027      -1.55987187       0.29399806
H        0.48146314      -1.05712437       1.39199698
H        1.65610849       1.02222850       1.20519474
H        2.11973046       0.72087101      -0.46161587
H       -0.98308551       1.17627525       0.74792384
H        0.04957889       2.22882803      -0.70529496
16
Frame=6 idx=000023 GeodesicLength=0.27478594267793605 rxn_smarts="[O:1]([C:2]1([H:8])[C:3]([H:9])([H:10])[C:4]([H:11])([H:12])[C:5]([H:13])([H:14])[C:6]1([H:15])[H:16])[H:7]>>[C:2]1([H:8])=[C:6]([H:16])[C:5]([H:13])([H:14])[C:4]([H:11])([H:12])[C:3]1([H:9])[H:10].[O:1]([H:7])[H:15]"
O       -2.05925498       0.40933382       0.77871197
C       -0.83045880       0.24099352      -0.76906787
C       -0.15382416      -1.09632217      -0.67451261
C        0.91724897      -0.88402735       0.40297155
C        1.30263951       0.59812004       0.26586829
C        0.02274901       1.24840844      -0.24553700
H       -2.18553596      -0.28287457       1.43441684
H       -1.56089147       0.43726531      -1.54519520
H       -0.84303266      -1.91622599      -0.47026981
H        0.31163685      -1.29371113      -1.64810318
H        1.76598396      -1.55857741       0.28954345
H        0.47935954      -1.06495258       1.38711409
H        1.64259496       1.02024992       1.21300299
H        2.12119767       0.72600963      -0.45029451
H       -0.98811833       1.19615288       0.75665876
H        0.05770588       2.22015765      -0.72530778
16
Frame=7 idx=000023 GeodesicLength=0.3205505508185406 rxn_smarts="[O:1]([C:2]1([H:8])[C:3]([H:9])([H:10])[C:4]([H:11])([H:12])[C:5]([H:13])([H:14])[C:6]1([H:15])[H:16])[H:7]>>[C:2]1([H:8])=[C:6]([H:16])[C:5]([H:13])([H:14])[C:4]([H:11])([H:12])[C:3]1([H:9])[H:10].[O:1]([H:7])[H:15]"
O       -2.05691791       0.40834049       0.79113305
C       -0.83473921       0.23779937      -0.76880696
C       -0.15199765      -1.09782892      -0.68037731
C        0.91651486      -0.88624128       0.39977452
C        1.29829273       0.59770887       0.26950047
C        0.02092610       1.24735996      -0.24994669
H       -2.17969330      -0.27764651       1.45345285
H       -1.55638930       0.43613268      -1.55328698
H       -0.83968037      -1.91955307      -0.47717599
H        0.31456966      -1.29292553      -1.65372317
H        1.76796588      -1.55722421       0.28506767
H        0.47727428      -1.07282023       1.38215859
H        1.62891608       1.01820407       1.22072574
H        2.12245640       0.73119914      -0.43891074
H       -0.99321330       1.21630110       0.76533837
H        0.06571505       2.21119406      -0.74492343
16
Frame=8 idx=000023 GeodesicLength=0.3662838364293222 rxn_smarts="[O:1]([C:2]1([H:8])[C:3]([H:9])([H:10])[C:4]([H:11])([H:12])[C:5]([H:13])([H:14])[C:6]1([H:15])[H:16])[H:7]>>[C:2]1([H:8])=[C:6]([H:16])[C:5]([H:13])([H:14])[C:4]([H:11])([H:12])[C:3]1([H:9])[H:10].[O:1]([H:7])[H:15]"
O       -2.05429211       0.40753426       0.80368264
C       -0.83903016       0.23452023      -0.76866175
C       -0.15015995      -1.09936737      -0.68626985
C        0.91578541      -0.88845852       0.39654164
C        1.29384549       0.59728098       0.27309633
C        0.01897685       1.24624575      -0.25428706
H       -2.17376741      -0.27222679       1.47244161
H       -1.55162302       0.43491395      -1.56156801
H       -0.83631896      -1.92289392      -0.48408343
H        0.31753612      -1.29221382      -1.65934153
H        1.76997790      -1.55581000       0.28058055
H        0.47521734      -1.08069951       1.37713739
H        1.61513079       1.01608910       1.22832386
H        2.12349747       0.73642542      -0.42751631
H       -0.99835193       1.23668407       0.77399741
H        0.07357617       2.20197618      -0.76407350
16
Frame=9 idx=000023 GeodesicLength=0.41201330240455936 rxn_smarts="[O:1]([C:2]1([H:8])[C:3]([H:9])([H:10])[C:4]([H:11])([H:12])[C:5]([H:13])([H:14])[C:6]1([H:15])[H:16])[H:7]>>[C:2]1([H:8])=[C:6]([H:16])[C:5]([H:13])([H:14])[C:4]([H:11])([H:12])[C:3]1([H:9])[H:10].[O:1]([H:7])[H:15]"
O       -2.05136706       0.40692050       0.81637561
C       -0.84333888       0.23115591      -0.76864015
C       -0.14830919      -1.10094185      -0.69220235
C        0.91505646      -0.89068518       0.39326914
C        1.28928720       0.59683701       0.27666672
C        0.01690001       1.24506779      -0.25857296
H       -2.16771815      -0.26659646       1.49142879
H       -1.54659762       0.43360533      -1.57004036
H       -0.83294396      -1.92626020      -0.49101093
H        0.32054395      -1.29157444      -1.66497465
H        1.77201952      -1.55433806       0.27607682
H        0.47318231      -1.08860940       1.37204612
H        1.60119960       1.01390345       1.23582100
H        2.12432288       0.74169736      -0.41608314
H       -1.00353589       1.25731092       0.78263243
H        0.08129881       2.19250732      -0.78279209
16
Frame=10 idx=000023 GeodesicLength=0.45773810530820325 rxn_smarts="[O:1]([C:2]1([H:8])[C:3]([H:9])([H:10])[C:4]([H:11])([H:12])[C:5]([H:13])([H:14])[C:6]1([H:15])[H:16])[H:7]>>[C:2]1([H:8])=[C:6]([H:16])[C:5]([H:13])([H:14])[C:4]([H:11])([H:12])[C:3]1([H:9])[H:10].[O:1]([H:7])[H:15]"
O       -2.04812957       0.40650484       0.82921425
C       -0.84767187       0.22770120      -0.76874245
C       -0.14644542      -1.10255205      -0.69818130
C        0.91432580      -0.89292401       0.38995113
C        1.28460589       0.59637470       0.28022491
C        0.01469104       1.24382336      -0.26281364
H       -2.16150224      -0.26073270       1.51044234
H       -1.54131543       0.43219810      -1.57869693
H       -0.82955200      -1.92965443      -0.49797001
H        0.32359570      -1.29099820      -1.67062766
H        1.77409229      -1.55280206       0.27154325
H        0.47116715      -1.09656918       1.36687344
H        1.58708594       1.01163458       1.24324210
H        2.12492973       0.74702334      -0.40458287
H       -1.00876648       1.27819282       0.79123677
H        0.08888947       2.18277967      -0.80111333
16
Frame=11 idx=000023 GeodesicLength=0.5034584207631345 rxn_smarts="[O:1]([C:2]1([H:8])[C:3]([H:9])([H:10])[C:4]([H:11])([H:12])[C:5]([H:13])([H:14])[C:6]1([H:15])[H:16])[H:7]>>[C:2]1([H:8])=[C:6]([H:16])[C:5]([H:13])([H:14])[C:4]([H:11])([H:12])[C:3]1([H:9])[H:10].[O:1]([H:7])[H:15]"
O       -2.04459725       0.40629809       0.84217571
C       -0.85202261       0.22415713      -0.76897122
C       -0.14456807      -1.10419977      -0.70419288
C        0.91360016      -0.89517047       0.38659544
C        1.27981999       0.59589287       0.28374713
C        0.01235225       1.24251449      -0.26699448
H       -2.15519785      -0.25466436       1.52941706
H       -1.53576444       0.43069599      -1.58753413
H       -0.82614523      -1.93307499      -0.50494032
H        0.32668849      -1.29050177      -1.67628624
H        1.77619554      -1.55120819       0.26699753
H        0.46917702      -1.10454911       1.36163213
H        1.57284795       1.00928861       1.25054702
H        2.12531537       0.75239006      -0.39306657
H       -1.01402215       1.29929325       0.79985365
H        0.09632083       2.17283817      -0.81897983
16
Frame=12 idx=000023 GeodesicLength=0.549176366162912 rxn_smarts="[O:1]([C:2]1([H:8])[C:3]([H:9])([H:10])[C:4]([H:11])([H:12])[C:5]([H:13])([H:14])[C:6]1([H:15])[H:16])[H:7]>>[C:2]1([H:8])=[C:6]([H:16])[C:5]([H:13])([H:14])[C:4]([H:11])([H:12])[C:3]1([H:9])[H:10].[O:1]([H:7])[H:15]"
O       -2.04075722       0.40630009       0.85526411
C       -0.85639800       0.22051904      -0.76933049
C       -0.14267707      -1.10588570      -0.71024698
C        0.91287267      -0.89742712       0.38319684
C        1.27491644       0.59539027       0.28724567
C        0.00988132       1.24113835      -0.27112745
H       -2.14875129      -0.24836685       1.54839240
H       -1.52994702       0.42908961      -1.59654640
H       -0.82272007      -1.93652744      -0.51193938
H        0.32982677      -1.29007592      -1.68195915
H        1.77832601      -1.54955047       0.26243173
H        0.46720367      -1.11256607       1.35631168
H        1.55844442       1.00685914       1.25775738
H        2.12547792       0.75780432      -0.38150272
H       -1.01930208       1.32062083       0.80847468
H        0.10360353       2.16267791      -0.83642194
16
Frame=13 idx=000023 GeodesicLength=0.5949025224960844 rxn_smarts="[O:1]([C:2]1([H:8])[C:3]([H:9])([H:10])[C:4]([H:11])([H:12])[C:5]([H:13])([H:14])[C:6]1([H:15])[H:16])[H:7]>>[C:2]1([H:8])=[C:6]([H:16])[C:5]([H:13])([H:14])[C:4]([H:11])([H:12])[C:3]1([H:9])[H:10].[O:1]([H:7])[H:15]"
O       -2.03661553       0.40651930       0.86846908
C       -0.86079822       0.21678602      -0.76982259
C       -0.14077079      -1.10761110      -0.71634126
C        0.91214649      -0.89969415       0.37975812
C        1.26990012       0.59486485       0.29071540
C        0.00727715       1.23969601      -0.27521116
H       -2.14218235      -0.24184541       1.56734964
H       -1.52386248       0.42737868      -1.60572852
H       -0.81927401      -1.94001350      -0.51896285
H        0.33301146      -1.28972395      -1.68764561
H        1.78048567      -1.54783171       0.25785087
H        0.46524891      -1.12061483       1.35091625
H        1.54388709       1.00434443       1.26486668
H        2.12541633       0.76326070      -0.36990533
H       -1.02459684       1.34216484       0.81712403
H        0.11072700       2.15231982      -0.85343275
16
Frame=14 idx=000023 GeodesicLength=0.6406321574084618 rxn_smarts="[O:1]([C:2]1([H:8])[C:3]([H:9])([H:10])[C:4]([H:11])([H:12])[C:5]([H:13])([H:14])[C:6]1([H:15])[H:16])[H:7]>>[C:2]1([H:8])=[C:6]([H:16])[C:5]([H:13])([H:14])[C:4]([H:11])([H:12])[C:3]1([H:9])[H:10].[O:1]([H:7])[H:15]"
O       -2.03217571       0.40696354       0.88177850
C       -0.86522155       0.21295692      -0.77044751
C       -0.13884781      -1.10937657      -0.72247241
C        0.91142250      -0.90197028       0.37628109
C        1.26477465       0.59431552       0.29415045
C        0.00453966       1.23818734      -0.27924288
H       -2.13550951      -0.23510537       1.58626524
H       -1.51750775       0.42556061      -1.61506922
H       -0.81580418      -1.94353419      -0.52600650
H        0.33624237      -1.28944777      -1.69334214
H        1.78267200      -1.54605289       0.25325924
H        0.46331256      -1.12868813       1.34544708
H        1.52918626       1.00174452       1.27186564
H        2.12512702       0.76875512      -0.35828792
H       -1.02989276       1.36391098       0.82582545
H        0.11768226       2.14178064      -0.87000412
16
Frame=15 idx=000023 GeodesicLength=0.6863795642417346 rxn_smarts="[O:1]([C:2]1([H:8])[C:3]([H:9])([H:10])[C:4]([H:11])([H:12])[C:5]([H:13])([H:14])[C:6]1([H:15])[H:16])[H:7]>>[C:2]1([H:8])=[C:6]([H:16])[C:5]([H:13])([H:14])[C:4]([H:11])([H:12])[C:3]1([H:9])[H:10].[O:1]([H:7])[H:15]"
O       -2.02742673       0.40763074       0.89519549
C       -0.86967550       0.20902613      -0.77121172
C       -0.13690766      -1.11118363      -0.72865125
C        0.91069533      -0.90425873       0.37275981
C        1.25952605       0.59374076       0.29756349
C        0.00166669       1.23660978      -0.28323720
H       -2.12868039      -0.22811722       1.60518381
H       -1.51089207       0.42362586      -1.62456241
H       -0.81230694      -1.94709617      -0.53309115
H        0.33952730      -1.28924139      -1.69905731
H        1.78488499      -1.54420781       0.24864853
H        0.46138665      -1.13680374       1.33989298
H        1.51430011       0.99904935       1.27877672
H        2.12460954       0.77429697      -0.34661373
H       -1.03518904       1.38587179       0.83457219
H        0.12448166       2.13105730      -0.88616828
16
Frame=16 idx=000023 GeodesicLength=0.7321479975675201 rxn_smarts="[O:1]([C:2]1([H:8])[C:3]([H:9])([H:10])[C:4]([H:11])([H:12])[C:5]([H:13])([H:14])[C:6]1([H:15])[H:16])[H:7]>>[C:2]1([H:8])=[C:6]([H:16])[C:5]([H:13])([H:14])[C:4]([H:11])([H:12])[C:3]1([H:9])[H:10].[O:1]([H:7])[H:15]"
O       -2.02237591       0.40852665       0.90870669
C       -0.87415919       0.20499298      -0.77211749
C       -0.13494906      -1.11303300      -0.73487522
C        0.90996676      -0.90655863       0.36919705
C        1.25415928       0.59313917       0.30094889
C       -0.00134183       1.23496350      -0.28719319
H       -2.12171309      -0.22088462       1.62408529
H       -1.50401689       0.42157352      -1.63419918
H       -0.80878045      -1.95070072      -0.54021342
H        0.34286775      -1.28910773      -1.70478879
H        1.78712474      -1.54229769       0.24402489
H        0.45947114      -1.14495485       1.33425739
H        1.49924135       0.99625740       1.28559164
H        2.12386312       0.77988217      -0.33489592
H       -1.04047347       1.40803337       0.84339004
H        0.13111573       2.12016846      -0.90191868
