16
Frame=0 idx=011125 GeodesicLength=0.0 rxn_smarts="[C:1]([C:2]1([C:6]#[N:7])[C:3]([H:11])([H:12])[C:4]([H:13])([H:14])[C:5]1([H:15])[H:16])([H:8])([H:9])[H:10]>>[C:1]([C:2](=[C:5]([H:15])[H:16])[C:6]#[N:7])([H:8])([H:9])[H:10].[C:3](=[C:4]([H:13])[H:14])([H:11])[H:12]"
C        1.41449634       1.31907823       0.09600772
C        0.84018803       0.03761353      -0.42288811
C       -0.72360716      -0.55909032       0.88774235
C       -2.00559630      -0.42571039       0.32827421
C       -0.56934056      -0.04285509      -0.85765168
C        1.60811074      -1.12920188      -0.47981693
N        2.20088397      -2.12538092      -0.50618511
H        2.48765816       1.35427114      -0.09195699
H        1.28262119       1.46568436       1.18048747
H        0.96637323       2.18578741      -0.40039158
H       -0.36749644       0.18863845       1.58646612
H       -0.30025424      -1.54811112       1.01256771
H       -2.51530034      -1.28576422      -0.07741112
H       -2.57243655       0.48218562       0.46569980
H       -0.77483812      -0.83699596      -1.56445673
H       -0.97146193       0.91985120      -1.15648709
16
Frame=1 idx=011125 GeodesicLength=0.10296058223170317 rxn_smarts="[C:1]([C:2]1([C:6]#[N:7])[C:3]([H:11])([H:12])[C:4]([H:13])([H:14])[C:5]1([H:15])[H:16])([H:8])([H:9])[H:10]>>[C:1]([C:2](=[C:5]([H:15])[H:16])[C:6]#[N:7])([H:8])([H:9])[H:10].[C:3](=[C:4]([H:13])[H:14])([H:11])[H:12]"
C        1.41287843       1.31420068       0.09846715
C        0.83656530       0.03119864      -0.41532732
C       -0.73306017      -0.55242071       0.90382048
C       -2.00769726      -0.41503127       0.32562015
C       -0.56024572      -0.04755233      -0.87940069
C        1.61800699      -1.12970109      -0.48191784
N        2.22119250      -2.11858268      -0.51533293
H        2.47529871       1.37247853      -0.13882262
H        1.32874578       1.43380619       1.19031928
H        0.92813849       2.18391730      -0.35565085
H       -0.38803972       0.19001061       1.61398284
H       -0.31661827      -1.54377241       1.03547593
H       -2.52405898      -1.27639709      -0.06979614
H       -2.57526278       0.49273455       0.46475189
H       -0.75654606      -0.84677264      -1.58346568
H       -0.95929725       0.91188372      -1.19272367
16
Frame=2 idx=011125 GeodesicLength=0.20590145460701065 rxn_smarts="[C:1]([C:2]1([C:6]#[N:7])[C:3]([H:11])([H:12])[C:4]([H:13])([H:14])[C:5]1([H:15])[H:16])([H:8])([H:9])[H:10]>>[C:1]([C:2](=[C:5]([H:15])[H:16])[C:6]#[N:7])([H:8])([H:9])[H:10].[C:3](=[C:4]([H:13])[H:14])([H:11])[H:12]"
C        1.41044645       1.30912112       0.10086206
C        0.83271025       0.02419150      -0.40776958
C       -0.74243891      -0.54587868       0.92047549
C       -2.00925087      -0.40340585       0.32333855
C       -0.55062548      -0.05278022      -0.90156870
C        1.62842112      -1.13005242      -0.48434470
N        2.24283287      -2.11091525      -0.52550678
H        2.45972376       1.39092330      -0.18364842
H        1.37332940       1.40301256       1.19717826
H        0.89099934       2.17964835      -0.31054477
H       -0.40850341       0.19040384       1.64259747
H       -0.33364257      -1.53989616       1.05813165
H       -2.53322545      -1.26532310      -0.06190194
H       -2.57703877       0.50449415       0.46461349
H       -0.73768140      -0.85701010      -1.60280623
H       -0.94605632       0.90346695      -1.22910584
16
Frame=3 idx=011125 GeodesicLength=0.3088522429948132 rxn_smarts="[C:1]([C:2]1([C:6]#[N:7])[C:3]([H:11])([H:12])[C:4]([H:13])([H:14])[C:5]1([H:15])[H:16])([H:8])([H:9])[H:10]>>[C:1]([C:2](=[C:5]([H:15])[H:16])[C:6]#[N:7])([H:8])([H:9])[H:10].[C:3](=[C:4]([H:13])[H:14])([H:11])[H:12]"
C        1.40717836       1.30380941       0.10315331
C        0.82858507       0.01653105      -0.40017787
C       -0.75177061      -0.53951240       0.93777551
C       -2.01019927      -0.39083018       0.32144039
C       -0.54046667      -0.05853655      -0.92414615
C        1.63932646      -1.13026532      -0.48706611
N        2.26581660      -2.10229233      -0.53671118
H        2.44108524       1.40948880      -0.22646351
H        1.41626326       1.37347228       1.20123099
H        0.85494203       2.17298596      -0.26538663
H       -0.42897917       0.18972629       1.67238836
H       -0.35139230      -1.53654157       1.08056980
H       -2.54274171      -1.25246522      -0.05381199
H       -2.57770081       0.51746265       0.46529402
H       -0.71821559      -0.86766139      -1.62252388
H       -0.93173090       0.89462850      -1.26556504
16
Frame=4 idx=011125 GeodesicLength=0.41184515261095744 rxn_smarts="[C:1]([C:2]1([C:6]#[N:7])[C:3]([H:11])([H:12])[C:4]([H:13])([H:14])[C:5]1([H:15])[H:16])([H:8])([H:9])[H:10]>>[C:1]([C:2](=[C:5]([H:15])[H:16])[C:6]#[N:7])([H:8])([H:9])[H:10].[C:3](=[C:4]([H:13])[H:14])([H:11])[H:12]"
C        1.40305291       1.29822814       0.10530583
C        0.82414189       0.00816615      -0.39253811
C       -0.76108634      -0.53335408       0.95579321
C       -2.01048002      -0.37731762       0.31994522
C       -0.52976341      -0.06481389      -0.94712830
C        1.65068508      -1.13034495      -0.49005945
N        2.29014607      -2.09262707      -0.54896419
H        2.41951968       1.42805460      -0.26725368
H        1.45748368       1.34531379       1.20263064
H        0.81999017       2.16394096      -0.22048787
H       -0.44958752       0.18792669       1.70341126
H       -0.36992712      -1.53373125       1.10284371
H       -2.55251901      -1.23777704      -0.04559889
H       -2.57719535       0.53160995       0.46680127
H       -0.69813138      -0.87867531      -1.64266587
H       -0.91632933       0.88540093      -1.30203477
16
Frame=5 idx=011125 GeodesicLength=0.5149291304001227 rxn_smarts="[C:1]([C:2]1([C:6]#[N:7])[C:3]([H:11])([H:12])[C:4]([H:13])([H:14])[C:5]1([H:15])[H:16])([H:8])([H:9])[H:10]>>[C:1]([C:2](=[C:5]([H:15])[H:16])[C:6]#[N:7])([H:8])([H:9])[H:10].[C:3](=[C:4]([H:13])[H:14])([H:11])[H:12]"
C        1.39805281       1.29229725       0.10733238
C        0.81934908      -0.00092911      -0.38484334
C       -0.77038266      -0.52737650       0.97463527
C       -2.01004438      -0.36287457       0.31887282
C       -0.51851358      -0.07160200      -0.97050747
C        1.66245413      -1.13023650      -0.49333939
N        2.31577732      -2.08166523      -0.56236660
H        2.39532938       1.44631101      -0.30590315
H        1.49689860       1.31846466       1.20162226
H        0.78602681       2.15254784      -0.17635603
H       -0.47045816       0.18504012       1.73575265
H       -0.38924517      -1.53141946       1.12505705
H       -2.56243588      -1.22125875      -0.03731173
H       -2.57552306       0.54691366       0.46912882
H       -0.67736150      -0.89000089      -1.66330132
H       -0.89992374       0.87578847      -1.33847223
16
Frame=6 idx=011125 GeodesicLength=0.6181121373388938 rxn_smarts="[C:1]([C:2]1([C:6]#[N:7])[C:3]([H:11])([H:12])[C:4]([H:13])([H:14])[C:5]1([H:15])[H:16])([H:8])([H:9])[H:10]>>[C:1]([C:2](=[C:5]([H:15])[H:16])[C:6]#[N:7])([H:8])([H:9])[H:10].[C:3](=[C:4]([H:13])[H:14])([H:11])[H:12]"
C        1.39218285       1.28598567       0.10917715
C        0.81415579      -0.01081686      -0.37711597
C       -0.77970401      -0.52159771       0.99435023
C       -2.00881284      -0.34755043       0.31825103
C       -0.50670420      -0.07888071      -0.99428777
C        1.67457133      -1.12999490      -0.49686308
N        2.34268043      -2.06941528      -0.57687454
H        2.36856885       1.46419766      -0.34257335
H        1.53452135       1.29303968       1.19830807
H        0.75311210       2.13890505      -0.13300008
H       -0.49175370       0.18107190       1.76939215
H       -0.40940256      -1.52959618       1.14729444
H       -2.57236669      -1.20291664      -0.02901486
H       -2.57263917       0.56328453       0.47225590
H       -0.65591093      -0.90156428      -1.68448421
H       -0.88249860       0.86584849      -1.37481512
16
Frame=7 idx=011125 GeodesicLength=0.7214048254271308 rxn_smarts="[C:1]([C:2]1([C:6]#[N:7])[C:3]([H:11])([H:12])[C:4]([H:13])([H:14])[C:5]1([H:15])[H:16])([H:8])([H:9])[H:10]>>[C:1]([C:2](=[C:5]([H:15])[H:16])[C:6]#[N:7])([H:8])([H:9])[H:10].[C:3](=[C:4]([H:13])[H:14])([H:11])[H:12]"
C        1.38544166       1.27922660       0.11081510
C        0.80852818      -0.02154062      -0.36938808
C       -0.78906752      -0.51599187       1.01500511
C       -2.00671041      -0.33139036       0.31811465
C       -0.49433055      -0.08663144      -1.01847072
C        1.68697562      -1.12963442      -0.50061592
N        2.37078936      -2.05575080      -0.59251783
H        2.33939859       1.48152141      -0.37730081
H        1.57031172       1.26900692       1.19284695
H        0.72123549       2.12310434      -0.09060847
H       -0.51364007       0.17609589       1.80433234
H       -0.43040509      -1.52819693       1.16967138
H       -2.58216402      -1.18278927      -0.02075160
H       -2.56852916       0.58064004       0.47616576
H       -0.63374531      -0.91329098      -1.70628998
H       -0.86408849       0.85562149      -1.41100789
16
Frame=8 idx=011125 GeodesicLength=0.8248440905996177 rxn_smarts="[C:1]([C:2]1([C:6]#[N:7])[C:3]([H:11])([H:12])[C:4]([H:13])([H:14])[C:5]1([H:15])[H:16])([H:8])([H:9])[H:10]>>[C:1]([C:2](=[C:5]([H:15])[H:16])[C:6]#[N:7])([H:8])([H:9])[H:10].[C:3](=[C:4]([H:13])[H:14])([H:11])[H:12]"
C        1.37784997       1.27196291       0.11222187
C        0.80241896      -0.03312325      -0.36172137
C       -0.79848811      -0.51051920       1.03666994
C       -2.00367786      -0.31447649       0.31850700
C       -0.48139527      -0.09481204      -1.04306553
C        1.69958664      -1.12917626      -0.50460431
N        2.40001448      -2.04059185      -0.60931419
H        2.30805449       1.49810027      -0.41007286
H        1.60423995       1.24631630       1.18539269
H        0.69040601       2.10527587      -0.04937832
H       -0.53629517       0.17021860       1.84055784
H       -0.45224668      -1.52713304       1.19231575
H       -2.59164952      -1.16097305      -0.01254818
H       -2.56321997       0.59885226       0.48084812
H       -0.61084973      -0.92508349      -1.72880081
H       -0.84474820       0.84516244      -1.44700764
16
Frame=9 idx=011125 GeodesicLength=0.9285378805057471 rxn_smarts="[C:1]([C:2]1([C:6]#[N:7])[C:3]([H:11])([H:12])[C:4]([H:13])([H:14])[C:5]1([H:15])[H:16])([H:8])([H:9])[H:10]>>[C:1]([C:2](=[C:5]([H:15])[H:16])[C:6]#[N:7])([H:8])([H:9])[H:10].[C:3](=[C:4]([H:13])[H:14])([H:11])[H:12]"
C        1.36944747       1.26407625       0.11340568
C        0.79582023      -0.04558557      -0.35415265
C       -0.80794664      -0.50504308       1.05947495
C       -1.99971519      -0.29683845       0.31946299
C       -0.46788237      -0.10342281      -1.06805080
C        1.71233571      -1.12859579      -0.50885505
N        2.43025769      -2.02363153      -0.62745846
H        2.27500220       1.51360142      -0.44081970
H        1.63621685       1.22464376       1.17616050
H        0.66040777       2.08557829      -0.00971403
H       -0.55993158       0.16362168       1.87818333
H       -0.47485676      -1.52625614       1.21539624
H       -2.60067336      -1.13760117      -0.00443635
H       -2.55684000       0.61785857       0.48629525
H       -0.58706700      -0.93686756      -1.75212751
H       -0.82457503       0.83446212      -1.48276440
16
Frame=10 idx=011125 GeodesicLength=1.0324051079244192 rxn_smarts="[C:1]([C:2]1([C:6]#[N:7])[C:3]([H:11])([H:12])[C:4]([H:13])([H:14])[C:5]1([H:15])[H:16])([H:8])([H:9])[H:10]>>[C:1]([C:2](=[C:5]([H:15])[H:16])[C:6]#[N:7])([H:8])([H:9])[H:10].[C:3](=[C:4]([H:13])[H:14])([H:11])[H:12]"
C        1.36023477       1.25554244       0.11431814
C        0.78868013      -0.05897062      -0.34680093
C       -0.81745010      -0.49957842       1.08339780
C       -1.99469908      -0.27859973       0.32103987
C       -0.45380758      -0.11238579      -1.09347503
C        1.72513289      -1.12797574      -0.51335681
N        2.46133655      -2.00499394      -0.64670836
H        2.24016401       1.52805672      -0.46969112
H        1.66630388       1.20409553       1.16520481
H        0.63142424       2.06408992       0.02859721
H       -0.58466554       0.15638267       1.91702654
H       -0.49823755      -1.52549649       1.23900963
H       -2.60902264      -1.11277646       0.00358178
H       -2.54932944       0.63747294       0.49246409
H       -0.56248328      -0.94850892      -1.77635700
H       -0.80358126       0.82364588      -1.51825064
16
Frame=11 idx=011125 GeodesicLength=1.1364852155050882 rxn_smarts="[C:1]([C:2]1([C:6]#[N:7])[C:3]([H:11])([H:12])[C:4]([H:13])([H:14])[C:5]1([H:15])[H:16])([H:8])([H:9])[H:10]>>[C:1]([C:2](=[C:5]([H:15])[H:16])[C:6]#[N:7])([H:8])([H:9])[H:10].[C:3](=[C:4]([H:13])[H:14])([H:11])[H:12]"
C        1.35022711       1.24629257       0.11493807
C        0.78097508      -0.07329307      -0.33976499
C       -0.82697934      -0.49404784       1.10848580
C       -1.98857716      -0.25983501       0.32329946
C       -0.43916730      -0.12165347      -1.11936040
C        1.73790121      -1.12733371      -0.51814041
N        2.49309092      -1.98456999      -0.66698485
H        2.20377663       1.54130252      -0.49673732
H        1.69446807       1.18447554       1.15265848
H        0.60339386       2.04092666       0.06546458
H       -0.61065647       0.14864286       1.95704169
H       -0.52231998      -1.52473141       1.26328269
H       -2.61651291      -1.08664091       0.01150215
H       -2.54073872       0.65757613       0.49934911
H       -0.53704440      -0.95989426      -1.80160335
H       -0.78183662       0.81278338      -1.55343069
16
Frame=12 idx=011125 GeodesicLength=1.240795413206654 rxn_smarts="[C:1]([C:2]1([C:6]#[N:7])[C:3]([H:11])([H:12])[C:4]([H:13])([H:14])[C:5]1([H:15])[H:16])([H:8])([H:9])[H:10]>>[C:1]([C:2](=[C:5]([H:15])[H:16])[C:6]#[N:7])([H:8])([H:9])[H:10].[C:3](=[C:4]([H:13])[H:14])([H:11])[H:12]"
C        1.33947691       1.23627148       0.11525207
C        0.77268833      -0.08854575      -0.33315056
C       -0.83649058      -0.48835906       1.13478100
C       -1.98130671      -0.24065750       0.32628684
C       -0.42396553      -0.13114727      -1.14572328
C        1.75056136      -1.12668378      -0.52327236
N        2.52528226      -1.96240385      -0.68813693
H        2.16606147       1.55322605      -0.52204079
H        1.72071153       1.16560221       1.13864998
H        0.57626301       2.01624548       0.10083416
H       -0.63805576       0.14057072       1.99818815
H       -0.54699803      -1.52382338       1.28834839
H       -2.62294105      -1.05941223       0.01931168
H       -2.53117010       0.67799260       0.50692766
H       -0.51069612      -0.97085497      -1.82800362
H       -0.75942099       0.80197925      -1.58825241
16
Frame=13 idx=011125 GeodesicLength=1.3453710511658468 rxn_smarts="[C:1]([C:2]1([C:6]#[N:7])[C:3]([H:11])([H:12])[C:4]([H:13])([H:14])[C:5]1([H:15])[H:16])([H:8])([H:9])[H:10]>>[C:1]([C:2](=[C:5]([H:15])[H:16])[C:6]#[N:7])([H:8])([H:9])[H:10].[C:3](=[C:4]([H:13])[H:14])([H:11])[H:12]"
C        1.32800439       1.22541772       0.11524231
C        0.76380037      -0.10474356      -0.32708794
C       -0.84594100      -0.48244487       1.16230637
C       -1.97283368      -0.22114726       0.33008710
C       -0.40821011      -0.14080990      -1.17260287
C        1.76303115      -1.12606643      -0.52877338
N        2.55768760      -1.93841793      -0.71003967
H        2.12724048       1.56373111      -0.54556839
H        1.74498176       1.14733293       1.12328002
H        0.54999289       1.99013430       0.13460644
H       -0.66698715       0.13226659       2.04037736
H       -0.57219678      -1.52265439       1.31430269
H       -2.62811931      -1.03124593       0.02706365
H       -2.52065635       0.69860788       0.51520295
H       -0.48338698      -0.98126513      -1.85567630
H       -0.73640730       0.79130487      -1.62272035
16
Frame=14 idx=011125 GeodesicLength=1.4502414670409831 rxn_smarts="[C:1]([C:2]1([C:6]#[N:7])[C:3]([H:11])([H:12])[C:4]([H:13])([H:14])[C:5]1([H:15])[H:16])([H:8])([H:9])[H:10]>>[C:1]([C:2](=[C:5]([H:15])[H:16])[C:6]#[N:7])([H:8])([H:9])[H:10].[C:3](=[C:4]([H:13])[H:14])([H:11])[H:12]"
C        1.31584048       1.21371230       0.11487863
C        0.75429045      -0.12186254      -0.32170105
C       -0.85526413      -0.47623132       1.19107725
C       -1.96311940      -0.20141310       0.33476334
C       -0.39192267      -0.15055470      -1.20004947
C        1.77523048      -1.12549223      -0.53470557
N        2.59003866      -1.91273735      -0.73241837
H        2.08753825       1.57279987      -0.56741757
H        1.76728285       1.12949038       1.10665990
H        0.52453467       1.96273367       0.16676250
H       -0.69756797       0.12383819       2.08353817
H       -0.59780566      -1.52110594       1.34123151
H       -2.63186094      -1.00236443       0.03479007
H       -2.50927128       0.71925642       0.52418626
H       -0.45504759      -0.99094305      -1.88477394
H       -0.71289620       0.78087383      -1.65682166
16
Frame=15 idx=011125 GeodesicLength=1.5554503953289154 rxn_smarts="[C:1]([C:2]1([C:6]#[N:7])[C:3]([H:11])([H:12])[C:4]([H:13])([H:14])[C:5]1([H:15])[H:16])([H:8])([H:9])[H:10]>>[C:1]([C:2](=[C:5]([H:15])[H:16])[C:6]#[N:7])([H:8])([H:9])[H:10].[C:3](=[C:4]([H:13])[H:14])([H:11])[H:12]"
C        1.30300371       1.20114754       0.11412207
C        0.74413812      -0.13986405      -0.31714194
C       -0.86436715      -0.46966136       1.22110320
C       -1.95212144      -0.18155141       0.34039216
C       -0.37512099      -0.16028643      -1.22812431
C        1.78708779      -1.12494683      -0.54115381
N        2.62203054      -1.88556911      -0.75490897
H        2.04717413       1.58044874      -0.58764088
H        1.78759928       1.11192933       1.08888273
H        0.49980301       1.93417308       0.19725687
H       -0.72988067       0.11534560       2.12759145
H       -0.62368162      -1.51908330       1.36918300
H       -2.63399036      -0.97297696       0.04253903
H       -2.49707515       0.73979666       0.53391273
H       -0.42560019      -0.99970075      -1.91544990
H       -0.68899901       0.77079925      -1.69056340
16
Frame=16 idx=011125 GeodesicLength=1.6610661167018017 rxn_smarts="[C:1]([C:2]1([C:6]#[N:7])[C:3]([H:11])([H:12])[C:4]([H:13])([H:14])[C:5]1([H:15])[H:16])([H:8])([H:9])[H:10]>>[C:1]([C:2](=[C:5]([H:15])[H:16])[C:6]#[N:7])([H:8])([H:9])[H:10].[C:3](=[C:4]([H:13])[H:14])([H:11])[H:12]"
C        1.28949923       1.18771278       0.11293971
C        0.73331990      -0.15872230      -0.31354640
C       -0.87316572      -0.46268956       1.25239789
C       -1.93980114      -0.16162418       0.34706124
C       -0.35781912      -0.16993286      -1.25688679
C        1.79852655      -1.12444813      -0.54812812
N        2.65342054      -1.85705372      -0.77724539
H        2.00632654       1.58668735      -0.60629624
H        1.80588179       1.09453830       1.07004443
H        0.47571264       1.90455493       0.22602431
H       -0.76400193       0.10680299       2.17244696
H       -0.64971097      -1.51651093       1.39818706
H       -2.63436458      -0.94324197       0.05038518
H       -2.48408909       0.76014261       0.54442466
H       -0.39493235      -1.00737930      -1.94782910
H       -0.66480228       0.76116398      -1.72397940
