16
Frame=0 idx=007558 GeodesicLength=0.0 rxn_smarts="[C:1]([C@@:2]1([C:3]([C:4]#[C:5][H:13])([H:11])[H:12])[C:6]([H:14])([H:15])[N:7]1[H:16])([H:8])([H:9])[H:10]>>[C:1]([C+:2]([C:3]([C:4]#[C:5][H:13])([H:11])[H:12])[N:7]([C-:6]([H:14])[H:15])[H:16])([H:8])([H:9])[H:10]"
C       -0.53976912       1.69161122       0.03836731
C       -0.57018160       0.22000656      -0.20677989
C        0.51391766      -0.40509185      -1.04846864
C        1.84676522      -0.36690752      -0.44407457
C        2.93325714      -0.31540745       0.05714313
C       -1.11287556      -1.37930034       1.01358277
N       -1.66374298      -0.47990228       0.14257929
H        0.19388711       2.20291578      -0.58555241
H       -0.29141772       1.90726561       1.08325724
H       -1.53214839       2.12186527      -0.14250943
H        0.57221873       0.13321898      -2.00674231
H        0.24443167      -1.44021423      -1.26137067
H        3.89723793      -0.28044095       0.50620137
H       -1.31273508      -2.44210586       0.91958670
H       -0.55523771      -1.00826583       1.86051208
H       -2.62360727      -0.15924708       0.07426806
16
Frame=1 idx=007558 GeodesicLength=0.04762930189685174 rxn_smarts="[C:1]([C@@:2]1([C:3]([C:4]#[C:5][H:13])([H:11])[H:12])[C:6]([H:14])([H:15])[N:7]1[H:16])([H:8])([H:9])[H:10]>>[C:1]([C+:2]([C:3]([C:4]#[C:5][H:13])([H:11])[H:12])[N:7]([C-:6]([H:14])[H:15])[H:16])([H:8])([H:9])[H:10]"
C       -0.54739771       1.68893364       0.03696042
C       -0.56827463       0.21624198      -0.20460186
C        0.51175445      -0.40291052      -1.05545816
C        1.84529675      -0.37576138      -0.45154878
C        2.93077246      -0.32755372       0.05227866
C       -1.09586623      -1.37215441       1.01320663
N       -1.66368086      -0.48912976       0.13500151
H        0.23004244       2.20253355      -0.52972723
H       -0.37473146       1.90669107       1.09644703
H       -1.51951449       2.12597115      -0.22071715
H        0.56945760       0.14312764      -2.00889275
H        0.24037538      -1.43588738      -1.27846932
H        3.89275780      -0.29263643       0.50567103
H       -1.29975908      -2.43489104       0.92985179
H       -0.53393472      -1.00736496       1.85976028
H       -2.61729769      -0.14520942       0.12023790
16
Frame=2 idx=007558 GeodesicLength=0.09463101817505394 rxn_smarts="[C:1]([C@@:2]1([C:3]([C:4]#[C:5][H:13])([H:11])[H:12])[C:6]([H:14])([H:15])[N:7]1[H:16])([H:8])([H:9])[H:10]>>[C:1]([C+:2]([C:3]([C:4]#[C:5][H:13])([H:11])[H:12])[N:7]([C-:6]([H:14])[H:15])[H:16])([H:8])([H:9])[H:10]"
C       -0.55303313       1.68592080       0.03608899
C       -0.56566572       0.21210874      -0.20084183
C        0.50867081      -0.40176564      -1.06213324
C        1.84361106      -0.38629352      -0.46045336
C        2.92882052      -0.34263654       0.04445832
C       -1.08065573      -1.36551524       1.01261070
N       -1.66410911      -0.49679649       0.12896876
H        0.26424712       2.19958289      -0.47161440
H       -0.45566309       1.90693167       1.10427497
H       -1.49941857       2.12951974      -0.29519686
H        0.56498810       0.15182639      -2.01070487
H        0.23439738      -1.43219862      -1.29488882
H        3.88520336      -0.29254155       0.50824636
H       -1.29020596      -2.42757526       0.93860608
H       -0.51259754      -1.00964702       1.85858686
H       -2.60858952      -0.13092036       0.16399232
16
Frame=3 idx=007558 GeodesicLength=0.14105151670280297 rxn_smarts="[C:1]([C@@:2]1([C:3]([C:4]#[C:5][H:13])([H:11])[H:12])[C:6]([H:14])([H:15])[N:7]1[H:16])([H:8])([H:9])[H:10]>>[C:1]([C+:2]([C:3]([C:4]#[C:5][H:13])([H:11])[H:12])[N:7]([C-:6]([H:14])[H:15])[H:16])([H:8])([H:9])[H:10]"
C       -0.56033179       1.68357408       0.03503992
C       -0.56330765       0.20851569      -0.19624354
C        0.50607943      -0.39928739      -1.06731219
C        1.84228708      -0.39286659      -0.46790278
C        2.92717201      -0.35251528       0.03803638
C       -1.06585720      -1.35844835       1.01245651
N       -1.66466158      -0.50411571       0.12352401
H        0.29195081       2.19685066      -0.41204031
H       -0.53822579       1.90875653       1.10637976
H       -1.47633167       2.13164849      -0.36750901
H        0.56030915       0.16106266      -2.01144254
H        0.23028186      -1.42762338      -1.30880525
H        3.88144773      -0.30453666       0.50635920
H       -1.28080317      -2.41973572       0.94781137
H       -0.49155450      -1.01191724       1.85782526
H       -2.59845473      -0.11936180       0.20382322
16
Frame=4 idx=007558 GeodesicLength=0.18674850427992382 rxn_smarts="[C:1]([C@@:2]1([C:3]([C:4]#[C:5][H:13])([H:11])[H:12])[C:6]([H:14])([H:15])[N:7]1[H:16])([H:8])([H:9])[H:10]>>[C:1]([C+:2]([C:3]([C:4]#[C:5][H:13])([H:11])[H:12])[N:7]([C-:6]([H:14])[H:15])[H:16])([H:8])([H:9])[H:10]"
C       -0.56599533       1.68096286       0.03457574
C       -0.56071157       0.20463878      -0.19087981
C        0.50288936      -0.39777636      -1.07217116
C        1.84079556      -0.40039240      -0.47607953
C        2.92576470      -0.36379555       0.03008219
C       -1.05285807      -1.35161163       1.01231945
N       -1.66583499      -0.51030993       0.11901262
H        0.31708512       2.19211141      -0.35121755
H       -0.61731274       1.91074950       1.10373065
H       -1.44719960       2.13361727      -0.43468172
H        0.55459447       0.16893731      -2.01203743
H        0.22501273      -1.42392471      -1.32181673
H        3.87600521      -0.30725568       0.50567363
H       -1.27398161      -2.41182222       0.95607192
H       -0.47089787      -1.01619157       1.85669030
H       -2.58735539      -0.10793709       0.24072744
16
Frame=5 idx=007558 GeodesicLength=0.2318543201021127 rxn_smarts="[C:1]([C@@:2]1([C:3]([C:4]#[C:5][H:13])([H:11])[H:12])[C:6]([H:14])([H:15])[N:7]1[H:16])([H:8])([H:9])[H:10]>>[C:1]([C+:2]([C:3]([C:4]#[C:5][H:13])([H:11])[H:12])[N:7]([C-:6]([H:14])[H:15])[H:16])([H:8])([H:9])[H:10]"
C       -0.57192657       1.67861739       0.03427284
C       -0.55835450       0.20092265      -0.18505422
C        0.49987710      -0.39604817      -1.07605724
C        1.83941025      -0.40622467      -0.48332812
C        2.92441179      -0.37292812       0.02305939
C       -1.04104297      -1.34467588       1.01249414
N       -1.66745500      -0.51607159       0.11493325
H        0.33763405       2.18679906      -0.28941692
H       -0.69532865       1.91341198       1.09625949
H       -1.41430405       2.13512586      -0.49802287
H        0.54883245       0.17645172      -2.01201760
H        0.22051828      -1.42032103      -1.33312625
H        3.87290074      -0.31231573       0.50167976
H       -1.26834273      -2.40375490       0.96437341
H       -0.45095711      -1.02107837       1.85560236
H       -2.57587307      -0.09791022       0.27434856
16
Frame=6 idx=007558 GeodesicLength=0.276729888335092 rxn_smarts="[C:1]([C@@:2]1([C:3]([C:4]#[C:5][H:13])([H:11])[H:12])[C:6]([H:14])([H:15])[N:7]1[H:16])([H:8])([H:9])[H:10]>>[C:1]([C+:2]([C:3]([C:4]#[C:5][H:13])([H:11])[H:12])[N:7]([C-:6]([H:14])[H:15])[H:16])([H:8])([H:9])[H:10]"
C       -0.57804829       1.67655492       0.03407500
C       -0.55630106       0.19737523      -0.17906011
C        0.49684995      -0.39415566      -1.07945846
C        1.83817823      -0.41057321      -0.49032527
C        2.92334301      -0.38078111       0.01616845
C       -1.02986520      -1.33763663       1.01289739
N       -1.66947573      -0.52148865       0.11139549
H        0.35384106       2.18101965      -0.22673811
H       -0.77199005       1.91658260       1.08413897
H       -1.37781801       2.13638951      -0.55757619
H        0.54269112       0.18363334      -2.01179117
H        0.21643376      -1.41686269      -1.34329586
H        3.87076266      -0.31895752       0.49680328
H       -1.26362423      -2.39551046       0.97296958
H       -0.43072761      -1.02649820       1.85413176
H       -2.56424959      -0.08909113       0.30566526
16
Frame=7 idx=007558 GeodesicLength=0.3217522871915726 rxn_smarts="[C:1]([C@@:2]1([C:3]([C:4]#[C:5][H:13])([H:11])[H:12])[C:6]([H:14])([H:15])[N:7]1[H:16])([H:8])([H:9])[H:10]>>[C:1]([C+:2]([C:3]([C:4]#[C:5][H:13])([H:11])[H:12])[N:7]([C-:6]([H:14])[H:15])[H:16])([H:8])([H:9])[H:10]"
C       -0.58308697       1.67392109       0.03432960
C       -0.55444012       0.19359723      -0.17304789
C        0.49336237      -0.39290390      -1.08236408
C        1.83630298      -0.41523529      -0.49688334
C        2.92150320      -0.38852163       0.00966875
C       -1.01999156      -1.33031612       1.01338915
N       -1.67186788      -0.52621119       0.10808965
H        0.36732859       2.17297515      -0.16271980
H       -0.84570129       1.91909463       1.06792065
H       -1.33632693       2.13772306      -0.61241650
H        0.53604931       0.18966393      -2.01129525
H        0.21181430      -1.41391426      -1.35243032
H        3.86854353      -0.31997967       0.49021228
H       -1.26031071      -2.38667431       0.98122200
H       -0.41091374      -1.03268611       1.85215677
H       -2.55226509      -0.08053261       0.33416833
16
Frame=8 idx=007558 GeodesicLength=0.366524526159365 rxn_smarts="[C:1]([C@@:2]1([C:3]([C:4]#[C:5][H:13])([H:11])[H:12])[C:6]([H:14])([H:15])[N:7]1[H:16])([H:8])([H:9])[H:10]>>[C:1]([C+:2]([C:3]([C:4]#[C:5][H:13])([H:11])[H:12])[N:7]([C-:6]([H:14])[H:15])[H:16])([H:8])([H:9])[H:10]"
C       -0.58843156       1.67157589       0.03456451
C       -0.55302236       0.19002135      -0.16721575
C        0.48987143      -0.39146830      -1.08499732
C        1.83450528      -0.41823233      -0.50326213
C        2.91980249      -0.39452835       0.00327932
C       -1.01048943      -1.32274835       1.01419634
N       -1.67457663      -0.53077657       0.10523294
H        0.37636739       2.16457408      -0.09855619
H       -0.91741828       1.92192393       1.04752704
H       -1.29214373       2.13906464      -0.66303447
H        0.52907339       0.19532405      -2.01087161
H        0.20775187      -1.41116917      -1.36057772
H        3.86690385      -0.32381776       0.48343093
H       -1.25709573      -2.37764156       0.98982226
H       -0.39061326      -1.03897595       1.84966838
H       -2.54048473      -0.07312561       0.36079348
16
Frame=9 idx=007558 GeodesicLength=0.41121741623647945 rxn_smarts="[C:1]([C@@:2]1([C:3]([C:4]#[C:5][H:13])([H:11])[H:12])[C:6]([H:14])([H:15])[N:7]1[H:16])([H:8])([H:9])[H:10]>>[C:1]([C+:2]([C:3]([C:4]#[C:5][H:13])([H:11])[H:12])[N:7]([C-:6]([H:14])[H:15])[H:16])([H:8])([H:9])[H:10]"
C       -0.59371832       1.66924300       0.03490030
C       -0.55203217       0.18650435      -0.16163439
C        0.48630472      -0.39011316      -1.08727381
C        1.83260090      -0.42013852      -0.50918361
C        2.91795394      -0.39925286      -0.00256789
C       -1.00161445      -1.31491843       1.01519472
N       -1.67764390      -0.53512847       0.10259501
H        0.38149328       2.15533975      -0.03420215
H       -0.98667985       1.92460710       1.02331620
H       -1.24503645       2.14056616      -0.70919641
H        0.52183253       0.20036385      -2.01040824
H        0.20404076      -1.40877114      -1.36771362
H        3.86614362      -0.32811033       0.47543458
H       -1.25440922      -2.36828727       0.99866477
H       -0.37030071      -1.04541975       1.84665762
H       -2.52893466      -0.06648427       0.38541692
16
Frame=10 idx=007558 GeodesicLength=0.4557437375010147 rxn_smarts="[C:1]([C@@:2]1([C:3]([C:4]#[C:5][H:13])([H:11])[H:12])[C:6]([H:14])([H:15])[N:7]1[H:16])([H:8])([H:9])[H:10]>>[C:1]([C+:2]([C:3]([C:4]#[C:5][H:13])([H:11])[H:12])[N:7]([C-:6]([H:14])[H:15])[H:16])([H:8])([H:9])[H:10]"
C       -0.59804396       1.66667830       0.03554814
C       -0.55133156       0.18278422      -0.15636371
C        0.48243921      -0.38947102      -1.08945899
C        1.83045858      -0.42225991      -0.51508722
C        2.91588021      -0.40393255      -0.00840071
C       -0.99375293      -1.30704843       1.01624123
N       -1.68123330      -0.53908636       0.10016873
H        0.38396256       2.14455147       0.03025392
H       -1.05216650       1.92691297       0.99587568
H       -1.19440912       2.14257133      -0.75035313
H        0.51420738       0.20425213      -2.01012792
H        0.19998749      -1.40723290      -1.37416947
H        3.86493970      -0.32749907       0.46708625
H       -1.25301769      -2.35876471       1.00744717
H       -0.35029669      -1.05253873       1.84299220
H       -2.51762339      -0.05991675       0.40834785
16
Frame=11 idx=007558 GeodesicLength=0.5004595608239086 rxn_smarts="[C:1]([C@@:2]1([C:3]([C:4]#[C:5][H:13])([H:11])[H:12])[C:6]([H:14])([H:15])[N:7]1[H:16])([H:8])([H:9])[H:10]>>[C:1]([C+:2]([C:3]([C:4]#[C:5][H:13])([H:11])[H:12])[N:7]([C-:6]([H:14])[H:15])[H:16])([H:8])([H:9])[H:10]"
C       -0.60246316       1.66412508       0.03616797
C       -0.55105216       0.17915920      -0.15140925
C        0.47850568      -0.38882906      -1.09142612
C        1.82816130      -0.42313689      -0.52067391
C        2.91356108      -0.40724532      -0.01381514
C       -0.98621707      -1.29883504       1.01747693
N       -1.68504630      -0.54287267       0.09804906
H        0.38244254       2.13296471       0.09469483
H       -1.11534079       1.92921588       0.96487546
H       -1.14132743       2.14459321      -0.78731928
H        0.50630130       0.20756845      -2.00994743
H        0.19636096      -1.40594741      -1.37978500
H        3.86421107      -0.32821993       0.45810277
H       -1.25178295      -2.34880505       1.01648478
H       -0.32985479      -1.05978502       1.83853588
H       -2.50645927      -0.05395014       0.42998846
16
Frame=12 idx=007558 GeodesicLength=0.5451039446117765 rxn_smarts="[C:1]([C@@:2]1([C:3]([C:4]#[C:5][H:13])([H:11])[H:12])[C:6]([H:14])([H:15])[N:7]1[H:16])([H:8])([H:9])[H:10]>>[C:1]([C+:2]([C:3]([C:4]#[C:5][H:13])([H:11])[H:12])[N:7]([C-:6]([H:14])[H:15])[H:16])([H:8])([H:9])[H:10]"
C       -0.60615751       1.66144540       0.03692017
C       -0.55105142       0.17541133      -0.14685139
C        0.47426086      -0.38868946      -1.09350415
C        1.82566535      -0.42383226      -0.52652716
C        2.91109403      -0.41006170      -0.01957200
C       -0.97921431      -1.29055990       1.01880802
N       -1.68922832      -0.54638506       0.09626645
H        0.37808714       2.12015348       0.15870918
H       -1.17489174       1.93129232       0.93088558
H       -1.08547445       2.14700933      -0.81954493
H        0.49783382       0.20996083      -2.01016613
H        0.19248262      -1.40536519      -1.38489186
H        3.86254909      -0.32605070       0.44993841
H       -1.25124583      -2.33868426       1.02562080
H       -0.30928306      -1.06757308       1.83332247
H       -2.49542625      -0.04807106       0.45058654
16
Frame=13 idx=007558 GeodesicLength=0.5900357328701887 rxn_smarts="[C:1]([C@@:2]1([C:3]([C:4]#[C:5][H:13])([H:11])[H:12])[C:6]([H:14])([H:15])[N:7]1[H:16])([H:8])([H:9])[H:10]>>[C:1]([C+:2]([C:3]([C:4]#[C:5][H:13])([H:11])[H:12])[N:7]([C-:6]([H:14])[H:15])[H:16])([H:8])([H:9])[H:10]"
C       -0.60950651       1.65874065       0.03762742
C       -0.55133231       0.17166313      -0.14268832
C        0.46968475      -0.38881720      -1.09571007
C        1.82290240      -0.42387028      -0.53278413
C        2.90841226      -0.41187992      -0.02591705
C       -0.97225190      -1.28207668       1.02023488
N       -1.69353285      -0.54963645       0.09498557
H        0.37031581       2.10627484       0.22230981
H       -1.23138847       1.93339614       0.89360146
H       -1.02720762       2.14960716      -0.84730899
H        0.48861470       0.21160684      -2.01076494
H        0.18853279      -1.40527764      -1.38944712
H        3.85957278      -0.32335527       0.44339961
H       -1.25074894      -2.32824100       1.03493785
H       -0.28782387      -1.07582152       1.82694406
H       -2.48424300      -0.04231278       0.47057995
16
Frame=14 idx=007558 GeodesicLength=0.6351384065347538 rxn_smarts="[C:1]([C@@:2]1([C:3]([C:4]#[C:5][H:13])([H:11])[H:12])[C:6]([H:14])([H:15])[N:7]1[H:16])([H:8])([H:9])[H:10]>>[C:1]([C+:2]([C:3]([C:4]#[C:5][H:13])([H:11])[H:12])[N:7]([C-:6]([H:14])[H:15])[H:16])([H:8])([H:9])[H:10]"
C       -0.61232960       1.65596025       0.03839092
C       -0.55189178       0.16783734      -0.13886340
C        0.46484952      -0.38933232      -1.09806228
C        1.82002968      -0.42347143      -0.53932746
C        2.90574474      -0.41299799      -0.03270575
C       -0.96568773      -1.27349702       1.02184349
N       -1.69821925      -0.55263287       0.09415941
H        0.35952718       2.09126622       0.28575842
H       -1.28495255       1.93549147       0.85320950
H       -0.96622724       2.15235383      -0.87076330
H        0.47883013       0.21243184      -2.01183042
H        0.18444386      -1.40579552      -1.39354775
H        3.85591802      -0.31880122       0.43757261
H       -1.25086232      -2.31756689       1.04450017
H       -0.26599072      -1.08471319       1.81965843
H       -2.47318195      -0.03653249       0.49000742
16
Frame=15 idx=007558 GeodesicLength=0.6806209881337002 rxn_smarts="[C:1]([C@@:2]1([C:3]([C:4]#[C:5][H:13])([H:11])[H:12])[C:6]([H:14])([H:15])[N:7]1[H:16])([H:8])([H:9])[H:10]>>[C:1]([C+:2]([C:3]([C:4]#[C:5][H:13])([H:11])[H:12])[N:7]([C-:6]([H:14])[H:15])[H:16])([H:8])([H:9])[H:10]"
C       -0.61478450       1.65317665       0.03920145
C       -0.55274505       0.16394253      -0.13523611
C        0.45987352      -0.39023998      -1.10008148
C        1.81690342      -0.42251943      -0.54539893
C        2.90277831      -0.41315812      -0.03903608
C       -0.95973598      -1.26484203       1.02357427
N       -1.70323234      -0.55538171       0.09361376
H        0.34516796       2.07521172       0.34946765
H       -1.33596788       1.93772527       0.80920911
H       -0.90227791       2.15518026      -0.88988264
H        0.46873089       0.21240556      -2.01283863
H        0.18050635      -1.40698754      -1.39669895
H        3.85300309      -0.31283298       0.42994844
H       -1.25176513      -2.30670646       1.05417748
H       -0.24427862      -1.09434187       1.81143117
H       -2.46217613      -0.03063186       0.50854951
16
Frame=16 idx=007558 GeodesicLength=0.7265594734913565 rxn_smarts="[C:1]([C@@:2]1([C:3]([C:4]#[C:5][H:13])([H:11])[H:12])[C:6]([H:14])([H:15])[N:7]1[H:16])([H:8])([H:9])[H:10]>>[C:1]([C+:2]([C:3]([C:4]#[C:5][H:13])([H:11])[H:12])[N:7]([C-:6]([H:14])[H:15])[H:16])([H:8])([H:9])[H:10]"
C       -0.61673618       1.65019630       0.04007739
C       -0.55375492       0.15994545      -0.13191119
C        0.45463312      -0.39151342      -1.10229882
C        1.81366696      -0.42105773      -0.55209111
C        2.89987045      -0.41222494      -0.04639241
C       -0.95387563      -1.25598920       1.02537136
N       -1.70842322      -0.55778813       0.09361920
H        0.32746421       2.05790854       0.41259490
H       -1.38386311       1.93980189       0.76197790
H       -0.83586367       2.15781618      -0.90419558
H        0.45784206       0.21156122      -2.01423828
H        0.17652715      -1.40871387      -1.39935003
H        3.84888612      -0.30565320       0.42372506
H       -1.25299220      -2.29538570       1.06410515
H       -0.22237714      -1.10443437       1.80220644
H       -2.45100399      -0.02446901       0.52680001
