16
Frame=0 idx=007255 GeodesicLength=0.0 rxn_smarts="[C:1]([C:2]1([C:3]([H:11])([H:12])[H:13])[C:4]([H:14])([H:15])[O:5][C:6]([H:16])=[N:7]1)([H:8])([H:9])[H:10]>>[C:1]1([H:9])([H:10])[C@@:2]([C:3]([H:11])([H:12])[H:13])([C:4]([O:5][H:8])([H:14])[H:15])[N:7]=[C:6]1[H:16]"
C        0.76599366       1.13758028       0.59162622
C        0.31874128      -0.10017062      -0.10666030
C        1.35471813      -1.14058714      -0.46673317
C       -0.89163271      -0.69804778       0.65841704
O       -1.75696893       0.37889386       0.88031468
C       -1.43814277       1.02558198      -1.14549637
N       -0.45187777       0.42157016      -1.35615251
H       -1.04473935       1.06318280       1.17309442
H        0.74691990       2.03753709      -0.01254812
H        1.74650926       1.02380217       1.05429661
H        1.89588647      -1.41109527       0.44098555
H        0.90920647      -2.04651819      -0.88512632
H        2.07303112      -0.73418051      -1.17733030
H       -1.42090924      -1.48182156       0.11325696
H       -0.50083734      -1.09066749       1.59974511
H       -2.30589814       1.61494021      -1.36168950
16
Frame=1 idx=007255 GeodesicLength=0.16977883863770513 rxn_smarts="[C:1]([C:2]1([C:3]([H:11])([H:12])[H:13])[C:4]([H:14])([H:15])[O:5][C:6]([H:16])=[N:7]1)([H:8])([H:9])[H:10]>>[C:1]1([H:9])([H:10])[C@@:2]([C:3]([H:11])([H:12])[H:13])([C:4]([O:5][H:8])([H:14])[H:15])[N:7]=[C:6]1[H:16]"
C        0.74054105       1.14732146       0.55502880
C        0.30601565      -0.10759179      -0.12213724
C        1.35244281      -1.13713909      -0.47883389
C       -0.89013950      -0.71222419       0.65927674
O       -1.75667399       0.36629275       0.88499372
C       -1.43723216       1.02873764      -1.12041909
N       -0.47141109       0.39659235      -1.36868226
H       -1.02728797       1.07061984       1.20501892
H        0.85675129       2.00068089      -0.10405855
H        1.63587552       1.07525338       1.17025312
H        1.89655961      -1.40352434       0.42847092
H        0.91516883      -2.04685056      -0.89759062
H        2.06733027      -0.72435611      -1.18934681
H       -1.41408811      -1.50607335       0.12426434
H       -0.49100540      -1.09455147       1.60146751
H       -2.28284680       1.64681259      -1.34770561
16
Frame=2 idx=007255 GeodesicLength=0.3392617276397949 rxn_smarts="[C:1]([C:2]1([C:3]([H:11])([H:12])[H:13])[C:4]([H:14])([H:15])[O:5][C:6]([H:16])=[N:7]1)([H:8])([H:9])[H:10]>>[C:1]1([H:9])([H:10])[C@@:2]([C:3]([H:11])([H:12])[H:13])([C:4]([O:5][H:8])([H:14])[H:15])[N:7]=[C:6]1[H:16]"
C        0.71822608       1.15530529       0.52139157
C        0.29459993      -0.11521524      -0.13618500
C        1.34958978      -1.13525951      -0.49094106
C       -0.88852416      -0.72593739       0.65961297
O       -1.75570967       0.35454116       0.88943108
C       -1.43209166       1.03478068      -1.09479233
N       -0.48786960       0.37588873      -1.37906041
H       -1.00668968       1.07825326       1.23835976
H        0.96770416       1.94995313      -0.17435444
H        1.51334554       1.14542215       1.26338785
H        1.89759775      -1.39689630       0.41555471
H        0.91902522      -2.04814235      -0.90959706
H        2.06039288      -0.71772645      -1.20292550
H       -1.40733717      -1.52848747       0.13322712
H       -0.48238209      -1.09944975       1.60247734
H       -2.25987730       1.67297005      -1.33558661
16
Frame=3 idx=007255 GeodesicLength=0.5087211560986427 rxn_smarts="[C:1]([C:2]1([C:3]([H:11])([H:12])[H:13])[C:4]([H:14])([H:15])[O:5][C:6]([H:16])=[N:7]1)([H:8])([H:9])[H:10]>>[C:1]1([H:9])([H:10])[C@@:2]([C:3]([H:11])([H:12])[H:13])([C:4]([O:5][H:8])([H:14])[H:15])[N:7]=[C:6]1[H:16]"
C        0.69942281       1.16139839       0.49122027
C        0.28482636      -0.12284719      -0.14885690
C        1.34603756      -1.13521875      -0.50356151
C       -0.88639077      -0.73890162       0.65967459
O       -1.75408358       0.34366489       0.89341194
C       -1.42337678       1.04262128      -1.06902523
N       -0.50078400       0.35952389      -1.38749579
H       -0.98305060       1.08679916       1.27219122
H        1.07662390       1.88945292      -0.22119175
H        1.38212493       1.23197272       1.33369428
H        1.89841909      -1.39296320       0.40155135
H        0.92029551      -2.05021641      -0.92232029
H        2.05262339      -0.71424608      -1.21786269
H       -1.40015437      -1.54921679       0.14086750
H       -0.47450184      -1.10464317       1.60321570
H       -2.23803161       1.69281996      -1.32551270
16
Frame=4 idx=007255 GeodesicLength=0.6779643513739504 rxn_smarts="[C:1]([C:2]1([C:3]([H:11])([H:12])[H:13])[C:4]([H:14])([H:15])[O:5][C:6]([H:16])=[N:7]1)([H:8])([H:9])[H:10]>>[C:1]1([H:9])([H:10])[C@@:2]([C:3]([H:11])([H:12])[H:13])([C:4]([O:5][H:8])([H:14])[H:15])[N:7]=[C:6]1[H:16]"
C        0.68317646       1.16558243       0.46565096
C        0.27649453      -0.13058672      -0.15975655
C        1.34185630      -1.13692376      -0.51638730
C       -0.88385055      -0.75181250       0.65970429
O       -1.75270642       0.33241773       0.89667281
C       -1.41226367       1.05066245      -1.04333001
N       -0.51034525       0.34661590      -1.39406521
H       -0.95775973       1.09580365       1.30639842
H        1.17966800       1.82212132      -0.24502205
H        1.24840915       1.33462768       1.37742447
H        1.89815051      -1.39314664       0.38693519
H        0.91933809      -2.05254678      -0.93684525
H        2.04491817      -0.71288725      -1.23251376
H       -1.39219226      -1.56930664       0.14732422
H       -0.46769718      -1.11075033       1.60412201
H       -2.21519616       1.71012945      -1.31631225
16
Frame=5 idx=007255 GeodesicLength=0.8469059954658145 rxn_smarts="[C:1]([C:2]1([C:3]([H:11])([H:12])[H:13])[C:4]([H:14])([H:15])[O:5][C:6]([H:16])=[N:7]1)([H:8])([H:9])[H:10]>>[C:1]1([H:9])([H:10])[C@@:2]([C:3]([H:11])([H:12])[H:13])([C:4]([O:5][H:8])([H:14])[H:15])[N:7]=[C:6]1[H:16]"
C        0.66991647       1.16813392       0.44546520
C        0.26974071      -0.13775868      -0.16896940
C        1.33693776      -1.13991888      -0.52976005
C       -0.88081735      -0.76387732       0.65969700
O       -1.75163951       0.32142919       0.89913680
C       -1.39852158       1.06005591      -1.01732500
N       -0.51617280       0.33808052      -1.39876935
H       -0.93098350       1.10631592       1.34090618
H        1.27811058       1.75032396      -0.24501611
H        1.11483064       1.44759772       1.39537822
H        1.89657758      -1.39784612       0.37116930
H        0.91577886      -2.05445615      -0.95366920
H        2.03739054      -0.71299018      -1.24688767
H       -1.38342071      -1.58800583       0.15275917
H       -0.46189205      -1.11683072       1.60524796
H       -2.19583565       1.71974673      -1.30936302
16
Frame=6 idx=007255 GeodesicLength=1.0159193930959558 rxn_smarts="[C:1]([C:2]1([C:3]([H:11])([H:12])[H:13])[C:4]([H:14])([H:15])[O:5][C:6]([H:16])=[N:7]1)([H:8])([H:9])[H:10]>>[C:1]1([H:9])([H:10])[C@@:2]([C:3]([H:11])([H:12])[H:13])([C:4]([O:5][H:8])([H:14])[H:15])[N:7]=[C:6]1[H:16]"
C        0.65849944       1.16914755       0.43067589
C        0.26405152      -0.14481230      -0.17642877
C        1.33158957      -1.14391852      -0.54329545
C       -0.87754788      -0.77625405       0.65985968
O       -1.75157500       0.30924964       0.90093964
C       -1.38357177       1.06918225      -0.99101879
N       -0.51919965       0.33247473      -1.40184485
H       -0.90347428       1.11723494       1.37650474
H        1.36935739       1.67490618      -0.22360149
H        0.98383170       1.57184749       1.38462900
H        1.89350842      -1.40703941       0.35493932
H        0.91060712      -2.05570812      -0.97323297
H        2.03071839      -0.71332865      -1.25983463
H       -1.37375024      -1.60679409       0.15723668
H       -0.45726156      -1.12402506       1.60689300
H       -2.17578318       1.72783743      -1.30242099
16
Frame=7 idx=007255 GeodesicLength=1.184559721396712 rxn_smarts="[C:1]([C:2]1([C:3]([H:11])([H:12])[H:13])[C:4]([H:14])([H:15])[O:5][C:6]([H:16])=[N:7]1)([H:8])([H:9])[H:10]>>[C:1]1([H:9])([H:10])[C@@:2]([C:3]([H:11])([H:12])[H:13])([C:4]([O:5][H:8])([H:14])[H:15])[N:7]=[C:6]1[H:16]"
C        0.64815999       1.16853434       0.42129424
C        0.25912893      -0.15173731      -0.18213818
C        1.32598427      -1.14837551      -0.55671430
C       -0.87405013      -0.78902740       0.65994382
O       -1.75226146       0.29582796       0.90229404
C       -1.36810114       1.07786287      -0.96375450
N       -0.51992718       0.32966083      -1.40294420
H       -0.87456869       1.12779727       1.41408671
H        1.45359310       1.59485969      -0.18060230
H        0.85491709       1.70583632       1.34135357
H        1.88912912      -1.42002317       0.33832371
H        0.90452020      -2.05565990      -0.99513344
H        2.02493363      -0.71303480      -1.27061187
H       -1.36309650      -1.62539241       0.16041542
H       -0.45364906      -1.13283338       1.60839580
H       -2.15471216       1.73570460      -1.29420853
16
Frame=8 idx=007255 GeodesicLength=1.3525758593556385 rxn_smarts="[C:1]([C:2]1([C:3]([H:11])([H:12])[H:13])[C:4]([H:14])([H:15])[O:5][C:6]([H:16])=[N:7]1)([H:8])([H:9])[H:10]>>[C:1]1([H:9])([H:10])[C@@:2]([C:3]([H:11])([H:12])[H:13])([C:4]([O:5][H:8])([H:14])[H:15])[N:7]=[C:6]1[H:16]"
C        0.63872739       1.16713492       0.41689785
C        0.25488790      -0.15809524      -0.18666055
C        1.32034068      -1.15262674      -0.57033919
C       -0.87048890      -0.80171424       0.66006099
O       -1.75304369       0.28227930       0.90410039
C       -1.35273320       1.08606972      -0.93581292
N       -0.51852037       0.32983164      -1.40270980
H       -0.84229817       1.13890136       1.45470175
H        1.53154554       1.51159218      -0.11265014
H        0.72726336       1.84204603       1.26262136
H        1.88387610      -1.43554088       0.32110466
H        0.89775424      -2.05429414      -1.01877256
H        2.02003831      -0.71126080      -1.27994457
H       -1.35211246      -1.64345901       0.16266838
H       -0.45088260      -1.14279862       1.60988419
H       -2.13435411       1.74193453      -1.28514987
16
Frame=9 idx=007255 GeodesicLength=1.5206147279915139 rxn_smarts="[C:1]([C:2]1([C:3]([H:11])([H:12])[H:13])[C:4]([H:14])([H:15])[O:5][C:6]([H:16])=[N:7]1)([H:8])([H:9])[H:10]>>[C:1]1([H:9])([H:10])[C@@:2]([C:3]([H:11])([H:12])[H:13])([C:4]([O:5][H:8])([H:14])[H:15])[N:7]=[C:6]1[H:16]"
C        0.62998422       1.16593455       0.41622295
C        0.25114133      -0.16318456      -0.19070284
C        1.31480798      -1.15553803      -0.58451138
C       -0.86690141      -0.81287796       0.66041296
O       -1.75245635       0.27100610       0.90756221
C       -1.33843243       1.09361714      -0.90792980
N       -0.51544212       0.33307900      -1.40182745
H       -0.80328560       1.15348373       1.49809542
H        1.60278708       1.42476695      -0.01441450
H        0.60264982       1.96917179       1.14707846
H        1.87688015      -1.45346965       0.30316440
H        0.89048611      -2.04976497      -1.04583458
H        2.01708157      -0.70595866      -1.28663148
H       -1.34147500      -1.65939107       0.16446545
H       -0.44850301      -1.15262651       1.61134183
H       -2.11932236       1.74175216      -1.27649167
16
Frame=10 idx=007255 GeodesicLength=1.6889165147444185 rxn_smarts="[C:1]([C:2]1([C:3]([H:11])([H:12])[H:13])[C:4]([H:14])([H:15])[O:5][C:6]([H:16])=[N:7]1)([H:8])([H:9])[H:10]>>[C:1]1([H:9])([H:10])[C@@:2]([C:3]([H:11])([H:12])[H:13])([C:4]([O:5][H:8])([H:14])[H:15])[N:7]=[C:6]1[H:16]"
C        0.61966358       1.16733609       0.41251831
C        0.24674227      -0.16665558      -0.19647384
C        1.30976692      -1.15558043      -0.59952299
C       -0.86257910      -0.82096582       0.66191144
O       -1.75054661       0.26338403       0.91185679
C       -1.32826738       1.09783144      -0.88345970
N       -0.51383076       0.33589600      -1.40277290
H       -0.75761070       1.17806840       1.53799085
H        1.65881427       1.33875615       0.11178882
H        0.49210894       2.06326742       1.01487633
H        1.86858599      -1.47095865       0.28437080
H        0.88424165      -2.04160899      -1.07504947
H        2.01570204      -0.69543241      -1.29123197
H       -1.32978577      -1.67349619       0.16959470
H       -0.44421771      -1.15746454       1.61411301
H       -2.10878765       1.73762309      -1.27051019
16
Frame=11 idx=007255 GeodesicLength=1.8581516695725708 rxn_smarts="[C:1]([C:2]1([C:3]([H:11])([H:12])[H:13])[C:4]([H:14])([H:15])[O:5][C:6]([H:16])=[N:7]1)([H:8])([H:9])[H:10]>>[C:1]1([H:9])([H:10])[C@@:2]([C:3]([H:11])([H:12])[H:13])([C:4]([O:5][H:8])([H:14])[H:15])[N:7]=[C:6]1[H:16]"
C        0.60810140       1.17192608       0.40056123
C        0.24087868      -0.16921434      -0.20540616
C        1.30550997      -1.15275604      -0.61598919
C       -0.85719097      -0.82601749       0.66484617
O       -1.74811263       0.25882866       0.91579695
C       -1.32291491       1.09797067      -0.86370607
N       -0.51611596       0.33535840      -1.40699857
H       -0.70576467       1.21574397       1.56975457
H        1.69158657       1.25179680       0.26073724
H        0.40247023       2.12330699       0.88635128
H        1.85970231      -1.48669555       0.26413962
H        0.88000620      -2.03044671      -1.10647914
H        2.01595928      -0.67959299      -1.29432899
H       -1.31600230      -1.68700787       0.17980118
H       -0.43681327      -1.15499712       1.61882879
H       -2.10129991       1.73179655      -1.26790891
16
Frame=12 idx=007255 GeodesicLength=2.027963937376949 rxn_smarts="[C:1]([C:2]1([C:3]([H:11])([H:12])[H:13])[C:4]([H:14])([H:15])[O:5][C:6]([H:16])=[N:7]1)([H:8])([H:9])[H:10]>>[C:1]1([H:9])([H:10])[C@@:2]([C:3]([H:11])([H:12])[H:13])([C:4]([O:5][H:8])([H:14])[H:15])[N:7]=[C:6]1[H:16]"
C        0.59833634       1.17732504       0.38209054
C        0.23371382      -0.17208504      -0.21680836
C        1.30237325      -1.14806674      -0.63309069
C       -0.85115249      -0.82958366       0.66861817
O       -1.74530794       0.25585932       0.91891852
C       -1.31970467       1.09589325      -0.84712549
N       -0.52155063       0.33174000      -1.41371735
H       -0.64632199       1.26382361       1.59435265
H        1.69335080       1.16514188       0.41910742
H        0.33065594       2.15944495       0.76762197
H        1.85149064      -1.49999022       0.24336487
H        0.87833699      -2.01808705      -1.13810214
H        2.01738250      -0.66022913      -1.29631487
H       -1.30065072      -1.70056216       0.19313499
H       -0.42761360      -1.14809170       1.62481127
H       -2.09333824       1.72746765      -1.26686150
16
Frame=13 idx=007255 GeodesicLength=2.198629653447608 rxn_smarts="[C:1]([C:2]1([C:3]([H:11])([H:12])[H:13])[C:4]([H:14])([H:15])[O:5][C:6]([H:16])=[N:7]1)([H:8])([H:9])[H:10]>>[C:1]1([H:9])([H:10])[C@@:2]([C:3]([H:11])([H:12])[H:13])([C:4]([O:5][H:8])([H:14])[H:15])[N:7]=[C:6]1[H:16]"
C        0.59209437       1.18131480       0.36199338
C        0.22575550      -0.17590642      -0.22893929
C        1.30051345      -1.14262700      -0.64920645
C       -0.84530594      -0.83311665       0.67247240
O       -1.74315815       0.25288388       0.92066156
C       -1.31619217       1.09346565      -0.83164291
N       -0.52807425       0.32667969      -1.42119203
H       -0.57900957       1.31863416       1.61467225
H        1.66465142       1.08432082       0.56889485
H        0.27042257       2.17827284       0.66052015
H        1.84456311      -1.51120017       0.22374538
H        0.87916098      -2.00566906      -1.16817648
H        2.01973693      -0.63965064      -1.29664799
H       -1.28440447      -1.71467846       0.20716386
H       -0.41872402      -1.13973178       1.63125767
H       -2.08202977       1.72700834      -1.26557636
16
Frame=14 idx=007255 GeodesicLength=2.370231090740708 rxn_smarts="[C:1]([C:2]1([C:3]([H:11])([H:12])[H:13])[C:4]([H:14])([H:15])[O:5][C:6]([H:16])=[N:7]1)([H:8])([H:9])[H:10]>>[C:1]1([H:9])([H:10])[C@@:2]([C:3]([H:11])([H:12])[H:13])([C:4]([O:5][H:8])([H:14])[H:15])[N:7]=[C:6]1[H:16]"
C        0.58868771       1.18313532       0.34395660
C        0.21729345      -0.18062903      -0.24041658
C        1.29951019      -1.13692647      -0.66331563
C       -0.84033082      -0.83749412       0.67595177
O       -1.74326946       0.24818055       0.92014459
C       -1.31133765       1.09130135      -0.81627836
N       -0.53398624       0.32154604      -1.42833603
H       -0.50502423       1.37796836       1.63282280
H        1.61412034       1.01301566       0.69819574
H        0.21690585       2.18346657       0.56691739
H        1.83884606      -1.52024856       0.20637534
H        0.88180367      -1.99360340      -1.19550332
H        2.02220025      -0.61935928      -1.29546720
H       -1.26738477      -1.72986203       0.22049830
H       -0.41187629      -1.13129959       1.63795662
H       -2.06615806       1.73080863      -1.26350203
16
Frame=15 idx=007255 GeodesicLength=2.5426808851559706 rxn_smarts="[C:1]([C:2]1([C:3]([H:11])([H:12])[H:13])[C:4]([H:14])([H:15])[O:5][C:6]([H:16])=[N:7]1)([H:8])([H:9])[H:10]>>[C:1]1([H:9])([H:10])[C@@:2]([C:3]([H:11])([H:12])[H:13])([C:4]([O:5][H:8])([H:14])[H:15])[N:7]=[C:6]1[H:16]"
C        0.58676928       1.18301303       0.32996795
C        0.20844448      -0.18592460      -0.25059550
C        1.29895462      -1.13116561      -0.67528278
C       -0.83664719      -0.84307269       0.67875594
O       -1.74710132       0.24063759       0.91656390
C       -1.30521192       1.08963101      -0.80073961
N       -0.53840907       0.31735066      -1.43473309
H       -0.42542555       1.44224135       1.64949750
H        1.55185751       0.95079627       0.80457516
H        0.16780472       2.17852176       0.48713870
H        1.83399769      -1.52757883       0.19136368
H        0.88561559      -1.98188803      -1.22021339
H        2.02441789      -0.59978236      -1.29289240
H       -1.24959864      -1.74647661       0.23246989
H       -0.40802416      -1.12313995       1.64482535
H       -2.04744392       1.73683701      -1.26070129
16
Frame=16 idx=007255 GeodesicLength=2.715831061133126 rxn_smarts="[C:1]([C:2]1([C:3]([H:11])([H:12])[H:13])[C:4]([H:14])([H:15])[O:5][C:6]([H:16])=[N:7]1)([H:8])([H:9])[H:10]>>[C:1]1([H:9])([H:10])[C@@:2]([C:3]([H:11])([H:12])[H:13])([C:4]([O:5][H:8])([H:14])[H:15])[N:7]=[C:6]1[H:16]"
C        0.58504618       1.18121001       0.32042320
C        0.19911427      -0.19164703      -0.25940704
C        1.29851390      -1.12528876      -0.68544358
C       -0.83434372      -0.85008641       0.68082683
O       -1.75548765       0.22935369       0.90940048
C       -1.29837611       1.08814527      -0.78496783
N       -0.54132983       0.31431425      -1.44033837
H       -0.34010866       1.51314539       1.66410478
H        1.48428726       0.89539952       0.89131738
H        0.12206197       2.16618383       0.42012655
H        1.82963320      -1.53363425       0.17824922
H        0.89021680      -1.97021439      -1.24299741
H        2.02612488      -0.58061076      -1.28907300
H       -1.23075159      -1.76487889       0.24310709
H       -0.40740271      -1.11512807       1.65191298
H       -2.02719821       1.74373658      -1.25724128
