12
Frame=0 idx=010598 GeodesicLength=0.0 rxn_smarts="[O:1]=[C:2]([C@@:3]1([H:9])[C:4]([H:10])([H:11])[C@:5]1([C:6]#[N:7])[H:12])[H:8]>>[C:3]1([H:9])=[C:5]([H:12])[C:4]1([H:10])[H:11].[C:6](#[N:7])[H:8].[O+:1]#[C-:2]"
O       -1.70148358      -1.11617026       1.94545224
C       -1.05715132      -0.92765164       1.02203945
C       -0.59835580       0.74536801       0.41114032
C        0.90007839       0.79843395       0.55064283
C        0.15533219       0.72452965      -0.71459011
C        0.27873855      -1.28087222      -1.34649008
N        0.72195008      -1.61621051      -2.35826412
H       -0.22713737      -1.46876298      -0.31995283
H       -1.42457477       1.35803397       0.73450396
H        1.37607455      -0.11072957       0.92803349
H        1.40629001       1.71537396       0.83536173
H        0.17023905       1.17865764      -1.68787689
12
Frame=1 idx=010598 GeodesicLength=0.07746819081664899 rxn_smarts="[O:1]=[C:2]([C@@:3]1([H:9])[C:4]([H:10])([H:11])[C@:5]1([C:6]#[N:7])[H:12])[H:8]>>[C:3]1([H:9])=[C:5]([H:12])[C:4]1([H:10])[H:11].[C:6](#[N:7])[H:8].[O+:1]#[C-:2]"
O       -1.71041901      -1.12437298       1.94671497
C       -1.06108098      -0.93862753       1.02493683
C       -0.59511254       0.74751637       0.41298977
C        0.90312841       0.80336605       0.55014027
C        0.15831345       0.72382750      -0.71655524
C        0.27983553      -1.27757531      -1.35394261
N        0.72698009      -1.62379947      -2.35996731
H       -0.24190981      -1.48152830      -0.31549839
H       -1.41789394       1.36447570       0.73684280
H        1.38201132      -0.10315281       0.92913187
H        1.40597989       1.72322403       0.83111504
H        0.17016759       1.18664676      -1.68590799
12
Frame=2 idx=010598 GeodesicLength=0.154936919465253 rxn_smarts="[O:1]=[C:2]([C@@:3]1([H:9])[C:4]([H:10])([H:11])[C@:5]1([C:6]#[N:7])[H:12])[H:8]>>[C:3]1([H:9])=[C:5]([H:12])[C:4]1([H:10])[H:11].[C:6](#[N:7])[H:8].[O+:1]#[C-:2]"
O       -1.71936406      -1.13257709       1.94807482
C       -1.06507609      -0.94974617       1.02789855
C       -0.59183629       0.74966281       0.41481297
C        0.90620284       0.80834338       0.54962185
C        0.16134857       0.72316435      -0.71853958
C        0.28095705      -1.27412437      -1.36162123
N        0.73204774      -1.63148241      -2.36163382
H       -0.25686222      -1.49447761      -0.31093025
H       -1.41117948       1.37091597       0.73907358
H        1.38799028      -0.09550827       0.93020033
H        1.40565150       1.73109902       0.82688023
H        0.17012015       1.19473039      -1.68383744
12
Frame=3 idx=010598 GeodesicLength=0.2323694693320365 rxn_smarts="[O:1]=[C:2]([C@@:3]1([H:9])[C:4]([H:10])([H:11])[C@:5]1([C:6]#[N:7])[H:12])[H:8]>>[C:3]1([H:9])=[C:5]([H:12])[C:4]1([H:10])[H:11].[C:6](#[N:7])[H:8].[O+:1]#[C-:2]"
O       -1.72812404      -1.14075086       1.94965116
C       -1.06919905      -0.96099854       1.03085347
C       -0.58855070       0.75180966       0.41655632
C        0.90926724       0.81336273       0.54913276
C        0.16448813       0.72253528      -0.72054258
C        0.28221806      -1.27051274      -1.36950683
N        0.73696254      -1.63926090      -2.36337475
H       -0.27197925      -1.50762641      -0.30625286
H       -1.40448329       1.37734700       0.74108987
H        1.39395215      -0.08779633       0.93131981
H        1.40525238       1.73899103       0.82273257
H        0.17019584       1.20290007      -1.68165895
12
Frame=4 idx=010598 GeodesicLength=0.309792177445012 rxn_smarts="[O:1]=[C:2]([C@@:3]1([H:9])[C:4]([H:10])([H:11])[C@:5]1([C:6]#[N:7])[H:12])[H:8]>>[C:3]1([H:9])=[C:5]([H:12])[C:4]1([H:10])[H:11].[C:6](#[N:7])[H:8].[O+:1]#[C-:2]"
O       -1.73652092      -1.14888208       1.95155823
C       -1.07351972      -0.97238317       1.03374043
C       -0.58528005       0.75395996       0.41816407
C        0.91228993       0.81843005       0.54872018
C        0.16778705       0.72194089      -0.72257190
C        0.28370056      -1.26674287      -1.37760493
N        0.74150872      -1.64713382      -2.36530073
H       -0.28720001      -1.52100642      -0.30143695
H       -1.39786063       1.38376102       0.74278188
H        1.39983539      -0.08001128       0.93257397
H        1.40473637       1.74690874       0.81875569
H        0.17052331       1.21115898      -1.67937994
12
Frame=5 idx=010598 GeodesicLength=0.3872086731064775 rxn_smarts="[O:1]=[C:2]([C@@:3]1([H:9])[C:4]([H:10])([H:11])[C@:5]1([C:6]#[N:7])[H:12])[H:8]>>[C:3]1([H:9])=[C:5]([H:12])[C:4]1([H:10])[H:11].[C:6](#[N:7])[H:8].[O+:1]#[C-:2]"
O       -1.74480962      -1.15699451       1.95366887
C       -1.07796716      -0.98390122       1.03665711
C       -0.58199507       0.75611551       0.41971358
C        0.91531497       0.82353101       0.54830644
C        0.17115792       0.72139643      -0.72462958
C        0.28526162      -1.26277956      -1.38597077
N        0.74606477      -1.65510335      -2.36723253
H       -0.30261854      -1.53462086      -0.29647869
H       -1.39123059       1.39018318       0.74431427
H        1.40571957      -0.07217684       0.93382039
H        1.40418322       1.75482928       0.81483139
H        0.17091890       1.21952093      -1.67700049
12
Frame=6 idx=010598 GeodesicLength=0.46461592172313737 rxn_smarts="[O:1]=[C:2]([C@@:3]1([H:9])[C:4]([H:10])([H:11])[C@:5]1([C:6]#[N:7])[H:12])[H:8]>>[C:3]1([H:9])=[C:5]([H:12])[C:4]1([H:10])[H:11].[C:6](#[N:7])[H:8].[O+:1]#[C-:2]"
O       -1.75316961      -1.16511397       1.95586423
C       -1.08247654      -0.99556673       1.03966327
C       -0.57867205       0.75826826       0.42123780
C        0.91837065       0.82868004       0.54786762
C        0.17458085       0.72090510      -0.72671158
C        0.28690272      -1.25861151      -1.39461068
N        0.75065077      -1.66317272      -2.36912363
H       -0.31823289      -1.54849045      -0.29134719
H       -1.38455623       1.39661009       0.74574579
H        1.41165965      -0.06427038       0.93501909
H        1.40362220       1.76277580       0.81090833
H        0.17132047       1.22798648      -1.67451306
12
Frame=7 idx=010598 GeodesicLength=0.5419936707281037 rxn_smarts="[O:1]=[C:2]([C@@:3]1([H:9])[C:4]([H:10])([H:11])[C@:5]1([C:6]#[N:7])[H:12])[H:8]>>[C:3]1([H:9])=[C:5]([H:12])[C:4]1([H:10])[H:11].[C:6](#[N:7])[H:8].[O+:1]#[C-:2]"
O       -1.76142826      -1.17321614       1.95827795
C       -1.08712837      -1.00736178       1.04271312
C       -0.57533510       0.76043137       0.42271346
C        0.92143079       0.83384767       0.54740135
C        0.17804726       0.72048343      -0.72883092
C        0.28857458      -1.25420358      -1.40357713
N        0.75540204      -1.67134680      -2.37093211
H       -0.33410482      -1.56262604      -0.28606584
H       -1.37785540       1.40305860       0.74705578
H        1.41760103      -0.05634088       0.93615531
H        1.40304504       1.77069890       0.80701552
H        0.17175121       1.23657523      -1.67192649
12
Frame=8 idx=010598 GeodesicLength=0.6194022913207237 rxn_smarts="[O:1]=[C:2]([C@@:3]1([H:9])[C:4]([H:10])([H:11])[C@:5]1([C:6]#[N:7])[H:12])[H:8]>>[C:3]1([H:9])=[C:5]([H:12])[C:4]1([H:10])[H:11].[C:6](#[N:7])[H:8].[O+:1]#[C-:2]"
O       -1.76956559      -1.18129765       1.96087495
C       -1.09189386      -1.01930979       1.04576687
C       -0.57198618       0.76257879       0.42404948
C        0.92447143       0.83911816       0.54704116
C        0.18173159       0.72009066      -0.73096414
C        0.29068866      -1.24961344      -1.41273035
N        0.75937253      -1.67962424      -2.37313478
H       -0.34991851      -1.57711970      -0.28046946
H       -1.37123288       1.40946133       0.74798861
H        1.42352476      -0.04824749       0.93748939
H        1.40232599       1.77873038       0.80331189
H        0.17248205       1.24523299      -1.66922362
12
Frame=9 idx=010598 GeodesicLength=0.6967705585173058 rxn_smarts="[O:1]=[C:2]([C@@:3]1([H:9])[C:4]([H:10])([H:11])[C@:5]1([C:6]#[N:7])[H:12])[H:8]>>[C:3]1([H:9])=[C:5]([H:12])[C:4]1([H:10])[H:11].[C:6](#[N:7])[H:8].[O+:1]#[C-:2]"
O       -1.77755655      -1.18935171       1.96375415
C       -1.09684277      -1.03137888       1.04885907
C       -0.56863321       0.76474473       0.42533696
C        0.92751193       0.84438330       0.54662966
C        0.18542982       0.71978869      -0.73314842
C        0.29278462      -1.24473056      -1.42228282
N        0.76369558      -1.68800761      -2.37516145
H       -0.36607307      -1.59191904      -0.27472592
H       -1.36457304       1.41590563       0.74883000
H        1.42943622      -0.04017170       0.93870875
H        1.40161193       1.78669923       0.79962588
H        0.17320853       1.25403792      -1.66642586
12
Frame=10 idx=010598 GeodesicLength=0.7741390324619005 rxn_smarts="[O:1]=[C:2]([C@@:3]1([H:9])[C:4]([H:10])([H:11])[C@:5]1([C:6]#[N:7])[H:12])[H:8]>>[C:3]1([H:9])=[C:5]([H:12])[C:4]1([H:10])[H:11].[C:6](#[N:7])[H:8].[O+:1]#[C-:2]"
O       -1.78551939      -1.19739299       1.96680421
C       -1.10191064      -1.04359052       1.05201100
C       -0.56525989       0.76690889       0.42654318
C        0.93055609       0.84970928       0.54623774
C        0.18924200       0.71955442      -0.73536466
C        0.29512723      -1.23958861      -1.43214371
N        0.76777993      -1.69650972      -2.37731132
H       -0.38235615      -1.60709794      -0.26870172
H       -1.35791371       1.42234953       0.74946136
H        1.43536079      -0.03200563       0.93995576
H        1.40083788       1.79470865       0.79602888
H        0.17405586       1.26295464      -1.66352073
12
Frame=11 idx=010598 GeodesicLength=0.8515233214169134 rxn_smarts="[O:1]=[C:2]([C@@:3]1([H:9])[C:4]([H:10])([H:11])[C@:5]1([C:6]#[N:7])[H:12])[H:8]>>[C:3]1([H:9])=[C:5]([H:12])[C:4]1([H:10])[H:11].[C:6](#[N:7])[H:8].[O+:1]#[C-:2]"
O       -1.79358636      -1.20543182       1.96988570
C       -1.10701543      -1.05596937       1.05524355
C       -0.56184813       0.76904202       0.42761553
C        0.93360338       0.85518514       0.54596805
C        0.19331565       0.71934481      -0.73758222
C        0.29809676      -1.23425321      -1.44216396
N        0.77078162      -1.70511509      -2.38001696
H       -0.39847121      -1.62274944      -0.26222368
H       -1.35131779       1.42873095       0.74970033
H        1.44132182      -0.02359714       0.94144147
H        1.39990611       1.80289649       0.79261973
H        0.17521359       1.27191667      -1.66048754
12
Frame=12 idx=010598 GeodesicLength=0.9288903724180243 rxn_smarts="[O:1]=[C:2]([C@@:3]1([H:9])[C:4]([H:10])([H:11])[C@:5]1([C:6]#[N:7])[H:12])[H:8]>>[C:3]1([H:9])=[C:5]([H:12])[C:4]1([H:10])[H:11].[C:6](#[N:7])[H:8].[O+:1]#[C-:2]"
O       -1.80163144      -1.21345057       1.97319130
C       -1.11228863      -1.06847403       1.05856165
C       -0.55842090       0.77119041       0.42865138
C        0.93666417       0.86065760       0.54562341
C        0.19738561       0.71925222      -0.73986138
C        0.30105671      -1.22855273      -1.45266208
N        0.77417234      -1.71384285      -2.38250639
H       -0.41491553      -1.63881624      -0.25549848
H       -1.34465234       1.43516119       0.74988977
H        1.44729944      -0.01520686       0.94276293
H        1.39899786       1.81102274       0.78920480
H        0.17633273       1.28105912      -1.65735690
12
Frame=13 idx=010598 GeodesicLength=1.0062688790733945 rxn_smarts="[O:1]=[C:2]([C@@:3]1([H:9])[C:4]([H:10])([H:11])[C@:5]1([C:6]#[N:7])[H:12])[H:8]>>[C:3]1([H:9])=[C:5]([H:12])[C:4]1([H:10])[H:11].[C:6](#[N:7])[H:8].[O+:1]#[C-:2]"
O       -1.80982064      -1.22146947       1.97656368
C       -1.11762221      -1.08113754       1.06201117
C       -0.55495182       0.77332357       0.42961798
C        0.93974911       0.86621564       0.54528676
C        0.20157487       0.71924155      -0.74217318
C        0.30436516      -1.22254142      -1.46350273
N        0.77723083      -1.72270126      -2.38513647
H       -0.43149750      -1.65538135      -0.24840046
H       -1.33795741       1.44158150       0.74989558
H        1.45334128      -0.00668679       0.94408993
H        1.39802976       1.81922781       0.78585501
H        0.17755858       1.29032777      -1.65410726
12
Frame=14 idx=010598 GeodesicLength=1.083642035237458 rxn_smarts="[O:1]=[C:2]([C@@:3]1([H:9])[C:4]([H:10])([H:11])[C@:5]1([C:6]#[N:7])[H:12])[H:8]>>[C:3]1([H:9])=[C:5]([H:12])[C:4]1([H:10])[H:11].[C:6](#[N:7])[H:8].[O+:1]#[C-:2]"
O       -1.81815954      -1.22948412       1.98006951
C       -1.12308278      -1.09393638       1.06562058
C       -0.55144532       0.77546876       0.43060520
C        0.94288431       0.87174125       0.54478544
C        0.20566195       0.71939205      -0.74456953
C        0.30750225      -1.21606351      -1.47496804
N        0.78109696      -1.73170505      -2.38722368
H       -0.44856076      -1.67240990      -0.24104987
H       -1.33111226       1.44806478       0.75001516
H        1.45946830       0.00176195       0.94506782
H        1.39716209       1.82732654       0.78240281
H        0.17858481       1.29984363      -1.65075540
12
Frame=15 idx=010598 GeodesicLength=1.1610186237392528 rxn_smarts="[O:1]=[C:2]([C@@:3]1([H:9])[C:4]([H:10])([H:11])[C@:5]1([C:6]#[N:7])[H:12])[H:8]>>[C:3]1([H:9])=[C:5]([H:12])[C:4]1([H:10])[H:11].[C:6](#[N:7])[H:8].[O+:1]#[C-:2]"
O       -1.82656870      -1.23747855       1.98373248
C       -1.12867505      -1.10687907       1.06934716
C       -0.54791174       0.77761106       0.43152836
C        0.94603843       0.87729656       0.54423222
C        0.20979396       0.71967513      -0.74703403
C        0.31082150      -1.20916274      -1.48694521
N        0.78503633      -1.74085194      -2.38917857
H       -0.46588891      -1.68999724      -0.23332288
H       -1.32420689       1.45456742       0.75002820
H        1.46564094       0.01024215       0.94591551
H        1.39628033       1.83541601       0.77899041
H        0.17963979       1.30956123      -1.64729364
12
Frame=16 idx=010598 GeodesicLength=1.2383964813497856 rxn_smarts="[O:1]=[C:2]([C@@:3]1([H:9])[C:4]([H:10])([H:11])[C@:5]1([C:6]#[N:7])[H:12])[H:8]>>[C:3]1([H:9])=[C:5]([H:12])[C:4]1([H:10])[H:11].[C:6](#[N:7])[H:8].[O+:1]#[C-:2]"
O       -1.83500732      -1.24544355       1.98759041
C       -1.13442715      -1.11996048       1.07317780
C       -0.54435808       0.77975109       0.43237237
C        0.94920426       0.88287280       0.54362487
C        0.21397211       0.72010532      -0.74957720
C        0.31433923      -1.20180033      -1.49947841
N        0.78905797      -1.75014486      -2.39097189
H       -0.48349847      -1.70819168      -0.22519361
H       -1.31724547       1.46109059       0.74992305
H        1.47184543       0.01873790       0.94662205
H        1.39538094       1.84348191       0.77563299
H        0.18073656       1.31950129      -1.64372245
