10
Frame=0 idx=001234 GeodesicLength=0.0 rxn_smarts="[N:1]([c:2]1[n:3][o:4][c:5]([H:9])[c:6]1[H:10])([H:7])[H:8]>>[N:1]([C@@:6]([C:2]#[N:3])([C:5](=[O:4])[H:9])[H:10])([H:7])[H:8]"
N       -1.68773677       0.11342991      -0.08277282
C       -0.60063010      -0.46512799       0.82869571
N       -0.57495399      -1.55735041       1.32560750
O        1.74415004      -1.30261538      -0.44082254
C        1.56469478      -0.11367713      -0.29992397
C        0.37721970       0.47829418       0.24874967
H       -1.70813969      -0.41578354      -0.94688404
H       -1.67185726       1.10318246      -0.27653308
H        2.36625159       0.62407504      -0.49963023
H        0.19100170       1.53557285       0.14351380
10
Frame=1 idx=001234 GeodesicLength=0.10508960275474524 rxn_smarts="[N:1]([c:2]1[n:3][o:4][c:5]([H:9])[c:6]1[H:10])([H:7])[H:8]>>[N:1]([C@@:6]([C:2]#[N:3])([C:5](=[O:4])[H:9])[H:10])([H:7])[H:8]"
N       -1.68745382       0.14862230      -0.06788279
C       -0.58465702      -0.47645316       0.80920276
N       -0.52619187      -1.58393099       1.27210636
O        1.76411661      -1.30259537      -0.39039263
C        1.57004141      -0.10685804      -0.31069615
C        0.36806169       0.47763279       0.21308689
H       -1.83844639      -0.43787387      -0.87990658
H       -1.66338088       1.11401097      -0.35669270
H        2.38684131       0.62343014      -0.46682737
H        0.21106896       1.54401524       0.17800221
10
Frame=2 idx=001234 GeodesicLength=0.20638165694189292 rxn_smarts="[N:1]([c:2]1[n:3][o:4][c:5]([H:9])[c:6]1[H:10])([H:7])[H:8]>>[N:1]([C@@:6]([C:2]#[N:3])([C:5](=[O:4])[H:9])[H:10])([H:7])[H:8]"
N       -1.68225159       0.18419607      -0.06018789
C       -0.57058298      -0.48940517       0.78727361
N       -0.48417676      -1.61076230       1.21528737
O        1.78477237      -1.29930788      -0.33951963
C        1.57754461      -0.09970846      -0.31566838
C        0.36087995       0.47717312       0.18412292
H       -1.96943443      -0.44968820      -0.79595332
H       -1.65037095       1.11336989      -0.44894434
H        2.40161631       0.62666994      -0.44535866
H        0.23200347       1.54746298       0.21894831
10
Frame=3 idx=001234 GeodesicLength=0.30340412831005636 rxn_smarts="[N:1]([c:2]1[n:3][o:4][c:5]([H:9])[c:6]1[H:10])([H:7])[H:8]>>[N:1]([C@@:6]([C:2]#[N:3])([C:5](=[O:4])[H:9])[H:10])([H:7])[H:8]"
N       -1.67159876       0.21829181      -0.06154248
C       -0.55923506      -0.50380096       0.76565017
N       -0.44848128      -1.63852597       1.15595511
O        1.80248984      -1.29327789      -0.28865151
C        1.58377638      -0.09198272      -0.31441427
C        0.35588251       0.47807545       0.16848538
H       -2.09162343      -0.44700869      -0.69893054
H       -1.63124612       1.09771333      -0.55295425
H        2.40868293       0.63306691      -0.44110190
H        0.25135299       1.54744871       0.26750430
10
Frame=4 idx=001234 GeodesicLength=0.39885194189127404 rxn_smarts="[N:1]([c:2]1[n:3][o:4][c:5]([H:9])[c:6]1[H:10])([H:7])[H:8]>>[N:1]([C@@:6]([C:2]#[N:3])([C:5](=[O:4])[H:9])[H:10])([H:7])[H:8]"
N       -1.65684916       0.24972079      -0.07087901
C       -0.54982455      -0.51933123       0.74473314
N       -0.41655574      -1.66681645       1.09172998
O        1.81677538      -1.28454951      -0.23332776
C        1.58604893      -0.08403284      -0.30948097
C        0.35286499       0.48070518       0.16678051
H       -2.19997941      -0.42544768      -0.59341126
H       -1.60718115       1.06416287      -0.66429216
H        2.40712354       0.64048814      -0.45460523
H        0.26757717       1.54510072       0.32275276
10
Frame=5 idx=001234 GeodesicLength=0.4916485887958193 rxn_smarts="[N:1]([c:2]1[n:3][o:4][c:5]([H:9])[c:6]1[H:10])([H:7])[H:8]>>[N:1]([C@@:6]([C:2]#[N:3])([C:5](=[O:4])[H:9])[H:10])([H:7])[H:8]"
N       -1.63972977       0.27772819      -0.08669335
C       -0.54207916      -0.53504183       0.72519214
N       -0.38798076      -1.69451311       1.02375594
O        1.82689452      -1.27267163      -0.17962327
C        1.58571165      -0.07508642      -0.30306778
C        0.35070519       0.48508291       0.17364493
H       -2.29520838      -0.38423287      -0.47989412
H       -1.58105106       1.00940883      -0.77958994
H        2.40174593       0.64740854      -0.47429854
H        0.28099184       1.54191740       0.38057399
10
Frame=6 idx=001234 GeodesicLength=0.5820672975762564 rxn_smarts="[N:1]([c:2]1[n:3][o:4][c:5]([H:9])[c:6]1[H:10])([H:7])[H:8]>>[N:1]([C@@:6]([C:2]#[N:3])([C:5](=[O:4])[H:9])[H:10])([H:7])[H:8]"
N       -1.62135612       0.30226794      -0.10777781
C       -0.53593480      -0.55049218       0.70750980
N       -0.36278169      -1.72124613       0.95269916
O        1.83210779      -1.25907251      -0.13229354
C        1.58360651      -0.06449518      -0.29531721
C        0.34866455       0.49138577       0.18510457
H       -2.37568535      -0.32159568      -0.35927792
H       -1.55562911       0.92956457      -0.89693297
H        2.39507562       0.65435335      -0.49329829
H        0.29193259       1.53933004       0.43958421
10
Frame=7 idx=001234 GeodesicLength=0.6708205774207957 rxn_smarts="[N:1]([c:2]1[n:3][o:4][c:5]([H:9])[c:6]1[H:10])([H:7])[H:8]>>[N:1]([C@@:6]([C:2]#[N:3])([C:5](=[O:4])[H:9])[H:10])([H:7])[H:8]"
N       -1.60158431       0.32366591      -0.13364741
C       -0.53056050      -0.56422055       0.69066119
N       -0.33890531      -1.74411847       0.88322063
O        1.83188254      -1.24701297      -0.10233311
C        1.58196579      -0.05198419      -0.28757764
C        0.34246368       0.49736437       0.19421878
H       -2.43856886      -0.23285710      -0.23214058
H       -1.53565085       0.82106249      -1.00933921
H        2.39394594       0.66283672      -0.49507928
H        0.29501188       1.53526380       0.49201662
10
Frame=8 idx=001234 GeodesicLength=0.7656068989542599 rxn_smarts="[N:1]([c:2]1[n:3][o:4][c:5]([H:9])[c:6]1[H:10])([H:7])[H:8]>>[N:1]([C@@:6]([C:2]#[N:3])([C:5](=[O:4])[H:9])[H:10])([H:7])[H:8]"
N       -1.58136682       0.34126025      -0.16412753
C       -0.52506324      -0.57756827       0.67706923
N       -0.31434269      -1.76284129       0.81796746
O        1.82398452      -1.23545868      -0.08339455
C        1.57646798      -0.03800222      -0.27857829
C        0.33464518       0.50385591       0.20495227
H       -2.47669728      -0.12278480      -0.11613200
H       -1.52167138       0.69008845      -1.10988504
H        2.38835735       0.67240322      -0.49366863
H        0.29568639       1.52904743       0.54579709
10
Frame=9 idx=001234 GeodesicLength=0.8613992937338707 rxn_smarts="[N:1]([c:2]1[n:3][o:4][c:5]([H:9])[c:6]1[H:10])([H:7])[H:8]>>[N:1]([C@@:6]([C:2]#[N:3])([C:5](=[O:4])[H:9])[H:10])([H:7])[H:8]"
N       -1.56074238       0.35499075      -0.19863083
C       -0.52122392      -0.58867678       0.66667978
N       -0.28964764      -1.77580566       0.76566420
O        1.80969711      -1.22597187      -0.07933114
C        1.56975394      -0.02309058      -0.26972512
C        0.32388467       0.50927200       0.21498496
H       -2.48764217      -0.00199331      -0.02377572
H       -1.51971448       0.54940330      -1.18738500
H        2.38367349       0.68280390      -0.48807159
H        0.29196136       1.51906824       0.59959046
10
Frame=10 idx=001234 GeodesicLength=0.9624228373404601 rxn_smarts="[N:1]([c:2]1[n:3][o:4][c:5]([H:9])[c:6]1[H:10])([H:7])[H:8]>>[N:1]([C@@:6]([C:2]#[N:3])([C:5](=[O:4])[H:9])[H:10])([H:7])[H:8]"
N       -1.53911381       0.36541875      -0.23728828
C       -0.51846964      -0.60054112       0.65947930
N       -0.26378568      -1.78688854       0.72173200
O        1.79120793      -1.21642809      -0.07935381
C        1.55970023      -0.00749480      -0.25934785
C        0.31316709       0.51465391       0.22964352
H       -2.47780976       0.12623167       0.04245641
H       -1.52441963       0.40479584      -1.24512712
H        2.37108376       0.69432321      -0.49219732
H        0.28843949       1.50592919       0.66000315
10
Frame=11 idx=001234 GeodesicLength=1.064061406048599 rxn_smarts="[N:1]([c:2]1[n:3][o:4][c:5]([H:9])[c:6]1[H:10])([H:7])[H:8]>>[N:1]([C@@:6]([C:2]#[N:3])([C:5](=[O:4])[H:9])[H:10])([H:7])[H:8]"
N       -1.51606879       0.37344891      -0.27850018
C       -0.51725426      -0.61293483       0.65233808
N       -0.23741247      -1.79649594       0.68512506
O        1.77314031      -1.20725698      -0.08068910
C        1.54913319       0.00778791      -0.24794773
C        0.30019600       0.51889968       0.24503260
H       -2.44838960       0.25681860       0.08488626
H       -1.53957725       0.26478813      -1.27999987
H        2.35521415       0.70623444      -0.50247761
H        0.28101872       1.48871007       0.72223249
10
Frame=12 idx=001234 GeodesicLength=1.1685081457870916 rxn_smarts="[N:1]([c:2]1[n:3][o:4][c:5]([H:9])[c:6]1[H:10])([H:7])[H:8]>>[N:1]([C@@:6]([C:2]#[N:3])([C:5](=[O:4])[H:9])[H:10])([H:7])[H:8]"
N       -1.49143903       0.37896348      -0.32269786
C       -0.51687652      -0.62654745       0.64621140
N       -0.20955006      -1.80550280       0.65486967
O        1.75433746      -1.19804259      -0.08363263
C        1.53782680       0.02335837      -0.23381828
C        0.28670144       0.52206659       0.26345362
H       -2.40308312       0.38822281       0.10494422
H       -1.56303896       0.13096428      -1.29645579
H        2.33338490       0.71903268      -0.52053907
H        0.27173709       1.46748463       0.78766471
10
Frame=13 idx=001234 GeodesicLength=1.274230184060444 rxn_smarts="[N:1]([c:2]1[n:3][o:4][c:5]([H:9])[c:6]1[H:10])([H:7])[H:8]>>[N:1]([C@@:6]([C:2]#[N:3])([C:5](=[O:4])[H:9])[H:10])([H:7])[H:8]"
N       -1.46494063       0.38205666      -0.36885076
C       -0.51721164      -0.64142416       0.63932413
N       -0.18106226      -1.81424708       0.62799435
O        1.73719390      -1.18872550      -0.08575791
C        1.52695176       0.03885808      -0.21728328
C        0.27173184       0.52407402       0.28266207
H       -2.34186195       0.51747850       0.10579630
H       -1.59722099       0.00679203      -1.29353264
H        2.30767524       0.73211859      -0.54302598
H        0.25874475       1.44301886       0.85267372
10
Frame=14 idx=001234 GeodesicLength=1.3826527245486193 rxn_smarts="[N:1]([c:2]1[n:3][o:4][c:5]([H:9])[c:6]1[H:10])([H:7])[H:8]>>[N:1]([C@@:6]([C:2]#[N:3])([C:5](=[O:4])[H:9])[H:10])([H:7])[H:8]"
N       -1.43607591       0.38207441      -0.41697492
C       -0.51758268      -0.65756243       0.63403739
N       -0.15097253      -1.82283707       0.60594504
O        1.71933411      -1.17921474      -0.09061545
C        1.51658279       0.05500367      -0.19595510
C        0.25628866       0.52473567       0.30490454
H       -2.26749832       0.64280524       0.08609176
H       -1.63794663      -0.10561092      -1.27430372
H        2.27481393       0.74549728      -0.57231703
H        0.24305658       1.41510889       0.91918748
10
Frame=15 idx=001234 GeodesicLength=1.4929452483630403 rxn_smarts="[N:1]([c:2]1[n:3][o:4][c:5]([H:9])[c:6]1[H:10])([H:7])[H:8]>>[N:1]([C@@:6]([C:2]#[N:3])([C:5](=[O:4])[H:9])[H:10])([H:7])[H:8]"
N       -1.40541073       0.37894004      -0.46563586
C       -0.51754242      -0.67490165       0.62917466
N       -0.11996538      -1.83119966       0.58526289
O        1.70318340      -1.16888322      -0.09432439
C        1.50635865       0.07125278      -0.17357157
C        0.23986238       0.52395280       0.32718988
H       -2.18094853       0.76063924       0.04919681
H       -1.68714769      -0.20294350      -1.23758984
H        2.23734777       0.75849089      -0.60265922
H        0.22426255       1.38465227       0.98295663
10
Frame=16 idx=001234 GeodesicLength=1.6046837603772401 rxn_smarts="[N:1]([c:2]1[n:3][o:4][c:5]([H:9])[c:6]1[H:10])([H:7])[H:8]>>[N:1]([C@@:6]([C:2]#[N:3])([C:5](=[O:4])[H:9])[H:10])([H:7])[H:8]"
N       -1.37399395       0.37238248      -0.51367664
C       -0.51660889      -0.69332304       0.62565063
N       -0.08816064      -1.83969611       0.56517142
O        1.68881205      -1.15761608      -0.09636173
C        1.49574400       0.08754774      -0.15150026
C        0.22265453       0.52166686       0.34912533
H       -2.08539096       0.86831409      -0.00319940
H       -1.74173683      -0.28247284      -1.18537751
H        2.19566938       0.77088836      -0.63298235
H        0.20301131       1.35230855       1.04315050
