11
Frame=0 idx=004182 GeodesicLength=0.0 rxn_smarts="[O:1]([C:2]([C@@:3]([O:4][H:11])([C:5]#[N:6])[H:10])([H:8])[H:9])[H:7]>>[O:1]([C:2]([C@@:3]1([H:10])[C:5]([O:4][H:11])=[N:6]1)([H:8])[H:9])[H:7]"
O        1.83053601      -0.43454131       1.07702598
C        0.87445061      -0.53641225       0.06112463
C       -0.40390986       0.03877412       0.48852579
O       -1.35369396       1.69151787      -0.37772009
C       -1.52855340       0.13132648      -0.37496887
N       -2.30863185      -0.60753067      -0.89712655
H        2.63313031      -0.88446132       0.80880170
H        1.18592643      -0.05784477      -0.87808281
H        0.62321320      -1.57943647      -0.19754778
H       -0.52259910       0.29131417       1.54056453
H       -1.02986835       1.94729410      -1.25059652
11
Frame=1 idx=004182 GeodesicLength=0.06965977160937083 rxn_smarts="[O:1]([C:2]([C@@:3]([O:4][H:11])([C:5]#[N:6])[H:10])([H:8])[H:9])[H:7]>>[O:1]([C:2]([C@@:3]1([H:10])[C:5]([O:4][H:11])=[N:6]1)([H:8])[H:9])[H:7]"
O        1.82992606      -0.36191659       1.04280232
C        0.85761487      -0.54986896       0.05346543
C       -0.42383506       0.02739658       0.47687976
O       -1.33249047       1.70132236      -0.35672158
C       -1.53181604       0.14151248      -0.40393757
N       -2.30415210      -0.62469758      -0.89271809
H        2.63449319      -0.81915349       0.79350073
H        1.15185294      -0.12693823      -0.91714402
H        0.62489296      -1.61112343      -0.13701499
H       -0.56343283       0.24021676       1.53520521
H       -0.94305351       1.98325010      -1.19431719
11
Frame=2 idx=004182 GeodesicLength=0.139870411858933 rxn_smarts="[O:1]([C:2]([C@@:3]([O:4][H:11])([C:5]#[N:6])[H:10])([H:8])[H:9])[H:7]>>[O:1]([C:2]([C@@:3]1([H:10])[C:5]([O:4][H:11])=[N:6]1)([H:8])[H:9])[H:7]"
O        1.82519864      -0.29249955       1.00592345
C        0.84109424      -0.56311491       0.04631414
C       -0.44403809       0.01605762       0.46443448
O       -1.31021441       1.70949171      -0.33752658
C       -1.53411109       0.15159475      -0.43460495
N       -2.30008304      -0.64133320      -0.88563520
H        2.63350885      -0.75335841       0.77616176
H        1.11968227      -0.19583835      -0.95087605
H        0.62847202      -1.63780027      -0.07736271
H       -0.60338346       0.19202015       1.52680462
H       -0.85612594       2.01478045      -1.13363295
11
Frame=3 idx=004182 GeodesicLength=0.2112836649270734 rxn_smarts="[O:1]([C:2]([C@@:3]([O:4][H:11])([C:5]#[N:6])[H:10])([H:8])[H:9])[H:7]>>[O:1]([C:2]([C@@:3]1([H:10])[C:5]([O:4][H:11])=[N:6]1)([H:8])[H:9])[H:7]"
O        1.81698013      -0.22560766       0.96619570
C        0.82479821      -0.57656296       0.03985691
C       -0.46444235       0.00472524       0.45126877
O       -1.28715961       1.71597799      -0.31980385
C       -1.53544021       0.16137638      -0.46670579
N       -2.29560047      -0.65646281      -0.87787838
H        2.63040842      -0.68692090       0.75623515
H        1.08897708      -0.26563266      -0.97984045
H        0.63385170      -1.66029249      -0.01723963
H       -0.64245544       0.14703616       1.51578968
H       -0.76991746       2.04236371      -1.06787811
11
Frame=4 idx=004182 GeodesicLength=0.28308715185710037 rxn_smarts="[O:1]([C:2]([C@@:3]([O:4][H:11])([C:5]#[N:6])[H:10])([H:8])[H:9])[H:7]>>[O:1]([C:2]([C@@:3]1([H:10])[C:5]([O:4][H:11])=[N:6]1)([H:8])[H:9])[H:7]"
O        1.80583928      -0.16369506       0.92537908
C        0.80894628      -0.58932064       0.03438839
C       -0.48464816      -0.00581318       0.43823738
O       -1.26317079       1.72083411      -0.30433766
C       -1.53633164       0.17079893      -0.49827734
N       -2.28993032      -0.67040733      -0.87003816
H        2.62539285      -0.62204191       0.73357226
H        1.06032923      -0.33280193      -1.00321929
H        0.64012360      -1.67761267       0.04081759
H       -0.68006598       0.10612509       1.50338738
H       -0.68648435       2.06393459      -0.99990963
11
Frame=5 idx=004182 GeodesicLength=0.35582344930745313 rxn_smarts="[O:1]([C:2]([C@@:3]([O:4][H:11])([C:5]#[N:6])[H:10])([H:8])[H:9])[H:7]>>[O:1]([C:2]([C@@:3]1([H:10])[C:5]([O:4][H:11])=[N:6]1)([H:8])[H:9])[H:7]"
O        1.79255662      -0.10580953       0.88323688
C        0.79351670      -0.60175139       0.03000060
C       -0.50451465      -0.01556124       0.42533980
O       -1.23851333       1.72423134      -0.29058203
C       -1.53666877       0.17975984      -0.52935864
N       -2.28264776      -0.68269703      -0.86352972
H        2.61875903      -0.55885226       0.70809842
H        1.03328573      -0.39860794      -1.02177723
H        0.64731991      -1.69061535       0.09815510
H       -0.71636249       0.06905722       1.48992585
H       -0.60673098       2.08084635      -0.92950902
11
Frame=6 idx=004182 GeodesicLength=0.4293424673436309 rxn_smarts="[O:1]([C:2]([C@@:3]([O:4][H:11])([C:5]#[N:6])[H:10])([H:8])[H:9])[H:7]>>[O:1]([C:2]([C@@:3]1([H:10])[C:5]([O:4][H:11])=[N:6]1)([H:8])[H:9])[H:7]"
O        1.77762497      -0.05256000       0.84072364
C        0.77852465      -0.61360878       0.02688395
C       -0.52394728      -0.02418434       0.41285244
O       -1.21339618       1.72646160      -0.27878291
C       -1.53655393       0.18838349      -0.55950027
N       -2.27367477      -0.69370045      -0.85872394
H        2.61100473      -0.49739853       0.67912530
H        1.00792331      -0.46229003      -1.03560367
H        0.65479695      -1.69935055       0.15441970
H       -0.75165364       0.03554453       1.47591103
H       -0.53064881       2.09270307      -0.85730527
11
Frame=7 idx=004182 GeodesicLength=0.5036819730473555 rxn_smarts="[O:1]([C:2]([C@@:3]([O:4][H:11])([C:5]#[N:6])[H:10])([H:8])[H:9])[H:7]>>[O:1]([C:2]([C@@:3]1([H:10])[C:5]([O:4][H:11])=[N:6]1)([H:8])[H:9])[H:7]"
O        1.76162384      -0.00365187       0.79803190
C        0.76403668      -0.62496343       0.02510397
C       -0.54279357      -0.03165289       0.40078999
O       -1.18779598       1.72769648      -0.26858686
C       -1.53580208       0.19664864      -0.58877006
N       -2.26293747      -0.70339277      -0.85589346
H        2.60231620      -0.43824858       0.64683380
H        0.98407369      -0.52407029      -1.04503988
H        0.66256442      -1.70418806       0.20991920
H       -0.78605212       0.00523923       1.46149431
H       -0.45923361       2.10058355      -0.78388291
11
Frame=8 idx=004182 GeodesicLength=0.5789440620518618 rxn_smarts="[O:1]([C:2]([C@@:3]([O:4][H:11])([C:5]#[N:6])[H:10])([H:8])[H:9])[H:7]>>[O:1]([C:2]([C@@:3]1([H:10])[C:5]([O:4][H:11])=[N:6]1)([H:8])[H:9])[H:7]"
O        1.74494792       0.04110747       0.75542371
C        0.75004670      -0.63583240       0.02473626
C       -0.56103870      -0.03789232       0.38909166
O       -1.16195205       1.72815413      -0.25997867
C       -1.53425707       0.20462166      -0.61743318
N       -2.25050096      -0.71197740      -0.85514749
H        2.59297843      -0.38124211       0.61069993
H        0.96166091      -0.58436564      -1.05034346
H        0.67039428      -1.70534685       0.26513239
H       -0.81991977      -0.02223497       1.44668207
H       -0.39235968       2.10500842      -0.70886322
11
Frame=9 idx=004182 GeodesicLength=0.6551060196390326 rxn_smarts="[O:1]([C:2]([C@@:3]([O:4][H:11])([C:5]#[N:6])[H:10])([H:8])[H:9])[H:7]>>[O:1]([C:2]([C@@:3]1([H:10])[C:5]([O:4][H:11])=[N:6]1)([H:8])[H:9])[H:7]"
O        1.72798025       0.08189844       0.71312870
C        0.73657643      -0.64618282       0.02583808
C       -0.57864312      -0.04288991       0.37772459
O       -1.13587984       1.72800387      -0.25280686
C       -1.53176084       0.21236646      -0.64565261
N       -2.23638872      -0.71956172      -0.85652093
H        2.58313884      -0.32650632       0.57045969
H        0.94058527      -0.64339408      -1.05166904
H        0.67815540      -1.70293673       0.32029794
H       -0.85347772      -0.04724074       1.43145434
H       -0.33028595       2.10644355      -0.63225391
11
Frame=10 idx=004182 GeodesicLength=0.7319735009119204 rxn_smarts="[O:1]([C:2]([C@@:3]([O:4][H:11])([C:5]#[N:6])[H:10])([H:8])[H:9])[H:7]>>[O:1]([C:2]([C@@:3]1([H:10])[C:5]([O:4][H:11])=[N:6]1)([H:8])[H:9])[H:7]"
O        1.71110046       0.11882492       0.67140165
C        0.72368896      -0.65591630       0.02833555
C       -0.59551787      -0.04661510       0.36667923
O       -1.10959524       1.72734680      -0.24701467
C       -1.52825961       0.21982514      -0.67344848
N       -2.22067408      -0.72638234      -0.85966584
H        2.57281594      -0.27470268       0.52653254
H        0.92083428      -0.70081982      -1.04925338
H        0.68579704      -1.69710591       0.37508059
H       -0.88669907      -0.06990058       1.41583232
H       -0.27349080       2.10544587      -0.55447951
11
Frame=11 idx=004182 GeodesicLength=0.8095033701701049 rxn_smarts="[O:1]([C:2]([C@@:3]([O:4][H:11])([C:5]#[N:6])[H:10])([H:8])[H:9])[H:7]>>[O:1]([C:2]([C@@:3]1([H:10])[C:5]([O:4][H:11])=[N:6]1)([H:8])[H:9])[H:7]"
O        1.69457392       0.15218331       0.63019262
C        0.71138580      -0.66504501       0.03218491
C       -0.61164707      -0.04912506       0.35585581
O       -1.08308767       1.72624685      -0.24261701
C       -1.52362582       0.22696609      -0.70104100
N       -2.20344983      -0.73253855      -0.86442700
H        2.56201355      -0.22599843       0.47892441
H        0.90229345      -0.75688459      -1.04328569
H        0.69330923      -1.68796688       0.42964852
H       -0.91965246      -0.09037031       1.39971732
H       -0.22211309       2.10253259      -0.47515289
11
Frame=12 idx=004182 GeodesicLength=0.8875349619127124 rxn_smarts="[O:1]([C:2]([C@@:3]([O:4][H:11])([C:5]#[N:6])[H:10])([H:8])[H:9])[H:7]>>[O:1]([C:2]([C@@:3]1([H:10])[C:5]([O:4][H:11])=[N:6]1)([H:8])[H:9])[H:7]"
O        1.67864355       0.18229039       0.58939746
C        0.69969931      -0.67346871       0.03724241
C       -0.62701416      -0.05047850       0.34519876
O       -1.05625660       1.72479655      -0.23962107
C       -1.51786411       0.23378350      -0.72846046
N       -2.18484149      -0.73816041      -0.87053915
H        2.55069157      -0.18077612       0.42810177
H        0.88486898      -0.81151737      -1.03402641
H        0.70069104      -1.67556875       0.48383075
H       -0.95226753      -0.10877604       1.38308598
H       -0.17635057       2.09787546      -0.39421003
11
Frame=13 idx=004182 GeodesicLength=0.9659780476101893 rxn_smarts="[O:1]([C:2]([C@@:3]([O:4][H:11])([C:5]#[N:6])[H:10])([H:8])[H:9])[H:7]>>[O:1]([C:2]([C@@:3]1([H:10])[C:5]([O:4][H:11])=[N:6]1)([H:8])[H:9])[H:7]"
O        1.66340620       0.20956032       0.54874548
C        0.68863321      -0.68114102       0.04338728
C       -0.64164821      -0.05082816       0.33466479
O       -1.02879377       1.72304896      -0.23792145
C       -1.51098591       0.24033891      -0.75570795
N       -2.16497990      -0.74323845      -0.87786157
H        2.53876757      -0.13916671       0.37446982
H        0.86839215      -0.86477410      -1.02168450
H        0.70802219      -1.65994283       0.53757625
H       -0.98450480      -0.12534776       1.36592144
H       -0.13630871       2.09149083      -0.31158960
11
Frame=14 idx=004182 GeodesicLength=1.0448927478794963 rxn_smarts="[O:1]([C:2]([C@@:3]([O:4][H:11])([C:5]#[N:6])[H:10])([H:8])[H:9])[H:7]>>[O:1]([C:2]([C@@:3]1([H:10])[C:5]([O:4][H:11])=[N:6]1)([H:8])[H:9])[H:7]"
O        1.64882416       0.23449880       0.50757362
C        0.67815829      -0.68815129       0.05055468
C       -0.65562129      -0.05039798       0.32414029
O       -1.00019056       1.72095683      -0.23753158
C       -1.50289120       0.24667583      -0.78295653
N       -2.14400490      -0.74766313      -0.88642408
H        2.52611475      -0.10114042       0.31811769
H        0.85264364      -0.91716767      -1.00631769
H        0.71555284      -1.64101726       0.59123392
H       -1.01641820      -0.14024872       1.34812962
H       -0.10216753       2.08365501      -0.22651994
11
Frame=15 idx=004182 GeodesicLength=1.1243355084064623 rxn_smarts="[O:1]([C:2]([C@@:3]([O:4][H:11])([C:5]#[N:6])[H:10])([H:8])[H:9])[H:7]>>[O:1]([C:2]([C@@:3]1([H:10])[C:5]([O:4][H:11])=[N:6]1)([H:8])[H:9])[H:7]"
O        1.63472166       0.25752991       0.46560718
C        0.66826650      -0.69440925       0.05871246
C       -0.66905185      -0.04944288       0.31369053
O       -0.96980126       1.71856425      -0.23793088
C       -1.49366540       0.25308865      -0.80998673
N       -2.12196315      -0.75125463      -0.89633336
H        2.51255161      -0.06645265       0.25927043
H        0.83743193      -0.96860613      -0.98796737
H        0.72339209      -1.61867053       0.64474020
H       -1.04808797      -0.15397509       1.32976782
H       -0.07379415       2.07362835      -0.13957028
11
Frame=16 idx=004182 GeodesicLength=1.2047213198997473 rxn_smarts="[O:1]([C:2]([C@@:3]([O:4][H:11])([C:5]#[N:6])[H:10])([H:8])[H:9])[H:7]>>[O:1]([C:2]([C@@:3]1([H:10])[C:5]([O:4][H:11])=[N:6]1)([H:8])[H:9])[H:7]"
O        1.62071848       0.27918796       0.42177549
C        0.65889594      -0.70007131       0.06784696
C       -0.68205867      -0.04827801       0.30318453
O       -0.93654042       1.71558745      -0.23928320
C       -1.48315821       0.25967407      -0.83698175
N       -2.09898058      -0.75381044      -0.90776181
H        2.49775960      -0.03496455       0.19780869
H        0.82249017      -1.01974220      -0.96649035
H        0.73200927      -1.59253217       0.69864812
H       -1.07963736      -0.16665854       1.31071261
H       -0.05149823       2.06160773      -0.04945929
