11
Frame=0 idx=001314 GeodesicLength=0.0 rxn_smarts="[C:1]([C:2]([C:3]#[C:4][C:5]#[N:6])([H:10])[H:11])([H:7])([H:8])[H:9]>>[C:1]([C:2]([C:3](=[C-:4])[N+:6]#[C:5])([H:10])[H:11])([H:7])([H:8])[H:9]"
C       -1.13728402      -0.82603647       0.38522298
C       -0.66712301       0.54005389      -0.11039780
C        0.73210766       0.54832022      -0.53377173
C        1.77692675       0.63691416      -1.25861117
C        3.10564903       0.24159795      -0.11411294
N        2.00932001       0.19643835       0.42034879
H       -0.55039830      -1.14683391       1.24628422
H       -1.03530621      -1.57941133      -0.39593554
H       -2.18394676      -0.77521001       0.68534004
H       -0.80782799       1.30384053       0.65863908
H       -1.24211720       0.86032660      -0.98300594
11
Frame=1 idx=001314 GeodesicLength=0.09462654422074462 rxn_smarts="[C:1]([C:2]([C:3]#[C:4][C:5]#[N:6])([H:10])[H:11])([H:7])([H:8])[H:9]>>[C:1]([C:2]([C:3](=[C-:4])[N+:6]#[C:5])([H:10])[H:11])([H:7])([H:8])[H:9]"
C       -1.15232843      -0.82523830       0.38552231
C       -0.66475733       0.53554933      -0.10856546
C        0.73843231       0.52550164      -0.52190227
C        1.76307477       0.62452673      -1.26991587
C        3.12852114       0.32580914      -0.11510722
N        2.05040714       0.14644820       0.41844308
H       -0.57283043      -1.15134436       1.24971130
H       -1.05431780      -1.58007508      -0.39489429
H       -2.19999149      -0.76447484       0.68102441
H       -0.80242946       1.30172281       0.65881822
H       -1.23378043       0.86157472      -0.98313423
11
Frame=2 idx=001314 GeodesicLength=0.1883866790299792 rxn_smarts="[C:1]([C:2]([C:3]#[C:4][C:5]#[N:6])([H:10])[H:11])([H:7])([H:8])[H:9]>>[C:1]([C:2]([C:3](=[C-:4])[N+:6]#[C:5])([H:10])[H:11])([H:7])([H:8])[H:9]"
C       -1.16493838      -0.82425928       0.38609435
C       -0.66283982       0.53155162      -0.10749361
C        0.74426754       0.50549757      -0.51011055
C        1.74901879       0.62087139      -1.27878702
C        3.14259684       0.39370077      -0.11557925
N        2.09278567       0.10106567       0.41530499
H       -0.59267799      -1.15348563       1.25399941
H       -1.06905373      -1.58105928      -0.39282517
H       -2.21369090      -0.75551423       0.67645730
H       -0.79935872       1.30047238       0.65750822
H       -1.22610929       0.86115902      -0.98456866
11
Frame=3 idx=001314 GeodesicLength=0.2816814230020278 rxn_smarts="[C:1]([C:2]([C:3]#[C:4][C:5]#[N:6])([H:10])[H:11])([H:7])([H:8])[H:9]>>[C:1]([C:2]([C:3](=[C-:4])[N+:6]#[C:5])([H:10])[H:11])([H:7])([H:8])[H:9]"
C       -1.17625233      -0.82307277       0.38696895
C       -0.66106820       0.52759506      -0.10708459
C        0.74964208       0.48620736      -0.49871303
C        1.73462386       0.62338390      -1.28590525
C        3.15142869       0.45353700      -0.11412397
N        2.13656346       0.05666291       0.40974606
H       -0.61102645      -1.15416419       1.25894966
H       -1.08196682      -1.58215782      -0.38980231
H       -2.22600527      -0.74711796       0.67200239
H       -0.79707882       1.29950261       0.65488743
H       -1.21886019       0.85962390      -0.98692534
11
Frame=4 idx=001314 GeodesicLength=0.3750066946011028 rxn_smarts="[C:1]([C:2]([C:3]#[C:4][C:5]#[N:6])([H:10])[H:11])([H:7])([H:8])[H:9]>>[C:1]([C:2]([C:3](=[C-:4])[N+:6]#[C:5])([H:10])[H:11])([H:7])([H:8])[H:9]"
C       -1.18651914      -0.82178780       0.38808701
C       -0.65952695       0.52376724      -0.10715691
C        0.75471643       0.46786883      -0.48778176
C        1.71991139       0.63093282      -1.29158048
C        3.15619035       0.50552105      -0.11073099
N        2.18186519       0.01411302       0.40178147
H       -0.62825644      -1.15347612       1.26436007
H       -1.09318094      -1.58364663      -0.38608273
H       -2.23725753      -0.73937232       0.66764372
H       -0.79581694       1.29904899       0.65135855
H       -1.21212543       0.85703092      -0.98989794
11
Frame=5 idx=001314 GeodesicLength=0.4684657520977108 rxn_smarts="[C:1]([C:2]([C:3]#[C:4][C:5]#[N:6])([H:10])[H:11])([H:7])([H:8])[H:9]>>[C:1]([C:2]([C:3](=[C-:4])[N+:6]#[C:5])([H:10])[H:11])([H:7])([H:8])[H:9]"
C       -1.19601904      -0.82039746       0.38946486
C       -0.65812884       0.51997591      -0.10773118
C        0.75947884       0.45000611      -0.47746108
C        1.70476487       0.64247405      -1.29596440
C        3.15784474       0.55195601      -0.10479904
N        2.22867361      -0.02746763       0.39099329
H       -0.64449994      -1.15174267       1.27019499
H       -1.10337625      -1.58537219      -0.38165697
H       -2.24770980      -0.73199877       0.66351627
H       -0.79511300       1.29891002       0.64687325
H       -1.20591519       0.85365663      -0.99343000
11
Frame=6 idx=001314 GeodesicLength=0.5621818624529811 rxn_smarts="[C:1]([C:2]([C:3]#[C:4][C:5]#[N:6])([H:10])[H:11])([H:7])([H:8])[H:9]>>[C:1]([C:2]([C:3](=[C-:4])[N+:6]#[C:5])([H:10])[H:11])([H:7])([H:8])[H:9]"
C       -1.20484960      -0.81891215       0.39107137
C       -0.65688511       0.51626184      -0.10876815
C        0.76396376       0.43270278      -0.46789997
C        1.68908061       0.65704986      -1.29912423
C        3.15693224       0.59347033      -0.09605042
N        2.27695233      -0.06794624       0.37724730
H       -0.65980758      -1.14907981       1.27632088
H       -1.11269377      -1.58733236      -0.37663450
H       -2.25746130      -0.72495854       0.65968352
H       -0.79493114       1.29911481       0.64154658
H       -1.20030045       0.84962948      -0.99739239
11
Frame=7 idx=001314 GeodesicLength=0.6561433385121064 rxn_smarts="[C:1]([C:2]([C:3]#[C:4][C:5]#[N:6])([H:10])[H:11])([H:7])([H:8])[H:9]>>[C:1]([C:2]([C:3](=[C-:4])[N+:6]#[C:5])([H:10])[H:11])([H:7])([H:8])[H:9]"
C       -1.21304782      -0.81732510       0.39286954
C       -0.65585647       0.51267974      -0.11022499
C        0.76813492       0.41616591      -0.45908469
C        1.67276891       0.67391919      -1.30101479
C        3.15398013       0.63023607      -0.08452415
N        2.32661344      -0.10709679       0.36056750
H       -0.67419604      -1.14550493       1.28267419
H       -1.12110055      -1.58947479      -0.37108245
H       -2.26655929      -0.71830347       0.65608598
H       -0.79537492       1.29966568       0.63545381
H       -1.19536232       0.84503849      -1.00171996
11
Frame=8 idx=001314 GeodesicLength=0.7503228404389717 rxn_smarts="[C:1]([C:2]([C:3]#[C:4][C:5]#[N:6])([H:10])[H:11])([H:7])([H:8])[H:9]>>[C:1]([C:2]([C:3](=[C-:4])[N+:6]#[C:5])([H:10])[H:11])([H:7])([H:8])[H:9]"
C       -1.22064497      -0.81563941       0.39482044
C       -0.65513019       0.50931390      -0.11203823
C        0.77197523       0.40068875      -0.45087066
C        1.65579054       0.69241948      -1.30159707
C        3.14949969       0.66223841      -0.07047887
N        2.37758765      -0.14465786       0.34108994
H       -0.68771579      -1.14103138       1.28922424
H       -1.12847391      -1.59175979      -0.36505899
H       -2.27507401      -0.71214610       0.65260403
H       -0.79664948       1.30060639       0.62867567
H       -1.19116477       0.83996761      -1.00637050
11
Frame=9 idx=001314 GeodesicLength=0.844623628502993 rxn_smarts="[C:1]([C:2]([C:3]#[C:4][C:5]#[N:6])([H:10])[H:11])([H:7])([H:8])[H:9]>>[C:1]([C:2]([C:3](=[C-:4])[N+:6]#[C:5])([H:10])[H:11])([H:7])([H:8])[H:9]"
C       -1.22769208      -0.81385646       0.39690377
C       -0.65477851       0.50620830      -0.11415713
C        0.77543980       0.38643730      -0.44310123
C        1.63819902       0.71211279      -1.30086130
C        3.14394423       0.68955611      -0.05414998
N        2.42981403      -0.18049386       0.31890660
H       -0.70044467      -1.13565450       1.29597910
H       -1.13476389      -1.59414759      -0.35859004
H       -2.28308716      -0.70656960       0.64914309
H       -0.79890624       1.30194133       0.62126197
H       -1.18772452       0.83446618      -1.01133486
11
Frame=10 idx=001314 GeodesicLength=0.9390237723167937 rxn_smarts="[C:1]([C:2]([C:3]#[C:4][C:5]#[N:6])([H:10])[H:11])([H:7])([H:8])[H:9]>>[C:1]([C:2]([C:3](=[C-:4])[N+:6]#[C:5])([H:10])[H:11])([H:7])([H:8])[H:9]"
C       -1.23425943      -0.81197971       0.39909210
C       -0.65486440       0.50339513      -0.11650916
C        0.77851901       0.37353774      -0.43558665
C        1.62005679       0.73256537      -1.29881038
C        3.13769784       0.71226548      -0.03585892
N        2.48332681      -0.21439676       0.29415421
H       -0.71253770      -1.12939507       1.30293014
H       -1.13993280      -1.59661665      -0.35171098
H       -2.29068688      -0.70161627       0.64558119
H       -0.80229787       1.30366959       0.61329420
H       -1.18502138       0.82857115      -1.01657576
11
Frame=11 idx=001314 GeodesicLength=1.03347308346238 rxn_smarts="[C:1]([C:2]([C:3]#[C:4][C:5]#[N:6])([H:10])[H:11])([H:7])([H:8])[H:9]>>[C:1]([C:2]([C:3](=[C-:4])[N+:6]#[C:5])([H:10])[H:11])([H:7])([H:8])[H:9]"
C       -1.24042110      -0.81001740       0.40138441
C       -0.65543096       0.50089056      -0.11905413
C        0.78120636       0.36203585      -0.42815177
C        1.60145741       0.75360595      -1.29545402
C        3.13106683       0.73045729      -0.01583104
N        2.53815909      -0.24631158       0.26687991
H       -0.72413335      -1.12225365       1.31011920
H       -1.14397933      -1.59916493      -0.34440224
H       -2.29798101      -0.69733624       0.64183248
H       -0.80692649       1.30580234       0.60478851
H       -1.18301745       0.82229181      -1.02211129
11
Frame=12 idx=001314 GeodesicLength=1.1279325858585612 rxn_smarts="[C:1]([C:2]([C:3]#[C:4][C:5]#[N:6])([H:10])[H:11])([H:7])([H:8])[H:9]>>[C:1]([C:2]([C:3](=[C-:4])[N+:6]#[C:5])([H:10])[H:11])([H:7])([H:8])[H:9]"
C       -1.24625607      -0.80797470       0.40377692
C       -0.65650837       0.49869442      -0.12175119
C        0.78349686       0.35193713      -0.42064391
C        1.58249313       0.77507020      -1.29079720
C        3.12429899       0.74420890       0.00571621
N        2.59437941      -0.27611747       0.23713498
H       -0.73538521      -1.11424260       1.31757342
H       -1.14692915      -1.60178784      -0.33665521
H       -2.30506858      -0.69374340       0.63782355
H       -0.81286664       1.30832647       0.59576640
H       -1.18165438       0.81562890      -1.02794398
11
Frame=13 idx=001314 GeodesicLength=1.2224101805506615 rxn_smarts="[C:1]([C:2]([C:3]#[C:4][C:5]#[N:6])([H:10])[H:11])([H:7])([H:8])[H:9]>>[C:1]([C:2]([C:3](=[C-:4])[N+:6]#[C:5])([H:10])[H:11])([H:7])([H:8])[H:9]"
C       -1.25186304      -0.80585758       0.40623724
C       -0.65810419       0.49679739      -0.12453461
C        0.78540471       0.34319220      -0.41291338
C        1.56323328       0.79658542      -1.28492114
C        3.11758658       0.75366164       0.02846429
N        2.65210873      -0.30349841       0.20516850
H       -0.74645557      -1.10547304       1.32523724
H       -1.14889681      -1.60444539      -0.32854177
H       -2.31203871      -0.69078912       0.63350973
H       -0.82012489       1.31119413       0.58630930
H       -1.18085009       0.80863276      -1.03401541
11
Frame=14 idx=001314 GeodesicLength=1.3168978586345723 rxn_smarts="[C:1]([C:2]([C:3]#[C:4][C:5]#[N:6])([H:10])[H:11])([H:7])([H:8])[H:9]>>[C:1]([C:2]([C:3](=[C-:4])[N+:6]#[C:5])([H:10])[H:11])([H:7])([H:8])[H:9]"
C       -1.25730662      -0.80367323       0.40876899
C       -0.66024068       0.49521142      -0.12738343
C        0.78693062       0.33581109      -0.40481928
C        1.54374146       0.81810039      -1.27785862
C        3.11111042       0.75880282       0.05221986
N        2.71141238      -0.32837035       0.17107043
H       -0.75745521      -1.09596415       1.33313991
H       -1.14990388      -1.60713233      -0.32003989
H       -2.31898048      -0.68851028       0.62885196
H       -0.82875495       1.31442018       0.57640440
H       -1.18055305       0.80130444      -1.04035435
11
Frame=15 idx=001314 GeodesicLength=1.4113854351289854 rxn_smarts="[C:1]([C:2]([C:3]#[C:4][C:5]#[N:6])([H:10])[H:11])([H:7])([H:8])[H:9]>>[C:1]([C:2]([C:3](=[C-:4])[N+:6]#[C:5])([H:10])[H:11])([H:7])([H:8])[H:9]"
C       -1.26268068      -0.80142031       0.41134720
C       -0.66290677       0.49390730      -0.13025187
C        0.78806710       0.32967206      -0.39628835
C        1.52408687       0.83932905      -1.26971356
C        3.10495254       0.75976181       0.07675202
N        2.77244235      -0.35042877       0.13508614
H       -0.76850919      -1.08581846       1.34121528
H       -1.15012185      -1.60980068      -0.31121566
H       -2.32595977      -0.68682724       0.62385551
H       -0.83868633       1.31793371       0.56611668
H       -1.18068426       0.79369153      -1.04690340
11
Frame=16 idx=001314 GeodesicLength=1.5058567250775314 rxn_smarts="[C:1]([C:2]([C:3]#[C:4][C:5]#[N:6])([H:10])[H:11])([H:7])([H:8])[H:9]>>[C:1]([C:2]([C:3](=[C-:4])[N+:6]#[C:5])([H:10])[H:11])([H:7])([H:8])[H:9]"
C       -1.26805408      -0.79909695       0.41397861
C       -0.66610243       0.49286416      -0.13313958
C        0.78879580       0.32467601      -0.38729495
C        1.50434197       0.86024036      -1.26052371
C        3.09914299       0.75652178       0.10198153
N        2.83534653      -0.36949772       0.09729610
H       -0.77969850      -1.07506850       1.34945372
H       -1.14967587      -1.61243852      -0.30205836
H       -2.33303118      -0.68570216       0.61855521
H       -0.84987452       1.32171072       0.55542960
H       -1.18119072       0.78579083      -1.05367817
