15
Frame=0 idx=011878 GeodesicLength=0.0 rxn_smarts="[C:1]([C:2]([n:3]1[c:4]([H:13])[c:5]([H:14])[n:6][c:7]1[H:15])([H:11])[H:12])([H:8])([H:9])[H:10]>>[C:1]([C@:7]1([H:15])[N+:3]([C-:2]([H:11])[H:12])=[C:4]([H:13])[C:5]([H:14])=[N:6]1)([H:8])([H:9])[H:10]"
C       -1.33956833       0.82149449       0.55098240
C       -0.80470914      -0.68091956      -0.89294415
N        0.50688920      -0.48883811      -1.11320212
C        1.42114843      -1.18319495      -0.21367288
C        1.77620619      -0.31178755       0.75129342
N        1.13114910       0.88311097       0.72304201
C        0.22398226       0.83748672      -0.28229997
H       -2.31173729       0.83540345       0.05344684
H       -1.31414187       0.12464304       1.38398649
H       -1.15903457       1.81498117       0.95853592
H       -1.49746984      -0.25698979      -1.61053789
H       -1.15654734      -1.48786609      -0.25901054
H        1.92039719      -2.06852879      -0.57018529
H        2.53012930      -0.49108254       1.50722760
H        0.07330667       1.65208755      -0.98666189
15
Frame=1 idx=011878 GeodesicLength=0.0954930642856985 rxn_smarts="[C:1]([C:2]([n:3]1[c:4]([H:13])[c:5]([H:14])[n:6][c:7]1[H:15])([H:11])[H:12])([H:8])([H:9])[H:10]>>[C:1]([C@:7]1([H:15])[N+:3]([C-:2]([H:11])[H:12])=[C:4]([H:13])[C:5]([H:14])=[N:6]1)([H:8])([H:9])[H:10]"
C       -1.34469938       0.80846024       0.55164957
C       -0.81514586      -0.67888692      -0.89947082
N        0.50170792      -0.48175845      -1.09244273
C        1.41141307      -1.17817868      -0.20039295
C        1.79749825      -0.29656215       0.74676449
N        1.15773968       0.89916215       0.71688132
C        0.24078390       0.84761973      -0.28045967
H       -2.32237079       0.82155129       0.06496685
H       -1.31273491       0.11307028       1.38616517
H       -1.17889771       1.80345488       0.96229707
H       -1.49044735      -0.24277496      -1.62624050
H       -1.17060660      -1.50846115      -0.29800430
H        1.87177299      -2.09248130      -0.53493530
H        2.56337971      -0.47394924       1.49091691
H        0.09060708       1.65973427      -0.98769512
15
Frame=2 idx=011878 GeodesicLength=0.19081015621627237 rxn_smarts="[C:1]([C:2]([n:3]1[c:4]([H:13])[c:5]([H:14])[n:6][c:7]1[H:15])([H:11])[H:12])([H:8])([H:9])[H:10]>>[C:1]([C@:7]1([H:15])[N+:3]([C-:2]([H:11])[H:12])=[C:4]([H:13])[C:5]([H:14])=[N:6]1)([H:8])([H:9])[H:10]"
C       -1.34987591       0.79534596       0.55234999
C       -0.82577212      -0.67699878      -0.90597932
N        0.49583932      -0.47470897      -1.07108901
C        1.40145304      -1.17298283      -0.18676561
C        1.81891835      -0.28176124       0.74157634
N        1.18507895       0.91510353       0.71003596
C        0.25772328       0.85788581      -0.27854639
H       -2.33309206       0.80709737       0.07687950
H       -1.31134655       0.10156838       1.38845165
H       -1.19852600       1.79168045       0.96584016
H       -1.48335924      -0.22867158      -1.64141752
H       -1.18393462      -1.52872906      -0.33843944
H        1.82255619      -2.11395077      -0.49779417
H        2.59617825      -0.45801329       1.47398833
H        0.10815913       1.66713502      -0.98909048
15
Frame=3 idx=011878 GeodesicLength=0.2859632445447841 rxn_smarts="[C:1]([C:2]([n:3]1[c:4]([H:13])[c:5]([H:14])[n:6][c:7]1[H:15])([H:11])[H:12])([H:8])([H:9])[H:10]>>[C:1]([C@:7]1([H:15])[N+:3]([C-:2]([H:11])[H:12])=[C:4]([H:13])[C:5]([H:14])=[N:6]1)([H:8])([H:9])[H:10]"
C       -1.35518600       0.78217697       0.55306972
C       -0.83659099      -0.67526531      -0.91244237
N        0.48925158      -0.46764829      -1.04906001
C        1.39124272      -1.16762312      -0.17276558
C        1.84038068      -0.26750437       0.73580361
N        1.21314697       0.93083744       0.70255486
C        0.27479122       0.86826376      -0.27648963
H       -2.34393597       0.79207206       0.08909321
H       -1.31012270       0.09018652       1.39085259
H       -1.21800393       1.77970417       0.96913377
H       -1.47618746      -0.21470281      -1.65606638
H       -1.19643259      -1.54861207      -0.38031556
H        1.77285813      -2.13290844      -0.45880805
H        2.62876920      -0.44324232       1.45622613
H        0.12601915       1.67426582      -0.99078631
15
Frame=4 idx=011878 GeodesicLength=0.3809570242420935 rxn_smarts="[C:1]([C:2]([n:3]1[c:4]([H:13])[c:5]([H:14])[n:6][c:7]1[H:15])([H:11])[H:12])([H:8])([H:9])[H:10]>>[C:1]([C@:7]1([H:15])[N+:3]([C-:2]([H:11])[H:12])=[C:4]([H:13])[C:5]([H:14])=[N:6]1)([H:8])([H:9])[H:10]"
C       -1.36065446       0.76897909       0.55382909
C       -0.84759681      -0.67372112      -0.91879645
N        0.48190040      -0.46050995      -1.02634874
C        1.38084840      -1.16204226      -0.15851441
C        1.86192274      -0.25380681       0.72933719
N        1.24200427       0.94634648       0.69432329
C        0.29198215       0.87876299      -0.27430427
H       -2.35491129       0.77646145       0.10161988
H       -1.30906048       0.07900170       1.39342676
H       -1.23735864       1.76759268       0.97213658
H       -1.46898186      -0.20096187      -1.67011137
H       -1.20790453      -1.56807111      -0.42353664
H        1.72285715      -2.14927561      -0.41816948
H        2.66079016      -0.42986590       1.43792131
H        0.14416280       1.68111024      -0.99281274
15
Frame=5 idx=011878 GeodesicLength=0.4758056906519701 rxn_smarts="[C:1]([C:2]([n:3]1[c:4]([H:13])[c:5]([H:14])[n:6][c:7]1[H:15])([H:11])[H:12])([H:8])([H:9])[H:10]>>[C:1]([C@:7]1([H:15])[N+:3]([C-:2]([H:11])[H:12])=[C:4]([H:13])[C:5]([H:14])=[N:6]1)([H:8])([H:9])[H:10]"
C       -1.36639998       0.75577610       0.55460868
C       -0.85877478      -0.67236998      -0.92501742
N        0.47376926      -0.45324066      -1.00284971
C        1.37025563      -1.15626576      -0.14398115
C        1.88343904      -0.24080511       0.72229788
N        1.27161414       0.96151050       0.68543198
C        0.30928713       0.88935823      -0.27188386
H       -2.36607515       0.76030282       0.11433416
H       -1.30835942       0.06806156       1.39617647
H       -1.25672239       1.75539453       0.97480622
H       -1.46169156      -0.18746319      -1.68356516
H       -1.21823216      -1.58703678      -0.46811200
H        1.67258283      -2.16307786      -0.37587428
H        2.69264854      -0.41779000       1.41869247
H        0.16265886       1.68764562      -0.99506429
15
Frame=6 idx=011878 GeodesicLength=0.5705103229707869 rxn_smarts="[C:1]([C:2]([n:3]1[c:4]([H:13])[c:5]([H:14])[n:6][c:7]1[H:15])([H:11])[H:12])([H:8])([H:9])[H:10]>>[C:1]([C@:7]1([H:15])[N+:3]([C-:2]([H:11])[H:12])=[C:4]([H:13])[C:5]([H:14])=[N:6]1)([H:8])([H:9])[H:10]"
C       -1.37244572       0.74258813       0.55544180
C       -0.87011121      -0.67124155      -0.93103846
N        0.46481555      -0.44575745      -0.97856336
C        1.35955254      -1.15022997      -0.12933580
C        1.90498779      -0.22850229       0.71454201
N        1.30204710       0.97631308       0.67573862
C        0.32669932       0.90006367      -0.26924533
H       -2.37743780       0.74357500       0.12726246
H       -1.30800509       0.05744068       1.39917517
H       -1.27613040       1.74317492       0.97710232
H       -1.45436552      -0.17429673      -1.69635224
H       -1.22717883      -1.60547292      -0.51395612
H        1.62216770      -2.17426599      -0.33207962
H        2.72394217      -0.40724964       1.39887428
H        0.18146239       1.69386106      -0.99756574
15
Frame=7 idx=011878 GeodesicLength=0.6650770038470764 rxn_smarts="[C:1]([C:2]([n:3]1[c:4]([H:13])[c:5]([H:14])[n:6][c:7]1[H:15])([H:11])[H:12])([H:8])([H:9])[H:10]>>[C:1]([C@:7]1([H:15])[N+:3]([C-:2]([H:11])[H:12])=[C:4]([H:13])[C:5]([H:14])=[N:6]1)([H:8])([H:9])[H:10]"
C       -1.37886957       0.72943574       0.55633794
C       -0.88158554      -0.67035256      -0.93680925
N        0.45501311      -0.43798825      -0.95342817
C        1.34878551      -1.14392473      -0.11466798
C        1.92654825      -0.21697234       0.70605209
N        1.33332039       0.99067446       0.66521196
C        0.34421181       0.91086987      -0.26633513
H       -2.38903945       0.72628627       0.14035081
H       -1.30810119       0.04720558       1.40246568
H       -1.29568101       1.73099197       0.97897500
H       -1.44699695      -0.16151433      -1.70843944
H       -1.23454900      -1.62331384      -0.56102436
H        1.57167494      -2.18282594      -0.28685871
H        2.75468797      -0.39830633       1.37843296
H        0.20058073       1.69973443      -1.00026340
15
Frame=8 idx=011878 GeodesicLength=0.7595175824367807 rxn_smarts="[C:1]([C:2]([n:3]1[c:4]([H:13])[c:5]([H:14])[n:6][c:7]1[H:15])([H:11])[H:12])([H:8])([H:9])[H:10]>>[C:1]([C@:7]1([H:15])[N+:3]([C-:2]([H:11])[H:12])=[C:4]([H:13])[C:5]([H:14])=[N:6]1)([H:8])([H:9])[H:10]"
C       -1.38576435       0.71632841       0.55730813
C       -0.89316919      -0.66970916      -0.94229543
N        0.44434171      -0.42985875      -0.92736761
C        1.33799407      -1.13735330      -0.10005786
C        1.94810042      -0.20629257       0.69682406
N        1.36543961       1.00450517       0.65384643
C        0.36181506       0.92176641      -0.26307764
H       -2.40093145       0.70844280       0.15352860
H       -1.30877685       0.03740003       1.40608695
H       -1.31549492       1.71888979       0.98038479
H       -1.43955238      -0.14913972      -1.71981729
H       -1.24013629      -1.64048502      -0.60932749
H        1.52107925      -2.18877150      -0.24014934
H        2.78503692      -0.39097356       1.35718894
H        0.22001838       1.70525097      -1.00307524
15
Frame=9 idx=011878 GeodesicLength=0.8538371253299064 rxn_smarts="[C:1]([C:2]([n:3]1[c:4]([H:13])[c:5]([H:14])[n:6][c:7]1[H:15])([H:11])[H:12])([H:8])([H:9])[H:10]>>[C:1]([C@:7]1([H:15])[N+:3]([C-:2]([H:11])[H:12])=[C:4]([H:13])[C:5]([H:14])=[N:6]1)([H:8])([H:9])[H:10]"
C       -1.39323263       0.70328167       0.55836316
C       -0.90481817      -0.66932506      -0.94744516
N        0.43279168      -0.42130340      -0.90029019
C        1.32722754      -1.13053978      -0.08559040
C        1.96962457      -0.19654699       0.68683889
N        1.39840960       1.01770203       0.64162109
C        0.37950582       0.93273301      -0.25939554
H       -2.41317658       0.69005419       0.16672551
H       -1.31017971       0.02808989       1.41008638
H       -1.33571281       1.70692345       0.98126883
H       -1.43198556      -0.13721148      -1.73045433
H       -1.24372755      -1.65687903      -0.65881569
H        1.47040890      -2.19205659      -0.19197505
H        2.81507950      -0.38529910       1.33498185
H        0.23978540       1.71037719      -1.00591934
15
Frame=10 idx=011878 GeodesicLength=0.948044955191381 rxn_smarts="[C:1]([C:2]([n:3]1[c:4]([H:13])[c:5]([H:14])[n:6][c:7]1[H:15])([H:11])[H:12])([H:8])([H:9])[H:10]>>[C:1]([C@:7]1([H:15])[N+:3]([C-:2]([H:11])[H:12])=[C:4]([H:13])[C:5]([H:14])=[N:6]1)([H:8])([H:9])[H:10]"
C       -1.40134604       0.69030065       0.55953096
C       -0.91650290      -0.66921476      -0.95220623
N        0.42032965      -0.41224753      -0.87212599
C        1.31653772      -1.12348546      -0.07141221
C        1.99116045      -0.18778413       0.67598367
N        1.43226276       1.03018397       0.62845390
C        0.39727524       0.94375931      -0.25523687
H       -2.42581753       0.67111362       0.17990102
H       -1.31239433       0.01933141       1.41452625
H       -1.35643435       1.69513627       0.98157987
H       -1.42428518      -0.12576701      -1.74031119
H       -1.24506330      -1.67239410      -0.70946798
H        1.41969603      -2.19262328      -0.14230665
H        2.84474164      -0.38139662       1.31182605
H        0.25984013       1.71508767      -1.00873461
15
Frame=11 idx=011878 GeodesicLength=1.0421488671508954 rxn_smarts="[C:1]([C:2]([n:3]1[c:4]([H:13])[c:5]([H:14])[n:6][c:7]1[H:15])([H:11])[H:12])([H:8])([H:9])[H:10]>>[C:1]([C@:7]1([H:15])[N+:3]([C-:2]([H:11])[H:12])=[C:4]([H:13])[C:5]([H:14])=[N:6]1)([H:8])([H:9])[H:10]"
C       -1.41023708       0.67739428       0.56081609
C       -0.92816719      -0.66938365      -0.95653697
N        0.40694163      -0.40263951      -0.84272903
C        1.30592181      -1.11625139      -0.05755930
C        2.01268109      -0.18010616       0.66425199
N        1.46697147       1.04181529       0.61437610
C        0.41511367       0.95480889      -0.25047618
H       -2.43893609       0.65163874       0.19293333
H       -1.31563237       0.01118257       1.41944850
H       -1.37783687       1.68357194       0.98124741
H       -1.41635454      -0.11481338      -1.74937919
H       -1.24389899      -1.68687697      -0.76128133
H        1.36893726      -2.19040124      -0.09102728
H        2.87430933      -0.37927537       1.28730265
H        0.28018687       1.71933595      -1.01138677
15
Frame=12 idx=011878 GeodesicLength=1.136175349137462 rxn_smarts="[C:1]([C:2]([n:3]1[c:4]([H:13])[c:5]([H:14])[n:6][c:7]1[H:15])([H:11])[H:12])([H:8])([H:9])[H:10]>>[C:1]([C@:7]1([H:15])[N+:3]([C-:2]([H:11])[H:12])=[C:4]([H:13])[C:5]([H:14])=[N:6]1)([H:8])([H:9])[H:10]"
C       -1.42003283       0.66456973       0.56223091
C       -0.93975280      -0.66984332      -0.96038331
N        0.39261138      -0.39242878      -0.81195309
C        1.29538392      -1.10889798      -0.04408917
C        2.03421513      -0.17359719       0.65154810
N        1.50253289       1.05247135       0.59936495
C        0.43301642       0.96585024      -0.24500739
H       -2.45262345       0.63163780       0.20571780
H       -1.32008520       0.00370522       1.42490769
H       -1.40009164       1.67227583       0.98019243
H       -1.40811124      -0.10436196      -1.75762626
H       -1.23996752      -1.70015061      -0.81420822
H        1.31819932      -2.18528444      -0.03806913
H        2.90390550      -0.37902365       1.26113578
H        0.30080012       1.72307777      -1.01376108
15
Frame=13 idx=011878 GeodesicLength=1.2301205875750796 rxn_smarts="[C:1]([C:2]([n:3]1[c:4]([H:13])[c:5]([H:14])[n:6][c:7]1[H:15])([H:11])[H:12])([H:8])([H:9])[H:10]>>[C:1]([C@:7]1([H:15])[N+:3]([C-:2]([H:11])[H:12])=[C:4]([H:13])[C:5]([H:14])=[N:6]1)([H:8])([H:9])[H:10]"
C       -1.43091629       0.65183562       0.56376205
C       -0.95113849      -0.67059543      -0.96370634
N        0.37734756      -0.38158604      -0.77957642
C        1.28486496      -1.10153009      -0.03094178
C        2.05571758      -0.16838204       0.63786442
N        1.53886126       1.06197664       0.58352899
C        0.45097276       0.97682298      -0.23864133
H       -2.46699759       0.61112341       0.21806679
H       -1.32606776      -0.00302567       1.43093883
H       -1.42345911       1.66129399       0.97829836
H       -1.39935083      -0.09440690      -1.76504580
H       -1.23298648      -1.71196798      -0.86818766
H        1.26748221      -2.17712844       0.01675065
H        2.93397710      -0.38066975       1.23254288
H        0.32169313       1.72623970      -1.01565365
15
Frame=14 idx=011878 GeodesicLength=1.3240003551066941 rxn_smarts="[C:1]([C:2]([n:3]1[c:4]([H:13])[c:5]([H:14])[n:6][c:7]1[H:15])([H:11])[H:12])([H:8])([H:9])[H:10]>>[C:1]([C@:7]1([H:15])[N+:3]([C-:2]([H:11])[H:12])=[C:4]([H:13])[C:5]([H:14])=[N:6]1)([H:8])([H:9])[H:10]"
C       -1.44300730       0.63927214       0.56542742
C       -0.96228395      -0.67169515      -0.96634448
N        0.36109270      -0.37008532      -0.74540732
C        1.27431164      -1.09419936      -0.01814065
C        2.07723222      -0.16454015       0.62301358
N        1.57597185       1.07021728       0.56674572
C        0.46897798       0.98768712      -0.23131152
H       -2.48215421       0.59017064       0.22987785
H       -1.33376495      -0.00880618       1.43764993
H       -1.44807660       1.65076522       0.97540581
H       -1.39003951      -0.08505312      -1.77151313
H       -1.22265965      -1.72212823      -0.92289739
H        1.21743672      -2.16586527       0.07278771
H        2.96417910      -0.38447045       1.20172349
H        0.34278397       1.72873084      -1.01701702
15
Frame=15 idx=011878 GeodesicLength=1.4178069437598133 rxn_smarts="[C:1]([C:2]([n:3]1[c:4]([H:13])[c:5]([H:14])[n:6][c:7]1[H:15])([H:11])[H:12])([H:8])([H:9])[H:10]>>[C:1]([C@:7]1([H:15])[N+:3]([C-:2]([H:11])[H:12])=[C:4]([H:13])[C:5]([H:14])=[N:6]1)([H:8])([H:9])[H:10]"
C       -1.45647957       0.62697604       0.56721851
C       -0.97307953      -0.67318408      -0.96813122
N        0.34382480      -0.35790988      -0.70917577
C        1.26363224      -1.08696831      -0.00560006
C        2.09871606      -0.16217724       0.60691304
N        1.61380107       1.07704668       0.54899465
C        0.48702723       0.99838139      -0.22288648
H       -2.49822134       0.56885429       0.24098715
H       -1.34347036      -0.01338322       1.44513391
H       -1.47417475       1.64084892       0.97128943
H       -1.38002758      -0.07639583      -1.77690902
H       -1.20872023      -1.73036568      -0.97791930
H        1.16872646      -2.15156762       0.12930449
H        2.99442263      -0.39058701       1.16851233
H        0.36402288       1.73043157      -1.01773164
15
Frame=16 idx=011878 GeodesicLength=1.511535329010762 rxn_smarts="[C:1]([C:2]([n:3]1[c:4]([H:13])[c:5]([H:14])[n:6][c:7]1[H:15])([H:11])[H:12])([H:8])([H:9])[H:10]>>[C:1]([C@:7]1([H:15])[N+:3]([C-:2]([H:11])[H:12])=[C:4]([H:13])[C:5]([H:14])=[N:6]1)([H:8])([H:9])[H:10]"
C       -1.47152821       0.61506603       0.56911976
C       -0.98338750      -0.67509842      -0.96888203
N        0.32553030      -0.34504272      -0.67056901
C        1.25272992      -1.07987408       0.00681137
C        2.12010488      -0.16138336       0.58951111
N        1.65225555       1.08233815       0.53027724
C        0.50511443       1.00885070      -0.21322495
H       -2.51534441       0.54727591       0.25119518
H       -1.35552603      -0.01647052       1.45348574
H       -1.50200600       1.63172644       0.96569690
H       -1.36912238      -0.06852328      -1.78110857
H       -1.19092496      -1.73640585      -1.03274149
H        1.12211441      -2.13454664       0.18541913
H        3.02465132      -0.39914341       1.13267789
H        0.38533866       1.73123104      -1.01766827
