14
Frame=0 idx=007282 GeodesicLength=0.0 rxn_smarts="[O:1]([C@@:2]1([H:9])[C:3]([H:10])([H:11])[N:4]([H:12])[C:5]([H:13])([H:14])[C:6]1=[O:7])[H:8]>>[C-:6]#[O+:7].[N:4](=[C:5]([H:13])[H:14])[H:12].[O:1]([C:2](=[C:3]([H:10])[H:11])[H:9])[H:8]"
O        2.24430875      -0.00958350      -0.15910331
C        1.18562790       0.30005625       0.66636805
C        0.38740064       1.35948547       0.33175916
N       -1.40726626       0.74018603      -0.70165395
C       -1.74936454      -0.47435500      -0.33967551
C       -0.06183450      -1.34954521       0.27583239
O        0.49205101      -2.27865270      -0.10833194
H        2.44776712      -0.94642545      -0.08370709
H        1.29014384       0.00617807       1.70698130
H       -0.22190140       1.82215878       1.09114063
H        0.63335598       1.95679775      -0.53428949
H       -1.02522981       0.72741444      -1.64478059
H       -1.88075564      -1.27226742      -1.07146394
H       -2.33430304      -0.58144747       0.57092426
14
Frame=1 idx=007282 GeodesicLength=0.0729243882632007 rxn_smarts="[O:1]([C@@:2]1([H:9])[C:3]([H:10])([H:11])[N:4]([H:12])[C:5]([H:13])([H:14])[C:6]1=[O:7])[H:8]>>[C-:6]#[O+:7].[N:4](=[C:5]([H:13])[H:14])[H:12].[O:1]([C:2](=[C:3]([H:10])[H:11])[H:9])[H:8]"
O        2.23777030      -0.00727656      -0.16858219
C        1.18319256       0.30533160       0.66018200
C        0.39383824       1.37675951       0.33095561
N       -1.40069286       0.73101744      -0.67531440
C       -1.74905782      -0.49397107      -0.34989931
C       -0.05462761      -1.35922534       0.28714962
O        0.48034418      -2.31475797      -0.05886206
H        2.42762991      -0.94784766      -0.10498412
H        1.29081554       0.02019978       1.70327652
H       -0.18871561       1.85897257       1.09967251
H        0.65005354       1.97507387      -0.53236221
H       -1.03789256       0.75014540      -1.62566238
H       -1.87619936      -1.26802006      -1.10827590
H       -2.35645844      -0.62640149       0.54270631
14
Frame=2 idx=007282 GeodesicLength=0.14460366348663153 rxn_smarts="[O:1]([C@@:2]1([H:9])[C:3]([H:10])([H:11])[N:4]([H:12])[C:5]([H:13])([H:14])[C:6]1=[O:7])[H:8]>>[C-:6]#[O+:7].[N:4](=[C:5]([H:13])[H:14])[H:12].[O:1]([C:2](=[C:3]([H:10])[H:11])[H:9])[H:8]"
O        2.23199770      -0.00501300      -0.17625638
C        1.18040147       0.31055139       0.65436551
C        0.40044535       1.39387795       0.32944376
N       -1.39440400       0.72090385      -0.64778881
C       -1.74820788      -0.51393251      -0.36026629
C       -0.04681405      -1.36941722       0.29798395
O        0.46839785      -2.34920037      -0.01013525
H        2.40694321      -0.94927131      -0.12563679
H        1.29000890       0.03413565       1.69996884
H       -0.15431269       1.89597907       1.10651564
H        0.66709192       1.99176875      -0.53196150
H       -1.05347578       0.77399957      -1.60469498
H       -1.87137506      -1.26243849      -1.14515332
H       -2.37669695      -0.67194333       0.51361563
14
Frame=3 idx=007282 GeodesicLength=0.21506405619120392 rxn_smarts="[O:1]([C@@:2]1([H:9])[C:3]([H:10])([H:11])[N:4]([H:12])[C:5]([H:13])([H:14])[C:6]1=[O:7])[H:8]>>[C-:6]#[O+:7].[N:4](=[C:5]([H:13])[H:14])[H:12].[O:1]([C:2](=[C:3]([H:10])[H:11])[H:9])[H:8]"
O        2.22716124      -0.00277082      -0.18188502
C        1.17722312       0.31568451       0.64894544
C        0.40718191       1.41077579       0.32713486
N       -1.38831379       0.70978813      -0.61923572
C       -1.74679849      -0.53413826      -0.37072376
C       -0.03832321      -1.38018280       0.30813278
O        0.45630284      -2.38207836       0.03731277
H        2.38600215      -0.95054375      -0.14539254
H        1.28746988       0.04795102       1.69711508
H       -0.11882690       1.93305892       1.11144973
H        0.68444509       2.00678689      -0.53318827
H       -1.07204092       0.79881818      -1.58170737
H       -1.86665231      -1.25539050      -1.18186822
H       -2.39483061      -0.71775896       0.48391024
14
Frame=4 idx=007282 GeodesicLength=0.2843048889193248 rxn_smarts="[O:1]([C@@:2]1([H:9])[C:3]([H:10])([H:11])[N:4]([H:12])[C:5]([H:13])([H:14])[C:6]1=[O:7])[H:8]>>[C-:6]#[O+:7].[N:4](=[C:5]([H:13])[H:14])[H:12].[O:1]([C:2](=[C:3]([H:10])[H:11])[H:9])[H:8]"
O        2.22330416      -0.00050260      -0.18543318
C        1.17364218       0.32072410       0.64391396
C        0.41396528       1.42740217       0.32403320
N       -1.38221632       0.69761495      -0.59000269
C       -1.74479451      -0.55445563      -0.38124363
C       -0.02912542      -1.39155868       0.31751491
O        0.44408213      -2.41352050       0.08314069
H        2.36502990      -0.95147776      -0.16418245
H        1.28310017       0.06161649       1.69470967
H       -0.08258476       1.96989882       1.11440244
H        0.70204854       2.02020506      -0.53592892
H       -1.09328756       0.82423727      -1.55663670
H       -1.86243588      -1.24680854      -1.21813351
H       -2.41072790      -0.76337513       0.45384619
14
Frame=5 idx=007282 GeodesicLength=0.3523929002793132 rxn_smarts="[O:1]([C@@:2]1([H:9])[C:3]([H:10])([H:11])[N:4]([H:12])[C:5]([H:13])([H:14])[C:6]1=[O:7])[H:8]>>[C-:6]#[O+:7].[N:4](=[C:5]([H:13])[H:14])[H:12].[O:1]([C:2](=[C:3]([H:10])[H:11])[H:9])[H:8]"
O        2.22058865       0.00184207      -0.18667027
C        1.16963750       0.32564880       0.63929912
C        0.42073041       1.44369450       0.32008026
N       -1.37598579       0.68437135      -0.56040867
C       -1.74222383      -0.57475837      -0.39175364
C       -0.01911327      -1.40360278       0.32588039
O        0.43187342      -2.44367912       0.12678437
H        2.34440418      -0.95189957      -0.18177050
H        1.27663714       0.07507610       1.69279991
H       -0.04583114       2.00635072       1.11523177
H        0.71987809       2.03198747      -0.54019587
H       -1.11704348       0.84993362      -1.52945616
H       -1.85927537      -1.23662454      -1.25366539
H       -2.42427650      -0.80834025       0.42384466
14
Frame=6 idx=007282 GeodesicLength=0.4193064489389863 rxn_smarts="[O:1]([C@@:2]1([H:9])[C:3]([H:10])([H:11])[N:4]([H:12])[C:5]([H:13])([H:14])[C:6]1=[O:7])[H:8]>>[C-:6]#[O+:7].[N:4](=[C:5]([H:13])[H:14])[H:12].[O:1]([C:2](=[C:3]([H:10])[H:11])[H:9])[H:8]"
O        2.21891766       0.00435981      -0.18575624
C        1.16519996       0.33048333       0.63505808
C        0.42734055       1.45963579       0.31539561
N       -1.36929863       0.67005253      -0.53108021
C       -1.73906190      -0.59489321      -0.40222846
C       -0.00829360      -1.41629487       0.33316387
O        0.41962816      -2.47269626       0.16808860
H        2.32425364      -0.95157362      -0.19831569
H        1.26810596       0.08827073       1.69130782
H       -0.00909839       2.04195508       1.11412003
H        0.73786680       2.04244392      -0.54559515
H       -1.14244825       0.87520496      -1.50039854
H       -1.85773884      -1.22493670      -1.28806490
H       -2.43537312      -0.85201149       0.39430518
14
Frame=7 idx=007282 GeodesicLength=0.48519413583340093 rxn_smarts="[O:1]([C@@:2]1([H:9])[C:3]([H:10])([H:11])[N:4]([H:12])[C:5]([H:13])([H:14])[C:6]1=[O:7])[H:8]>>[C-:6]#[O+:7].[N:4](=[C:5]([H:13])[H:14])[H:12].[O:1]([C:2](=[C:3]([H:10])[H:11])[H:9])[H:8]"
O        2.21844843       0.00715662      -0.18244990
C        1.16031911       0.33522093       0.63122652
C        0.43372150       1.47519029       0.30997267
N       -1.36201192       0.65472246      -0.50249317
C       -1.73541287      -0.61474351      -0.41256631
C        0.00348232      -1.42969221       0.33899770
O        0.40753221      -2.50076652       0.20652650
H        2.30498906      -0.95030922      -0.21366580
H        1.25721062       0.10108862       1.69026897
H        0.02729422       2.07659651       1.11106393
H        0.75604635       2.05163866      -0.55200634
H       -1.16902523       0.89958449      -1.46976753
H       -1.85860438      -1.21181786      -1.32098460
H       -2.44398940      -0.89386926       0.36587735
14
Frame=8 idx=007282 GeodesicLength=0.5503223806295582 rxn_smarts="[O:1]([C@@:2]1([H:9])[C:3]([H:10])([H:11])[N:4]([H:12])[C:5]([H:13])([H:14])[C:6]1=[O:7])[H:8]>>[C-:6]#[O+:7].[N:4](=[C:5]([H:13])[H:14])[H:12].[O:1]([C:2](=[C:3]([H:10])[H:11])[H:9])[H:8]"
O        2.21938549       0.01015663      -0.17661566
C        1.15511997       0.33987819       0.62783233
C        0.43986808       1.49033547       0.30376934
N       -1.35421537       0.63849002      -0.47480408
C       -1.73141304      -0.63424286      -0.42282962
C        0.01638509      -1.44377491       0.34322524
O        0.39576434      -2.52807210       0.24197440
H        2.28707914      -0.94806806      -0.22756435
H        1.24394442       0.11359827       1.68974830
H        0.06331033       2.11032088       1.10608329
H        0.77440141       2.05947828      -0.55945547
H       -1.19686902       0.92291348      -1.43759129
H       -1.86241823      -1.19717030      -1.35245784
H       -2.45034262      -0.93384299       0.33868543
14
Frame=9 idx=007282 GeodesicLength=0.6142646803784328 rxn_smarts="[O:1]([C@@:2]1([H:9])[C:3]([H:10])([H:11])[N:4]([H:12])[C:5]([H:13])([H:14])[C:6]1=[O:7])[H:8]>>[C-:6]#[O+:7].[N:4](=[C:5]([H:13])[H:14])[H:12].[O:1]([C:2](=[C:3]([H:10])[H:11])[H:9])[H:8]"
O        2.22040204       0.01343824      -0.16982562
C        1.14960660       0.34455167       0.62445955
C        0.44573629       1.50500385       0.29717447
N       -1.34532129       0.62116300      -0.44796385
C       -1.72644566      -0.65365945      -0.43352812
C        0.02973319      -1.45818371       0.34724839
O        0.38329342      -2.55428363       0.27753872
H        2.26881301      -0.94466113      -0.24205356
H        1.22937127       0.12585066       1.68896813
H        0.09884478       2.14235978       1.09978189
H        0.79285366       2.06668450      -0.56696404
H       -1.22489219       0.94538038      -1.40319338
H       -1.86712627      -1.18099980      -1.38287829
H       -2.45486884      -0.97264436       0.31123569
14
Frame=10 idx=007282 GeodesicLength=0.6777838590767562 rxn_smarts="[O:1]([C@@:2]1([H:9])[C:3]([H:10])([H:11])[N:4]([H:12])[C:5]([H:13])([H:14])[C:6]1=[O:7])[H:8]>>[C-:6]#[O+:7].[N:4](=[C:5]([H:13])[H:14])[H:12].[O:1]([C:2](=[C:3]([H:10])[H:11])[H:9])[H:8]"
O        2.22197223       0.01681505      -0.16190806
C        1.14397694       0.34923457       0.62133975
C        0.45116082       1.51936877       0.29034978
N       -1.33554721       0.60305296      -0.42283008
C       -1.72094621      -0.67276371      -0.44460059
C        0.04392832      -1.47310729       0.35073977
O        0.37071989      -2.57978927       0.31218299
H        2.25108681      -0.94023591      -0.25670139
H        1.21363447       0.13782348       1.68839696
H        0.13330933       2.17291056       1.09267098
H        0.81135869       2.07351948      -0.57435141
H       -1.25271090       0.96618575      -1.36783741
H       -1.87430250      -1.16368035      -1.41199171
H       -2.45764068      -1.00933410       0.28454042
14
Frame=11 idx=007282 GeodesicLength=0.740723140588027 rxn_smarts="[O:1]([C@@:2]1([H:9])[C:3]([H:10])([H:11])[N:4]([H:12])[C:5]([H:13])([H:14])[C:6]1=[O:7])[H:8]>>[C-:6]#[O+:7].[N:4](=[C:5]([H:13])[H:14])[H:12].[O:1]([C:2](=[C:3]([H:10])[H:11])[H:9])[H:8]"
O        2.22427776       0.02041656      -0.15237906
C        1.13810436       0.35391934       0.61845302
C        0.45615707       1.53337296       0.28311287
N       -1.32472396       0.58416311      -0.39962346
C       -1.71499496      -0.69155847      -0.45586162
C        0.05908704      -1.48848786       0.35296574
O        0.35799581      -2.60448838       0.34497928
H        2.23437459      -0.93449010      -0.27083026
H        1.19599687       0.14936664       1.68794177
H        0.16672293       2.20198780       1.08452414
H        0.83009070       2.07989159      -0.58171085
H       -1.27985431       0.98499856      -1.33168472
H       -1.88479874      -1.14523408      -1.43920883
H       -2.45843516      -1.04385769       0.25932197
14
Frame=12 idx=007282 GeodesicLength=0.803180229789408 rxn_smarts="[O:1]([C@@:2]1([H:9])[C:3]([H:10])([H:11])[N:4]([H:12])[C:5]([H:13])([H:14])[C:6]1=[O:7])[H:8]>>[C-:6]#[O+:7].[N:4](=[C:5]([H:13])[H:14])[H:12].[O:1]([C:2](=[C:3]([H:10])[H:11])[H:9])[H:8]"
O        2.22651675       0.02407885      -0.14239864
C        1.13219151       0.35864070       0.61562439
C        0.46076252       1.54697927       0.27577529
N       -1.31288888       0.56449243      -0.37803357
C       -1.70821191      -0.71024899      -0.46791241
C        0.07488068      -1.50418122       0.35521491
O        0.34465026      -2.62815899       0.37862675
H        2.21746035      -0.92755199      -0.28598845
H        1.17765826       0.16061865       1.68726798
H        0.19923788       2.22939812       1.07586132
H        0.84895139       2.08603988      -0.58853349
H       -1.30662142       1.00238482      -1.29418572
H       -1.89684950      -1.12548865      -1.46535813
H       -2.45773789      -1.07700287       0.23403976
14
Frame=13 idx=007282 GeodesicLength=0.8654916831326004 rxn_smarts="[O:1]([C@@:2]1([H:9])[C:3]([H:10])([H:11])[N:4]([H:12])[C:5]([H:13])([H:14])[C:6]1=[O:7])[H:8]>>[C-:6]#[O+:7].[N:4](=[C:5]([H:13])[H:14])[H:12].[O:1]([C:2](=[C:3]([H:10])[H:11])[H:9])[H:8]"
O        2.22893096       0.02771793      -0.13182933
C        1.12629588       0.36340071       0.61293522
C        0.46490859       1.56031418       0.26838093
N       -1.30006048       0.54417675      -0.35855665
C       -1.70084887      -0.72878685      -0.48072962
C        0.09151986      -1.52024902       0.35704057
O        0.33083483      -2.65088268       0.41247409
H        2.20089403      -0.91943302      -0.30173200
H        1.15849219       0.17148875       1.68653700
H        0.23062255       2.25532163       1.06694172
H        0.86799338       2.09217954      -0.59470170
H       -1.33259454       1.01787083      -1.25605507
H       -1.91149598      -1.10471110      -1.49007626
H       -2.45549242      -1.10840766       0.20937109
14
Frame=14 idx=007282 GeodesicLength=0.9271377800815626 rxn_smarts="[O:1]([C@@:2]1([H:9])[C:3]([H:10])([H:11])[N:4]([H:12])[C:5]([H:13])([H:14])[C:6]1=[O:7])[H:8]>>[C-:6]#[O+:7].[N:4](=[C:5]([H:13])[H:14])[H:12].[O:1]([C:2](=[C:3]([H:10])[H:11])[H:9])[H:8]"
O        2.23125712       0.03153642      -0.12083844
C        1.12022987       0.36820177       0.61023283
C        0.46852908       1.57325671       0.26091209
N       -1.28578004       0.52311846      -0.34166042
C       -1.69283479      -0.74717005      -0.49413701
C        0.10890592      -1.53650009       0.35806438
O        0.31614999      -2.67222380       0.44587222
H        2.18477608      -0.90981618      -0.31756994
H        1.13810825       0.18179431       1.68544033
H        0.26054725       2.27927595       1.05781679
H        0.88730788       2.09853626      -0.59988017
H       -1.35659015       1.03093820      -1.21777603
H       -1.92920004      -1.08306721      -1.51248380
H       -2.45140642      -1.13788074       0.18600717
14
Frame=15 idx=007282 GeodesicLength=0.9887503652291229 rxn_smarts="[O:1]([C@@:2]1([H:9])[C:3]([H:10])([H:11])[N:4]([H:12])[C:5]([H:13])([H:14])[C:6]1=[O:7])[H:8]>>[C-:6]#[O+:7].[N:4](=[C:5]([H:13])[H:14])[H:12].[O:1]([C:2](=[C:3]([H:10])[H:11])[H:9])[H:8]"
O        2.23310877       0.03521347      -0.11047736
C        1.11432956       0.37305922       0.60748522
C        0.47163391       1.58597523       0.25373049
N       -1.27038861       0.50148209      -0.32720719
C       -1.68407609      -0.76553942      -0.50877224
C        0.12698083      -1.55301805       0.35925828
O        0.30046329      -2.69216338       0.48101736
H        2.16843317      -0.89915787      -0.33455943
H        1.11785329       0.19165284       1.68400208
H        0.28911047       2.30151738       1.04922180
H        0.90675611       2.10543123      -0.60366989
H       -1.37937449       1.04206827      -1.17927150
H       -1.94893272      -1.06058305      -1.53349848
H       -2.44589747      -1.16593796       0.16274086
14
Frame=16 idx=007282 GeodesicLength=1.0502694804022212 rxn_smarts="[O:1]([C@@:2]1([H:9])[C:3]([H:10])([H:11])[N:4]([H:12])[C:5]([H:13])([H:14])[C:6]1=[O:7])[H:8]>>[C-:6]#[O+:7].[N:4](=[C:5]([H:13])[H:14])[H:12].[O:1]([C:2](=[C:3]([H:10])[H:11])[H:9])[H:8]"
O        2.23417281       0.03865783      -0.10137790
C        1.10861112       0.37797119       0.60457303
C        0.47419597       1.59845867       0.24691377
N       -1.25379363       0.47922495      -0.31518236
C       -1.67436436      -0.78396660      -0.52487088
C        0.14560171      -1.56971479       0.36097475
O        0.28333489      -2.71029352       0.51847155
H        2.15150589      -0.88756992      -0.35279364
H        1.09812367       0.20108654       1.68209281
H        0.31629963       2.32193800       1.04137610
H        0.92622751       2.11303250      -0.60589752
H       -1.40088123       1.05132570      -1.14032473
H       -1.97015150      -1.03723570      -1.55310939
H       -2.43888248      -1.19291486       0.13915440
