12
Frame=0 idx=005556 GeodesicLength=0.0 rxn_smarts="[C:1]1([H:7])([H:8])[O:2][C@:3]1([C@@:4]1([H:10])[C:5]([H:11])([H:12])[O:6]1)[H:9]>>[C:1]([O+:2]=[C-:3][C@@:4]1([H:10])[C:5]([H:11])([H:12])[O:6]1)([H:7])([H:8])[H:9]"
C        1.67567286       0.26749954      -0.55596073
O        1.10319305       0.85677227       0.58080252
C        0.65181321      -0.45953974       0.75143530
C       -0.69891065      -0.64176078       0.12653255
C       -1.75149183       0.29986085       0.52043352
O       -1.24488416       0.30093084      -0.79489301
H        1.13815088       0.47063977      -1.47632451
H        2.75766250       0.38062064      -0.57774125
H        1.59354717      -0.89840034      -0.26345933
H       -0.97715796      -1.67415521      -0.06540593
H       -1.48037068       1.16427887       1.11947563
H       -2.76722444      -0.06674674       0.63510519
12
Frame=1 idx=005556 GeodesicLength=0.0668021638794261 rxn_smarts="[C:1]1([H:7])([H:8])[O:2][C@:3]1([C@@:4]1([H:10])[C:5]([H:11])([H:12])[O:6]1)[H:9]>>[C:1]([O+:2]=[C-:3][C@@:4]1([H:10])[C:5]([H:11])([H:12])[O:6]1)([H:7])([H:8])[H:9]"
C        1.68675514       0.27351588      -0.55584937
O        1.10616743       0.83995019       0.58970337
C        0.65202929      -0.47447299       0.72854584
C       -0.70952621      -0.64855161       0.13102896
C       -1.75579090       0.30206792       0.51911226
O       -1.26297385       0.27806783      -0.80120488
H        1.15858981       0.50625295      -1.47481997
H        2.76783348       0.39583611      -0.56793277
H        1.60507626      -0.90971635      -0.27918855
H       -0.99679044      -1.68281322      -0.03791427
H       -1.48027058       1.17951965       1.09667085
H       -2.77109943      -0.05965635       0.65184853
12
Frame=2 idx=005556 GeodesicLength=0.13353900408645902 rxn_smarts="[C:1]1([H:7])([H:8])[O:2][C@:3]1([C@@:4]1([H:10])[C:5]([H:11])([H:12])[O:6]1)[H:9]>>[C:1]([O+:2]=[C-:3][C@@:4]1([H:10])[C:5]([H:11])([H:12])[O:6]1)([H:7])([H:8])[H:9]"
C        1.69783441       0.27995243      -0.55565538
O        1.10923951       0.82196666       0.59893113
C        0.65215208      -0.48992666       0.70424418
C       -0.72036450      -0.65576669       0.13590771
C       -1.75994144       0.30439994       0.51739235
O       -1.28167022       0.25373590      -0.80750010
H        1.17919152       0.54374377      -1.47187077
H        2.77789247       0.41109990      -0.55750181
H        1.61665597      -0.92091370      -0.29631163
H       -1.01662438      -1.69150085      -0.00867764
H       -1.47974425       1.19493113       1.07209076
H       -2.77462117      -0.05172184       0.66895120
12
Frame=3 idx=005556 GeodesicLength=0.20013302303414374 rxn_smarts="[C:1]1([H:7])([H:8])[O:2][C@:3]1([C@@:4]1([H:10])[C:5]([H:11])([H:12])[O:6]1)[H:9]>>[C:1]([O+:2]=[C-:3][C@@:4]1([H:10])[C:5]([H:11])([H:12])[O:6]1)([H:7])([H:8])[H:9]"
C        1.70889066       0.28682706      -0.55536653
O        1.11241590       0.80272161       0.60844340
C        0.65211834      -0.50583654       0.67839949
C       -0.73141398      -0.66336894       0.14119816
C       -1.76393167       0.30684862       0.51524130
O       -1.30101861       0.22788912      -0.81370502
H        1.19994706       0.58309679      -1.46729673
H        2.78781355       0.42634591      -0.54642489
H        1.62824666      -0.93192533      -0.31490601
H       -1.03656033      -1.70010577       0.02239421
H       -1.47877645       1.21041257       1.04564289
H       -2.77773112      -0.04290511       0.68637974
12
Frame=4 idx=005556 GeodesicLength=0.2667196619494885 rxn_smarts="[C:1]1([H:7])([H:8])[O:2][C@:3]1([C@@:4]1([H:10])[C:5]([H:11])([H:12])[O:6]1)[H:9]>>[C:1]([O+:2]=[C-:3][C@@:4]1([H:10])[C:5]([H:11])([H:12])[O:6]1)([H:7])([H:8])[H:9]"
C        1.71997144       0.29415713      -0.55497155
O        1.11576369       0.78216212       0.61822544
C        0.65193127      -0.52213715       0.65087298
C       -0.74267674      -0.67134432       0.14691058
C       -1.76783857       0.30943535       0.51264949
O       -1.32120281       0.20047091      -0.81975978
H        1.22085203       0.62426768      -1.46093482
H        2.79769433       0.44151492      -0.53467372
H        1.63991055      -0.94273539      -0.33507773
H       -1.05648548      -1.70859498       0.05534206
H       -1.47743183       1.22595981       1.01728538
H       -2.78048787      -0.03315609       0.70413166
12
Frame=5 idx=005556 GeodesicLength=0.3328885401556225 rxn_smarts="[C:1]1([H:7])([H:8])[O:2][C@:3]1([C@@:4]1([H:10])[C:5]([H:11])([H:12])[O:6]1)[H:9]>>[C:1]([O+:2]=[C-:3][C@@:4]1([H:10])[C:5]([H:11])([H:12])[O:6]1)([H:7])([H:8])[H:9]"
C        1.73093359       0.30192684      -0.55444614
O        1.11916687       0.76014027       0.62815951
C        0.65142442      -0.53867542       0.62154898
C       -0.75409150      -0.67955889       0.15307656
C       -1.77153255       0.31210508       0.50954618
O       -1.34206470       0.17150284      -0.82552890
H        1.24189706       0.66722671      -1.45261115
H        2.80730424       0.45643348      -0.52220801
H        1.65144350      -0.95321654      -0.35682712
H       -1.07619518      -1.71666879       0.09025724
H       -1.47565032       1.24129065       0.98686948
H       -2.78263543      -0.02250624       0.72216337
12
Frame=6 idx=005556 GeodesicLength=0.39919228137025 rxn_smarts="[C:1]1([H:7])([H:8])[O:2][C@:3]1([C@@:4]1([H:10])[C:5]([H:11])([H:12])[O:6]1)[H:9]>>[C:1]([O+:2]=[C-:3][C@@:4]1([H:10])[C:5]([H:11])([H:12])[O:6]1)([H:7])([H:8])[H:9]"
C        1.74197460       0.31016357      -0.55378154
O        1.12284462       0.73667281       0.63828164
C        0.65071308      -0.55539113       0.59023905
C       -0.76569466      -0.68805475       0.15966939
C       -1.77526873       0.31492664       0.50595165
O       -1.36405821       0.14084389      -0.83097711
H        1.26309506       0.71195067      -1.44213711
H        2.81701119       0.47106083      -0.50899192
H        1.66308675      -0.96344371      -0.38035208
H       -1.09559240      -1.72444490       0.12716373
H       -1.47363110       1.25657711       0.95439323
H       -2.78448019      -0.01086103       0.74054109
12
Frame=7 idx=005556 GeodesicLength=0.4647991906259604 rxn_smarts="[C:1]1([H:7])([H:8])[O:2][C@:3]1([C@@:4]1([H:10])[C:5]([H:11])([H:12])[O:6]1)[H:9]>>[C:1]([O+:2]=[C-:3][C@@:4]1([H:10])[C:5]([H:11])([H:12])[O:6]1)([H:7])([H:8])[H:9]"
C        1.75285192       0.31887185      -0.55290951
O        1.12650310       0.71138917       0.64833852
C        0.64933679      -0.57207651       0.55672739
C       -0.77737768      -0.69665325       0.16669919
C       -1.77872181       0.31777790       0.50177303
O       -1.38698084       0.10854368      -0.83595896
H        1.28457134       0.75833511      -1.42918163
H        2.82634238       0.48526178      -0.49495642
H        1.67436743      -0.97306966      -0.40557880
H       -1.11437841      -1.73148682       0.16625742
H       -1.47110487       1.27139142       0.91956826
H       -2.78540935       0.00171533       0.75922151
12
Frame=8 idx=005556 GeodesicLength=0.5303534672196707 rxn_smarts="[C:1]1([H:7])([H:8])[O:2][C@:3]1([C@@:4]1([H:10])[C:5]([H:11])([H:12])[O:6]1)[H:9]>>[C:1]([O+:2]=[C-:3][C@@:4]1([H:10])[C:5]([H:11])([H:12])[O:6]1)([H:7])([H:8])[H:9]"
C        1.76381669       0.32796801      -0.55187504
O        1.13036710       0.68460513       0.65822066
C        0.64748831      -0.58842955       0.52095058
C       -0.78915304      -0.70525751       0.17406259
C       -1.78229316       0.32070470       0.49709635
O       -1.41129554       0.07467928      -0.84031765
H        1.30639780       0.80611675      -1.41380921
H        2.83577361       0.49879036      -0.48007664
H        1.68562205      -0.98232317      -0.43248641
H       -1.13228193      -1.73778560       0.20724558
H       -1.46855552       1.28577648       0.88270828
H       -2.78588637       0.01515514       0.77828091
12
Frame=9 idx=005556 GeodesicLength=0.5960818081931466 rxn_smarts="[C:1]1([H:7])([H:8])[O:2][C@:3]1([C@@:4]1([H:10])[C:5]([H:11])([H:12])[O:6]1)[H:9]>>[C:1]([O+:2]=[C-:3][C@@:4]1([H:10])[C:5]([H:11])([H:12])[O:6]1)([H:7])([H:8])[H:9]"
C        1.77496436       0.33751225      -0.55060690
O        1.13450658       0.65608709       0.66791135
C        0.64505318      -0.60436280       0.48259235
C       -0.80101064      -0.71387061       0.18172777
C       -1.78606505       0.32372063       0.49187069
O       -1.43737743       0.03898397      -0.84398351
H        1.32870110       0.85540771      -1.39564044
H        2.84545923       0.51156283      -0.46422519
H        1.69679731      -0.99111962      -0.46137202
H       -1.14907968      -1.74327900       0.25037807
H       -1.46607069       1.29978334       0.84347390
H       -2.78587826       0.02957421       0.79787393
12
Frame=10 idx=005556 GeodesicLength=0.6607507918924165 rxn_smarts="[C:1]1([H:7])([H:8])[O:2][C@:3]1([C@@:4]1([H:10])[C:5]([H:11])([H:12])[O:6]1)[H:9]>>[C:1]([O+:2]=[C-:3][C@@:4]1([H:10])[C:5]([H:11])([H:12])[O:6]1)([H:7])([H:8])[H:9]"
C        1.78581366       0.34746581      -0.54900688
O        1.13842958       0.62537332       0.67715220
C        0.64153455      -0.61950267       0.44145623
C       -0.81275734      -0.72222049       0.18972631
C       -1.78951342       0.32661575       0.48586731
O       -1.46456227       0.00146114      -0.84665645
H        1.35154472       0.90639980      -1.37417813
H        2.85459040       0.52311679      -0.44727850
H        1.70709300      -0.99900037      -0.49227268
H       -1.16436247      -1.74730603       0.29600305
H       -1.46330837       1.31276323       0.80121829
H       -2.78450205       0.04483374       0.81796925
12
Frame=11 idx=005556 GeodesicLength=0.7256882927894746 rxn_smarts="[C:1]1([H:7])([H:8])[O:2][C@:3]1([C@@:4]1([H:10])[C:5]([H:11])([H:12])[O:6]1)[H:9]>>[C:1]([O+:2]=[C-:3][C@@:4]1([H:10])[C:5]([H:11])([H:12])[O:6]1)([H:7])([H:8])[H:9]"
C        1.79702307       0.35772735      -0.54715697
O        1.14259251       0.59307272       0.68563410
C        0.63712928      -0.63336999       0.39744087
C       -0.82446312      -0.73027573       0.19778140
C       -1.79345013       0.32949145       0.47936130
O       -1.49402974      -0.03779546      -0.84820632
H        1.37539323       0.95849885      -1.34957703
H        2.86423051       0.53326434      -0.42923633
H        1.71710178      -1.00637449      -0.52501814
H       -1.17768300      -1.75011761       0.34352941
H       -1.46122523       1.32505454       0.75662534
H       -2.78261916       0.06082402       0.83882235
12
Frame=12 idx=005556 GeodesicLength=0.7903608304957825 rxn_smarts="[C:1]1([H:7])([H:8])[O:2][C@:3]1([C@@:4]1([H:10])[C:5]([H:11])([H:12])[O:6]1)[H:9]>>[C:1]([O+:2]=[C-:3][C@@:4]1([H:10])[C:5]([H:11])([H:12])[O:6]1)([H:7])([H:8])[H:9]"
C        1.80858469       0.36812886      -0.54505370
O        1.14657719       0.55937632       0.69283342
C        0.63137275      -0.64520160       0.35052711
C       -0.83594632      -0.73766682       0.20562397
C       -1.79784684       0.33216439       0.47250225
O       -1.52590276      -0.07834520      -0.84837617
H        1.40077169       1.01086627      -1.32205315
H        2.87416511       0.54162609      -0.40998185
H        1.72649638      -1.01307249      -0.55906335
H       -1.18829572      -1.75118408       0.39245964
H       -1.46016030       1.33615781       0.71009872
H       -2.77981586       0.07715045       0.86048310
12
Frame=13 idx=005556 GeodesicLength=0.8544018061959403 rxn_smarts="[C:1]1([H:7])([H:8])[O:2][C@:3]1([C@@:4]1([H:10])[C:5]([H:11])([H:12])[O:6]1)[H:9]>>[C:1]([O+:2]=[C-:3][C@@:4]1([H:10])[C:5]([H:11])([H:12])[O:6]1)([H:7])([H:8])[H:9]"
C        1.82038055       0.37850068      -0.54274542
O        1.15017273       0.52458766       0.69834052
C        0.62410867      -0.65430064       0.30074341
C       -0.84707262      -0.74415702       0.21314852
C       -1.80270335       0.33447110       0.46524564
O       -1.55978831      -0.12006712      -0.84677948
H        1.42805460       1.06357626      -1.29143139
H        2.88419473       0.54744169      -0.38947225
H        1.73476678      -1.01909465      -0.59418554
H       -1.19569858      -1.75019512       0.44250640
H       -1.46054968       1.34578443       0.66148026
H       -2.77586551       0.09345272       0.88314933
12
Frame=14 idx=005556 GeodesicLength=0.9194735012453035 rxn_smarts="[C:1]1([H:7])([H:8])[O:2][C@:3]1([C@@:4]1([H:10])[C:5]([H:11])([H:12])[O:6]1)[H:9]>>[C:1]([O+:2]=[C-:3][C@@:4]1([H:10])[C:5]([H:11])([H:12])[O:6]1)([H:7])([H:8])[H:9]"
C        1.83335501       0.38873506      -0.54036694
O        1.15382842       0.48962963       0.70183336
C        0.61551696      -0.66001125       0.24803740
C       -0.85796054      -0.74974249       0.22000390
C       -1.80909292       0.33649313       0.45801073
O       -1.59698857      -0.16298800      -0.84329043
H        1.45820194       1.11596278      -1.25809625
H        2.89570645       0.55045449      -0.36773253
H        1.74254783      -1.02502123      -0.63016778
H       -1.19935788      -1.74748400       0.49290613
H       -1.46391162       1.35442459       0.61161160
H       -2.77184509       0.10954729       0.90725080
12
Frame=15 idx=005556 GeodesicLength=0.9828435628469029 rxn_smarts="[C:1]1([H:7])([H:8])[O:2][C@:3]1([C@@:4]1([H:10])[C:5]([H:11])([H:12])[O:6]1)[H:9]>>[C:1]([O+:2]=[C-:3][C@@:4]1([H:10])[C:5]([H:11])([H:12])[O:6]1)([H:7])([H:8])[H:9]"
C        1.84672061       0.39849940      -0.53797783
O        1.15599242       0.45492713       0.70225832
C        0.60449242      -0.66092308       0.19292957
C       -0.86809199      -0.75363376       0.22583765
C       -1.81600910       0.33761103       0.45097772
O       -1.63577103      -0.20547331      -0.83732400
H        1.49196165       1.16657549      -1.22307363
H        2.90681117       0.54997351      -0.34473810
H        1.74831951      -1.03030409      -0.66506372
H       -1.19836338      -1.74199429       0.54257234
H       -1.46997262       1.36066513       0.56133552
H       -2.76608967       0.12407686       0.93226617
12
Frame=16 idx=005556 GeodesicLength=1.0465215697386647 rxn_smarts="[C:1]1([H:7])([H:8])[O:2][C@:3]1([C@@:4]1([H:10])[C:5]([H:11])([H:12])[O:6]1)[H:9]>>[C:1]([O+:2]=[C-:3][C@@:4]1([H:10])[C:5]([H:11])([H:12])[O:6]1)([H:7])([H:8])[H:9]"
C        1.86164669       0.40744171      -0.53596620
O        1.15753715       0.42261081       0.69938859
C        0.59184274      -0.65613704       0.13579519
C       -0.87764019      -0.75583673       0.23029791
C       -1.82500560       0.33798494       0.44473977
O       -1.67723954      -0.24765040      -0.82897199
H        1.53034725       1.21483744      -1.18720127
H        2.91940586       0.54536741      -0.32068009
H        1.75295440      -1.03626564      -0.69829741
H       -1.19234245      -1.73444349       0.58987504
H       -1.48110514       1.36549528       0.51218253
H       -2.76040119       0.13659570       0.95883793
