15
Frame=0 idx=008207 GeodesicLength=0.0 rxn_smarts="[C:1]1([H:8])([H:9])[O:2][C@@:3]2([H:10])[C:4]([H:11])=[C:5]([H:12])[C:6]([H:13])([H:14])[C@@:7]12[H:15]>>[C:1]([O:2][H:14])([C:7]1([H:15])[C:3]([H:10])=[C:4]([H:11])[C:5]([H:12])=[C:6]1[H:13])([H:8])[H:9]"
C       -1.65231560      -0.22390911      -0.61657560
O       -0.75023614      -0.91621688      -1.41407169
C        0.11348103      -0.93697968       0.71977978
C        1.46821353      -0.67814036       0.75497932
C        1.65211386       0.57432006       0.18197986
C        0.42033275       1.08097023      -0.32074139
C       -0.68395541       0.29745820       0.42660402
H       -2.19687631       0.57917485      -1.14028647
H       -2.40171992      -0.88670563      -0.15571386
H       -0.35261398      -1.88519564       0.95186573
H        2.24796522      -1.37187513       1.03148699
H        2.61587271       1.05135614       0.04211095
H        0.30836171       2.14015489      -0.52728286
H        0.23356316       0.35448754      -1.26509562
H       -1.02218660       0.82110052       1.33096080
15
Frame=1 idx=008207 GeodesicLength=0.07060937699857774 rxn_smarts="[C:1]1([H:8])([H:9])[O:2][C@@:3]2([H:10])[C:4]([H:11])=[C:5]([H:12])[C:6]([H:13])([H:14])[C@@:7]12[H:15]>>[C:1]([O:2][H:14])([C:7]1([H:15])[C:3]([H:10])=[C:4]([H:11])[C:5]([H:12])=[C:6]1[H:13])([H:8])[H:9]"
C       -1.65127956      -0.22571383      -0.61469248
O       -0.74484061      -0.92812805      -1.40271642
C        0.11129213      -0.94129255       0.71249198
C        1.46746462      -0.67851068       0.75162714
C        1.65266877       0.57781067       0.18596714
C        0.42192120       1.08562954      -0.31865434
C       -0.68120679       0.30013218       0.42686257
H       -2.18631068       0.57413229      -1.15204620
H       -2.40880756      -0.88004915      -0.15690603
H       -0.35263860      -1.88222802       0.97655677
H        2.24797854      -1.37704583       1.01431881
H        2.61743573       1.05141350       0.04205944
H        0.30837948       2.14778313      -0.50898313
H        0.22876538       0.35794648      -1.28501541
H       -1.03082205       0.81812033       1.32913016
15
Frame=2 idx=008207 GeodesicLength=0.14118091589255638 rxn_smarts="[C:1]1([H:8])([H:9])[O:2][C@@:3]2([H:10])[C:4]([H:11])=[C:5]([H:12])[C:6]([H:13])([H:14])[C@@:7]12[H:15]>>[C:1]([O:2][H:14])([C:7]1([H:15])[C:3]([H:10])=[C:4]([H:11])[C:5]([H:12])=[C:6]1[H:13])([H:8])[H:9]"
C       -1.65027779      -0.22741724      -0.61278852
O       -0.73955712      -0.93950045      -1.39159131
C        0.10903363      -0.94570538       0.70530639
C        1.46667586      -0.67899042       0.74824627
C        1.65323151       0.58115736       0.18999721
C        0.42352352       1.09025812      -0.31642472
C       -0.67844756       0.30271460       0.42720728
H       -2.17587859       0.56906248      -1.16336260
H       -2.41573594      -0.87353740      -0.15841549
H       -0.35212877      -1.87872491       1.00084853
H        2.24787267      -1.38185561       0.99785264
H        2.61900518       1.05117552       0.04172873
H        0.30848545       2.15511055      -0.49066607
H        0.22364647       0.36118228      -1.30514865
H       -1.03944854       0.81507049       1.32721032
15
Frame=3 idx=008207 GeodesicLength=0.21173370949388792 rxn_smarts="[C:1]1([H:8])([H:9])[O:2][C@@:3]2([H:10])[C:4]([H:11])=[C:5]([H:12])[C:6]([H:13])([H:14])[C@@:7]12[H:15]>>[C:1]([O:2][H:14])([C:7]1([H:15])[C:3]([H:10])=[C:4]([H:11])[C:5]([H:12])=[C:6]1[H:13])([H:8])[H:9]"
C       -1.64929860      -0.22903053      -0.61086588
O       -0.73436201      -0.95038977      -1.38066427
C        0.10669872      -0.95018838       0.69827147
C        1.46584267      -0.67955787       0.74486827
C        1.65379928       0.58438203       0.19410386
C        0.42514096       1.09486596      -0.31403961
C       -0.67568501       0.30522187       0.42764040
H       -2.16555752       0.56395857      -1.17427699
H       -2.42250938      -0.86716113      -0.16022732
H       -0.35110178      -1.87468954       1.02476266
H        2.24765567      -1.38639158       0.98189762
H        2.62056826       1.05068266       0.04118432
H        0.30867566       2.16215299      -0.47234339
H        0.21821808       0.36415803      -1.32549818
H       -1.04808500       0.81198670       1.32518706
15
Frame=4 idx=008207 GeodesicLength=0.2822723606006571 rxn_smarts="[C:1]1([H:8])([H:9])[O:2][C@@:3]2([H:10])[C:4]([H:11])=[C:5]([H:12])[C:6]([H:13])([H:14])[C@@:7]12[H:15]>>[C:1]([O:2][H:14])([C:7]1([H:15])[C:3]([H:10])=[C:4]([H:11])[C:5]([H:12])=[C:6]1[H:13])([H:8])[H:9]"
C       -1.64833830      -0.23055660      -0.60892311
O       -0.72924751      -0.96083137      -1.36992280
C        0.10428471      -0.95472791       0.69141044
C        1.46496704      -0.68020935       0.74148893
C        1.65437362       0.58749347       0.19829700
C        0.42677444       1.09946004      -0.31148843
C       -0.67292077       0.30766157       0.42816406
H       -2.15533934       0.55882909      -1.18480431
H       -2.42913516      -0.86091108      -0.16232546
H       -0.34956336      -1.87014361       1.04827400
H        2.24733171      -1.39067901       0.96641683
H        2.62211801       1.04995558       0.04045362
H        0.30894701       2.16892239      -0.45402038
H        0.21247952       0.36685192      -1.34607784
H       -1.05673161       0.80888487       1.32305747
15
Frame=5 idx=008207 GeodesicLength=0.35281452543587244 rxn_smarts="[C:1]1([H:8])([H:9])[O:2][C@@:3]2([H:10])[C:4]([H:11])=[C:5]([H:12])[C:6]([H:13])([H:14])[C@@:7]12[H:15]>>[C:1]([O:2][H:14])([C:7]1([H:15])[C:3]([H:10])=[C:4]([H:11])[C:5]([H:12])=[C:6]1[H:13])([H:8])[H:9]"
C       -1.64738595      -0.23200414      -0.60696241
O       -0.72419337      -0.97087438      -1.35933213
C        0.10178732      -0.95929726       0.68476444
C        1.46404537      -0.68092422       0.73813567
C        1.65495302       0.59051075       0.20260369
C        0.42842533       1.10405172      -0.30875750
C       -0.67016098       0.31004882       0.42877997
H       -2.14520163       0.55366522      -1.19498235
H       -2.43561635      -0.85477503      -0.16470046
H       -0.34753648      -1.86510059       1.07140047
H        2.24690764      -1.39478682       0.95124583
H        2.62364487       1.04902818       0.03958815
H        0.30929495       2.17543788      -0.43569857
H        0.20643944       0.36922506      -1.36689532
H       -1.06540319       0.80579483       1.32081050
15
Frame=6 idx=008207 GeodesicLength=0.42336072961450666 rxn_smarts="[C:1]1([H:8])([H:9])[O:2][C@@:3]2([H:10])[C:4]([H:11])=[C:5]([H:12])[C:6]([H:13])([H:14])[C@@:7]12[H:15]>>[C:1]([O:2][H:14])([C:7]1([H:15])[C:3]([H:10])=[C:4]([H:11])[C:5]([H:12])=[C:6]1[H:13])([H:8])[H:9]"
C       -1.64643966      -0.23337331      -0.60498153
O       -0.71919709      -0.98054544      -1.34888295
C        0.09920618      -0.96388899       0.67834654
C        1.46308222      -0.68170321       0.73479453
C        1.65554066       0.59343800       0.20702492
C        0.43009493       1.10864697      -0.30583802
C       -0.66740542       0.31238908       0.42948989
H       -2.13513919       0.54847804      -1.20481835
H       -2.44195957      -0.84874253      -0.16733772
H       -0.34502810      -1.85959021       1.09410874
H        2.24638529      -1.39871847       0.93639022
H        2.62514399       1.04791617       0.03860618
H        0.30971707       2.18171316      -0.41737759
H        0.20009170       0.37125548      -1.38797205
H       -1.07409302       0.80272528       1.31844718
15
Frame=7 idx=008207 GeodesicLength=0.49391395287037637 rxn_smarts="[C:1]1([H:8])([H:9])[O:2][C@@:3]2([H:10])[C:4]([H:11])=[C:5]([H:12])[C:6]([H:13])([H:14])[C@@:7]12[H:15]>>[C:1]([O:2][H:14])([C:7]1([H:15])[C:3]([H:10])=[C:4]([H:11])[C:5]([H:12])=[C:6]1[H:13])([H:8])[H:9]"
C       -1.64549207      -0.23466815      -0.60298166
O       -0.71424560      -0.98987958      -1.33854859
C        0.09653994      -0.96848450       0.67218291
C        1.46207764      -0.68253377       0.73147763
C        1.65613743       0.59628776       0.21157676
C        0.43178537       1.11325465      -0.30271982
C       -0.66465738       0.31469377       0.43029483
H       -2.12513698       0.54326434      -1.21433612
H       -2.44816776      -0.84280166      -0.17022686
H       -0.34206042      -1.85364014       1.11639987
H        2.24576842      -1.40251098       0.92175505
H        2.62660920       1.04664594       0.03754496
H        0.31021050       2.18776652      -0.39905682
H        0.19343701       0.37290952      -1.40932381
H       -1.08280531       0.79969628       1.31596167
15
Frame=8 idx=008207 GeodesicLength=0.5644867381207732 rxn_smarts="[C:1]1([H:8])([H:9])[O:2][C@@:3]2([H:10])[C:4]([H:11])=[C:5]([H:12])[C:6]([H:13])([H:14])[C@@:7]12[H:15]>>[C:1]([O:2][H:14])([C:7]1([H:15])[C:3]([H:10])=[C:4]([H:11])[C:5]([H:12])=[C:6]1[H:13])([H:8])[H:9]"
C       -1.64453995      -0.23588876      -0.60096160
O       -0.70933592      -0.99890327      -1.32831487
C        0.09378826      -0.97307553       0.66628666
C        1.46103612      -0.68341245       0.72817812
C        1.65674654       0.59906481       0.21625818
C        0.43349731       1.11788376      -0.29939057
C       -0.66191725       0.31696918       0.43119627
H       -2.11518560       0.53803305      -1.22354713
H       -2.45424623      -0.83693985      -0.17335953
H       -0.33864482      -1.84728020       1.13824889
H        2.24505944      -1.40616870       0.90733175
H        2.62803658       1.04523297       0.03641879
H        0.31077239       2.19361603      -0.38072596
H        0.18646816       0.37415336      -1.43097520
H       -1.09153506       0.79671560       1.31335618
15
Frame=9 idx=008207 GeodesicLength=0.6350758015965718 rxn_smarts="[C:1]1([H:8])([H:9])[O:2][C@@:3]2([H:10])[C:4]([H:11])=[C:5]([H:12])[C:6]([H:13])([H:14])[C@@:7]12[H:15]>>[C:1]([O:2][H:14])([C:7]1([H:15])[C:3]([H:10])=[C:4]([H:11])[C:5]([H:12])=[C:6]1[H:13])([H:8])[H:9]"
C       -1.64357656      -0.23703990      -0.59892176
O       -0.70445933      -1.00764934      -1.31815613
C        0.09095144      -0.97764485       0.66068337
C        1.45995390      -0.68432562       0.72490456
C        1.65736868       0.60177907       0.22107940
C        0.43523149       1.12254407      -0.29583977
C       -0.65918750       0.31922476       0.43219523
H       -2.10526686       0.53278112      -1.23247648
H       -2.46019739      -0.83114545      -0.17672750
H       -0.33479620      -1.84052668       1.15964523
H        2.24425889      -1.40971828       0.89304661
H        2.62942195       1.04369421       0.03524862
H        0.31139800       2.19928073      -0.36236053
H        0.17918509       0.37494491      -1.45294617
H       -1.10028560       0.79380124       1.31062535
15
Frame=10 idx=008207 GeodesicLength=0.7056817164452613 rxn_smarts="[C:1]1([H:8])([H:9])[O:2][C@@:3]2([H:10])[C:4]([H:11])=[C:5]([H:12])[C:6]([H:13])([H:14])[C@@:7]12[H:15]>>[C:1]([O:2][H:14])([C:7]1([H:15])[C:3]([H:10])=[C:4]([H:11])[C:5]([H:12])=[C:6]1[H:13])([H:8])[H:9]"
C       -1.64259957      -0.23811724      -0.59686166
O       -0.69961196      -1.01613398      -1.30806109
C        0.08803134      -0.98218713       0.65537300
C        1.45884019      -0.68527120       0.72164937
C        1.65800879       0.60443510       0.22603818
C        0.43699056       1.12724373      -0.29205789
C       -0.65646738       0.32146722       0.43329237
H       -2.09537795       0.52751850      -1.24112651
H       -2.46602378      -0.82540556      -0.18032362
H       -0.33053936      -1.83343043       1.18057825
H        2.24336992      -1.41315599       0.87890130
H        2.63076275       1.04205131       0.03405697
H        0.31208808       2.20477352      -0.34396725
H        0.17157439       0.37525672      -1.47526635
H       -1.10904604       0.79095544       1.30777493
15
Frame=11 idx=008207 GeodesicLength=0.7763086657683661 rxn_smarts="[C:1]1([H:8])([H:9])[O:2][C@@:3]2([H:10])[C:4]([H:11])=[C:5]([H:12])[C:6]([H:13])([H:14])[C@@:7]12[H:15]>>[C:1]([O:2][H:14])([C:7]1([H:15])[C:3]([H:10])=[C:4]([H:11])[C:5]([H:12])=[C:6]1[H:13])([H:8])[H:9]"
C       -1.64160282      -0.23912144      -0.59478227
O       -0.69478528      -1.02438094      -1.29800912
C        0.08502938      -0.98668789       0.65037125
C        1.45769693      -0.68623625       0.71842288
C        1.65866951       0.60704236       0.23114067
C        0.43877619       1.13199416      -0.28803246
C       -0.65375837       0.32370651       0.43448798
H       -2.08550381       0.52224469      -1.24951584
H       -2.47172693      -0.81970727      -0.18414142
H       -0.32589918      -1.82602612       1.20104619
H        2.24239269      -1.41649839       0.86483509
H        2.63205669       1.04032488       0.03286527
H        0.31283981       2.21011315      -0.32553026
H        0.16363027       0.37504253      -1.49796240
H       -1.11781508       0.78819001       1.30480444
15
Frame=12 idx=008207 GeodesicLength=0.8469491236953566 rxn_smarts="[C:1]1([H:8])([H:9])[O:2][C@@:3]2([H:10])[C:4]([H:11])=[C:5]([H:12])[C:6]([H:13])([H:14])[C@@:7]12[H:15]>>[C:1]([O:2][H:14])([C:7]1([H:15])[C:3]([H:10])=[C:4]([H:11])[C:5]([H:12])=[C:6]1[H:13])([H:8])[H:9]"
C       -1.64058361      -0.24005002      -0.59268360
O       -0.68997843      -1.03240727      -1.28798822
C        0.08194809      -0.99114120       0.64568058
C        1.45652852      -0.68721615       0.71521829
C        1.65935468       0.60960436       0.23638289
C        0.44058975       1.13680389      -0.28375362
C       -0.65105976       0.32594807       0.43578238
H       -2.07563759       0.51696850      -1.25765147
H       -2.47730810      -0.81403823      -0.18817639
H       -0.32089344      -1.81834928       1.22103604
H        2.24132938      -1.41974172       0.85084965
H        2.63330241       1.03853039       0.03168642
H        0.31365207       2.21531551      -0.30703411
H        0.15533974       0.37426545      -1.52106717
H       -1.12658373       0.78550769       1.30171834
15
Frame=13 idx=008207 GeodesicLength=0.9175956057298249 rxn_smarts="[C:1]1([H:8])([H:9])[O:2][C@@:3]2([H:10])[C:4]([H:11])=[C:5]([H:12])[C:6]([H:13])([H:14])[C@@:7]12[H:15]>>[C:1]([O:2][H:14])([C:7]1([H:15])[C:3]([H:10])=[C:4]([H:11])[C:5]([H:12])=[C:6]1[H:13])([H:8])[H:9]"
C       -1.63953643      -0.24090172      -0.59056748
O       -0.68518487      -1.04023136      -1.27798099
C        0.07879114      -0.99553532       0.64130789
C        1.45533703      -0.68819932       0.71204334
C        1.66006723       0.61212924       0.24177008
C        0.44243336       1.14168348      -0.27921041
C       -0.64837219       0.32820004       0.43717529
H       -2.06576758       0.51169181      -1.26554707
H       -2.48276682      -0.80838624      -0.19242620
H       -0.31554794      -1.81043452       1.24055352
H        2.24018043      -1.42289530       0.83689762
H        2.63449918       1.03668623       0.03053869
H        0.31452279       2.22039779      -0.28845993
H        0.14669270       0.37287922      -1.54461173
H       -1.13534803       0.78291596       1.29851739
15
Frame=14 idx=008207 GeodesicLength=0.9882425524879906 rxn_smarts="[C:1]1([H:8])([H:9])[O:2][C@@:3]2([H:10])[C:4]([H:11])=[C:5]([H:12])[C:6]([H:13])([H:14])[C@@:7]12[H:15]>>[C:1]([O:2][H:14])([C:7]1([H:15])[C:3]([H:10])=[C:4]([H:11])[C:5]([H:12])=[C:6]1[H:13])([H:8])[H:9]"
C       -1.63845832      -0.24167225      -0.58843555
O       -0.68040393      -1.04786413      -1.26798250
C        0.07556196      -0.99986571       0.63725213
C        1.45412787      -0.68918081       0.70889291
C        1.66081181       0.61462014       0.24729635
C        0.44430814       1.14664320      -0.27438977
C       -0.64569434       0.33046658       0.43866663
H       -2.05588690       0.50642682      -1.27320800
H       -2.48810325      -0.80273909      -0.19688667
H       -0.30988049      -1.80231749       1.25958568
H        2.23894764      -1.42594967       0.82299369
H        2.63564731       1.03480518       0.02942591
H        0.31545030       2.22537688      -0.26978526
H        0.13767032       0.37083661      -1.56863365
H       -1.14409813       0.78041373       1.29520811
15
Frame=15 idx=008207 GeodesicLength=1.058876945953601 rxn_smarts="[C:1]1([H:8])([H:9])[O:2][C@@:3]2([H:10])[C:4]([H:11])=[C:5]([H:12])[C:6]([H:13])([H:14])[C@@:7]12[H:15]>>[C:1]([O:2][H:14])([C:7]1([H:15])[C:3]([H:10])=[C:4]([H:11])[C:5]([H:12])=[C:6]1[H:13])([H:8])[H:9]"
C       -1.63734497      -0.24235817      -0.58629052
O       -0.67563299      -1.05531840      -1.25798282
C        0.07226574      -1.00412486       0.63351133
C        1.45290402      -0.69015218       0.70576839
C        1.66159196       0.61708238       0.25296006
C        0.44621557       1.15169381      -0.26928026
C       -0.64302580       0.33275355       0.44025555
H       -2.04598664       0.50118055      -1.28064368
H       -2.49331553      -0.79708448      -0.20155649
H       -0.30391378      -1.79403043       1.27813754
H        2.23763259      -1.42890364       0.80912082
H        2.63674692       1.03290287       0.02835972
H        0.31643398       2.23026825      -0.25098342
H        0.12825575       0.36808826      -1.59317035
H       -1.15282682       0.77800252       1.29179415
15
Frame=16 idx=008207 GeodesicLength=1.1294845806407576 rxn_smarts="[C:1]1([H:8])([H:9])[O:2][C@@:3]2([H:10])[C:4]([H:11])=[C:5]([H:12])[C:6]([H:13])([H:14])[C@@:7]12[H:15]>>[C:1]([O:2][H:14])([C:7]1([H:15])[C:3]([H:10])=[C:4]([H:11])[C:5]([H:12])=[C:6]1[H:13])([H:8])[H:9]"
C       -1.63619238      -0.24295476      -0.58413488
O       -0.67086959      -1.06260306      -1.24797713
C        0.06890693      -1.00830672       0.63008479
C        1.45166875      -0.69110632       0.70266981
C        1.66241141       0.61952034       0.25875979
C        0.44815680       1.15684638      -0.26386695
C       -0.64036598       0.33506566       0.44194235
H       -2.03605860       0.49596361      -1.28786047
H       -2.49840216      -0.79141042      -0.20643497
H       -0.29766535      -1.78560361       1.29620512
H        2.23623693      -1.43175194       0.79527625
H        2.63779864       1.03099180       0.02734563
H        0.31747230       2.23508659      -0.23202938
H        0.11842889       0.36458042      -1.61826136
H       -1.16152658       0.77568203       1.28828140
