11
Frame=0 idx=003492 GeodesicLength=0.0 rxn_smarts="[C:1]1([H:6])([H:7])[C@@:2]2([H:8])[C:3]([H:9])([H:10])[C@:4]1([H:11])[O:5]2>>[C:1]([C@:4]1([H:11])[C:3]([H:9])([H:10])[C-:2]=[O+:5]1)([H:6])([H:7])[H:8]"
C        1.13404209      -0.16036254      -0.01815535
C       -0.32551579       1.08842765       0.51601579
C       -1.02204914       0.24553006      -0.57384926
C       -0.24082073      -0.75525674       0.25960857
O       -0.51473499       0.02746382       1.45658572
H        1.50883745      -0.16743114      -1.03982129
H        1.88621398      -0.32660810       0.75122911
H        0.83914527       1.25404051       0.33306929
H       -2.09890621       0.23702641      -0.41903346
H       -0.75059857       0.39223145      -1.61741081
H       -0.41561338      -1.83506141       0.35176168
11
Frame=1 idx=003492 GeodesicLength=0.06296861364097653 rxn_smarts="[C:1]1([H:6])([H:7])[C@@:2]2([H:8])[C:3]([H:9])([H:10])[C@:4]1([H:11])[O:5]2>>[C:1]([C@:4]1([H:11])[C:3]([H:9])([H:10])[C-:2]=[O+:5]1)([H:6])([H:7])[H:8]"
C        1.13626083      -0.15613238      -0.01630653
C       -0.33224880       1.08907791       0.51734436
C       -1.02675640       0.24513285      -0.57210753
C       -0.23802743      -0.75415256       0.25801754
O       -0.51677089       0.02822042       1.45557171
H        1.51155837      -0.17583522      -1.03776288
H        1.88692636      -0.33419627       0.75195206
H        0.85064716       1.26269320       0.32959711
H       -2.10422751       0.22900519      -0.42233527
H       -0.75429807       0.39925621      -1.61447339
H       -0.41306362      -1.83306935       0.35050282
11
Frame=2 idx=003492 GeodesicLength=0.12592639921300694 rxn_smarts="[C:1]1([H:6])([H:7])[C@@:2]2([H:8])[C:3]([H:9])([H:10])[C@:4]1([H:11])[O:5]2>>[C:1]([C@:4]1([H:11])[C:3]([H:9])([H:10])[C-:2]=[O+:5]1)([H:6])([H:7])[H:8]"
C        1.13845352      -0.15185510      -0.01443264
C       -0.33913863       1.08970621       0.51872172
C       -1.03150911       0.24470613      -0.57036032
C       -0.23525708      -0.75300577       0.25641997
O       -0.51881813       0.02894180       1.45458359
H        1.51426942      -0.18419975      -1.03552953
H        1.88755311      -0.34181318       0.75256865
H        0.86255256       1.27139866       0.32600984
H       -2.10952834       0.22087998      -0.42572109
H       -0.75806604       0.40628526      -1.61147791
H       -0.41051128      -1.83104425       0.34921771
11
Frame=3 idx=003492 GeodesicLength=0.18885097315769317 rxn_smarts="[C:1]1([H:6])([H:7])[C@@:2]2([H:8])[C:3]([H:9])([H:10])[C@:4]1([H:11])[O:5]2>>[C:1]([C@:4]1([H:11])[C:3]([H:9])([H:10])[C-:2]=[O+:5]1)([H:6])([H:7])[H:8]"
C        1.14061794      -0.14753558      -0.01253228
C       -0.34618907       1.09030814       0.52014986
C       -1.03630837       0.24424728      -0.56860791
C       -0.23251247      -0.75181862       0.25481643
O       -0.52087915       0.02962455       1.45362254
H        1.51696821      -0.19250814      -1.03312032
H        1.88809255      -0.34944752       0.75307946
H        0.87488187       1.28014990       0.32230184
H       -2.11480739       0.21265705      -0.42919219
H       -0.76190325       0.41331112      -1.60842454
H       -0.40796088      -1.82898818       0.34790711
11
Frame=4 idx=003492 GeodesicLength=0.2517068996244751 rxn_smarts="[C:1]1([H:6])([H:7])[C@@:2]2([H:8])[C:3]([H:9])([H:10])[C@:4]1([H:11])[O:5]2>>[C:1]([C@:4]1([H:11])[C:3]([H:9])([H:10])[C-:2]=[O+:5]1)([H:6])([H:7])[H:8]"
C        1.14275231      -0.14317911      -0.01060415
C       -0.35340270       1.09088010       0.52162958
C       -1.04115576       0.24375375      -0.56685102
C       -0.22979626      -0.75059367       0.25320758
O       -0.52295635       0.03026562       1.45268930
H        1.51965272      -0.20074315      -1.03053536
H        1.88854455      -0.35708734       0.75348567
H        0.88765389       1.28893824       0.31846991
H       -2.12006432       0.20434386      -0.43274962
H       -0.76581117       0.42032556      -1.60531419
H       -0.40541690      -1.82690386       0.34657229
11
Frame=5 idx=003492 GeodesicLength=0.3147227297135122 rxn_smarts="[C:1]1([H:6])([H:7])[C@@:2]2([H:8])[C:3]([H:9])([H:10])[C@:4]1([H:11])[O:5]2>>[C:1]([C@:4]1([H:11])[C:3]([H:9])([H:10])[C-:2]=[O+:5]1)([H:6])([H:7])[H:8]"
C        1.14484721      -0.13877511      -0.00864213
C       -0.36081770       1.09141469       0.52317874
C       -1.04605575       0.24322178      -0.56508860
C       -0.22711255      -0.74932939       0.25159496
O       -0.52505971       0.03085487       1.45179303
H        1.52231425      -0.20889729      -1.02777372
H        1.88889661      -0.36472296       0.75379428
H        0.90095150       1.29776115       0.31447783
H       -2.12530086       0.19592849      -0.43639973
H       -0.76978692       0.42733525      -1.60214305
H       -0.40287609      -1.82479148       0.34520840
11
Frame=6 idx=003492 GeodesicLength=0.3776573576380511 rxn_smarts="[C:1]1([H:6])([H:7])[C@@:2]2([H:8])[C:3]([H:9])([H:10])[C@:4]1([H:11])[O:5]2>>[C:1]([C@:4]1([H:11])[C:3]([H:9])([H:10])[C-:2]=[O+:5]1)([H:6])([H:7])[H:8]"
C        1.14690558      -0.13433541      -0.00664484
C       -0.36840808       1.09190756       0.52478690
C       -1.05100915       0.24264975      -0.56332019
C       -0.22446314      -0.74802682       0.24997758
O       -0.52718347       0.03139520       1.45092445
H        1.52495412      -0.21695801      -1.02482922
H        1.88915198      -0.37234977       0.75400551
H        0.91474868       1.30661546       0.31033384
H       -2.13051530       0.18741734      -0.44014148
H       -0.77383733       0.43433389      -1.59890731
H       -0.40034390      -1.82264918       0.34381477
11
Frame=7 idx=003492 GeodesicLength=0.44058593957614645 rxn_smarts="[C:1]1([H:6])([H:7])[C@@:2]2([H:8])[C:3]([H:9])([H:10])[C@:4]1([H:11])[O:5]2>>[C:1]([C@:4]1([H:11])[C:3]([H:9])([H:10])[C-:2]=[O+:5]1)([H:6])([H:7])[H:8]"
C        1.14892408      -0.12985547      -0.00460923
C       -0.37619660       1.09235954       0.52646231
C       -1.05602053       0.24203679      -0.56154661
C       -0.22185022      -0.74668732       0.24835729
O       -0.52933846       0.03188197       1.45009266
H        1.52757126      -0.22492194      -1.02170642
H        1.88930770      -0.37995651       0.75412458
H        0.92909498       1.31549096       0.30602099
H       -2.13571110       0.17880224      -0.44397873
H       -0.77796406       0.44133263      -1.59560933
H       -0.39781705      -1.82048288       0.34239249
11
Frame=8 idx=003492 GeodesicLength=0.5035443202514811 rxn_smarts="[C:1]1([H:6])([H:7])[C@@:2]2([H:8])[C:3]([H:9])([H:10])[C@:4]1([H:11])[O:5]2>>[C:1]([C@:4]1([H:11])[C:3]([H:9])([H:10])[C-:2]=[O+:5]1)([H:6])([H:7])[H:8]"
C        1.15089518      -0.12533146      -0.00253249
C       -0.38419951       1.09276526       0.52820795
C       -1.06109370       0.24137920      -0.55976785
C       -0.21927597      -0.74530907       0.24673344
O       -0.53152999       0.03231102       1.44929587
H        1.53015841      -0.23278513      -1.01840083
H        1.88935856      -0.38752703       0.75415457
H        0.94403922       1.32437614       0.30152985
H       -2.14088699       0.17007692      -0.44791470
H       -0.78217202       0.44833432      -1.59224307
H       -0.39529319      -1.81829018       0.34093728
11
Frame=9 idx=003492 GeodesicLength=0.5664529110320926 rxn_smarts="[C:1]1([H:6])([H:7])[C@@:2]2([H:8])[C:3]([H:9])([H:10])[C@:4]1([H:11])[O:5]2>>[C:1]([C@:4]1([H:11])[C:3]([H:9])([H:10])[C-:2]=[O+:5]1)([H:6])([H:7])[H:8]"
C        1.15281993      -0.12076527      -0.00040937
C       -0.39241443       1.09311916       0.53003141
C       -1.06623027       0.24067632      -0.55798083
C       -0.21674313      -0.74389325       0.24510679
O       -0.53376027       0.03267814       1.44853788
H        1.53271794      -0.24053676      -1.01491215
H        1.88929972      -0.39505958       0.75410199
H        0.95959223       1.33327247       0.29683579
H       -2.14604370       0.16123734      -0.45195374
H       -0.78646180       0.45534385      -1.58880508
H       -0.39277621      -1.81607242       0.33944732
11
Frame=10 idx=003492 GeodesicLength=0.6293562010474187 rxn_smarts="[C:1]1([H:6])([H:7])[C@@:2]2([H:8])[C:3]([H:9])([H:10])[C@:4]1([H:11])[O:5]2>>[C:1]([C@:4]1([H:11])[C:3]([H:9])([H:10])[C-:2]=[O+:5]1)([H:6])([H:7])[H:8]"
C        1.15469223      -0.11615169       0.00176402
C       -0.40086001       1.09341758       0.53193784
C       -1.07143639       0.23992553      -0.55618619
C       -0.21425469      -0.74243895       0.24347797
O       -0.53603608       0.03297805       1.44782101
H        1.53524409      -0.24816841      -1.01123773
H        1.88912764      -0.40254134       0.75397311
H        0.97581010       1.34216889       0.29192382
H       -2.15118362       0.15227479      -0.45610119
H       -0.79083936       0.46236608      -1.58529225
H       -0.39026391      -1.81383052       0.33791959
11
Frame=11 idx=003492 GeodesicLength=0.6922393122791772 rxn_smarts="[C:1]1([H:6])([H:7])[C@@:2]2([H:8])[C:3]([H:9])([H:10])[C@:4]1([H:11])[O:5]2>>[C:1]([C@:4]1([H:11])[C:3]([H:9])([H:10])[C-:2]=[O+:5]1)([H:6])([H:7])[H:8]"
C        1.15650790      -0.11148869       0.00399185
C       -0.40954743       1.09365449       0.53393312
C       -1.07671589       0.23912434      -0.55438287
C       -0.21181352      -0.74094633       0.24184740
O       -0.53836429       0.03320497       1.44714726
H        1.53773417      -0.25566901      -1.00737621
H        1.88883781      -0.40996047       0.75377442
H        0.99273204       1.35105629       0.28677482
H       -2.15630726       0.14318636      -0.46036042
H       -0.79530784       0.46940341      -1.58170052
H       -0.38775568      -1.81156536       0.33635116
11
Frame=12 idx=003492 GeodesicLength=0.7551431608929233 rxn_smarts="[C:1]1([H:6])([H:7])[C@@:2]2([H:8])[C:3]([H:9])([H:10])[C@:4]1([H:11])[O:5]2>>[C:1]([C@:4]1([H:11])[C:3]([H:9])([H:10])[C-:2]=[O+:5]1)([H:6])([H:7])[H:8]"
C        1.15825843      -0.10676761       0.00627922
C       -0.41850048       1.09382435       0.53602656
C       -1.08207438       0.23826857      -0.55257094
C       -0.20942259      -0.73941343       0.24021545
O       -0.54075321       0.03335179       1.44651996
H        1.54018122      -0.26302461      -1.00332597
H        1.88842530      -0.41729502       0.75351225
H        1.01042347       1.35991032       0.28136954
H       -2.16141569       0.13396648      -0.46473541
H       -0.79987000       0.47645443      -1.57802650
H       -0.38525206      -1.80927527       0.33473583
11
Frame=13 idx=003492 GeodesicLength=0.8180248572055289 rxn_smarts="[C:1]1([H:6])([H:7])[C@@:2]2([H:8])[C:3]([H:9])([H:10])[C@:4]1([H:11])[O:5]2>>[C:1]([C@:4]1([H:11])[C:3]([H:9])([H:10])[C-:2]=[O+:5]1)([H:6])([H:7])[H:8]"
C        1.15994228      -0.10198653       0.00863270
C       -0.42772681       1.09392024       0.53822580
C       -1.08751651       0.23735663      -0.55074843
C       -0.20708473      -0.73784200       0.23858217
O       -0.54321022       0.03341041       1.44594175
H        1.54258673      -0.27022731      -0.99908292
H        1.88788499      -0.42453880       0.75319780
H        1.02891767       1.36873059       0.27567571
H       -2.16651173       0.12461129      -0.46923073
H       -0.80453161       0.48353021      -1.57426403
H       -0.38275005      -1.80696473       0.33307017
11
Frame=14 idx=003492 GeodesicLength=0.8808952927529878 rxn_smarts="[C:1]1([H:6])([H:7])[C@@:2]2([H:8])[C:3]([H:9])([H:10])[C@:4]1([H:11])[O:5]2>>[C:1]([C@:4]1([H:11])[C:3]([H:9])([H:10])[C-:2]=[O+:5]1)([H:6])([H:7])[H:8]"
C        1.16155153      -0.09713479       0.01105772
C       -0.43724596       1.09393649       0.54053743
C       -1.09304891       0.23638637      -0.54891470
C       -0.20480260      -0.73622757       0.23694790
O       -0.54574320       0.03337573       1.44541478
H        1.54494155      -0.27727350      -0.99464223
H        1.88720813      -0.43167937       0.75283805
H        1.04827800       1.37750112       0.26967348
H       -2.17159465       0.11510228      -0.47385503
H       -0.80930162       0.49064318      -1.57040646
H       -0.38024225      -1.80462994       0.33134907
11
Frame=15 idx=003492 GeodesicLength=0.9437649179125134 rxn_smarts="[C:1]1([H:6])([H:7])[C@@:2]2([H:8])[C:3]([H:9])([H:10])[C@:4]1([H:11])[O:5]2>>[C:1]([C@:4]1([H:11])[C:3]([H:9])([H:10])[C-:2]=[O+:5]1)([H:6])([H:7])[H:8]"
C        1.16307937      -0.09220356       0.01356106
C       -0.44708057       1.09386704       0.54297451
C       -1.09867840       0.23535622      -0.54706845
C       -0.20258070      -0.73456921       0.23531229
O       -0.54836487       0.03323774       1.44494352
H        1.54724316      -0.28414765      -0.99000136
H        1.88638798      -0.43869549       0.75244601
H        1.06857117       1.38619877       0.26332832
H       -2.17666737       0.10543322      -0.47861087
H       -0.81418377       0.49779618      -1.56644862
H       -0.37772601      -1.80227327       0.32956360
11
Frame=16 idx=003492 GeodesicLength=1.0066269376229862 rxn_smarts="[C:1]1([H:6])([H:7])[C@@:2]2([H:8])[C:3]([H:9])([H:10])[C@:4]1([H:11])[O:5]2>>[C:1]([C@:4]1([H:11])[C:3]([H:9])([H:10])[C-:2]=[O+:5]1)([H:6])([H:7])[H:8]"
C        1.16451802      -0.08718085       0.01615061
C       -0.45725133       1.09370269       0.54554734
C       -1.10441216       0.23426288      -0.54520808
C       -0.20042143      -0.73286408       0.23367566
O       -0.55108481       0.03298670       1.44453114
H        1.54948723      -0.29084031      -0.98515208
H        1.88541781      -0.44557237       0.75203062
H        1.08986256       1.39480479       0.25660620
H       -2.18173034       0.09558958      -0.48350871
H       -0.81918788       0.50500331      -1.56238141
H       -0.37519767      -1.79989233       0.32770871
