16
Frame=0 idx=011334 GeodesicLength=0.0 rxn_smarts="[C:1]([c:2]1[c:3]([C:4]([H:11])([H:12])[H:13])[c:5]([H:14])[c:6]([H:15])[n:7]1[H:16])([H:8])([H:9])[H:10]>>[C:1]([C:2](=[C:3]=[C:5](/[C:6](=[N:7]/[H:16])[H:15])[H:14])[C:4]([H:11])([H:12])[H:13])([H:8])([H:9])[H:10]"
C       -1.99472609       1.12772095       0.13618759
C       -0.99271884       0.15986106      -0.36837798
C        0.15007564      -0.27645462       0.02770952
C       -1.05908864      -1.54259592       0.16955161
C        1.45383111      -0.55956130       0.20351950
C        2.44390719       0.37012527      -0.28894210
N        2.14695985       1.49059175      -0.82467132
H       -2.97296629       0.98720110      -0.32458279
H       -1.62734534       2.11055487      -0.16629952
H       -2.09925161       1.13198856       1.22541291
H       -0.86053186      -2.23816192      -0.63692380
H       -2.13223044      -1.41084416       0.29862291
H       -0.67857004      -1.89713514       1.13220687
H        1.75449815      -1.47011609       0.70002593
H        3.48147982       0.03744775      -0.16526124
H        2.98667738       1.97937784      -1.11817812
16
Frame=1 idx=011334 GeodesicLength=0.10443125120061825 rxn_smarts="[C:1]([c:2]1[c:3]([C:4]([H:11])([H:12])[H:13])[c:5]([H:14])[c:6]([H:15])[n:7]1[H:16])([H:8])([H:9])[H:10]>>[C:1]([C:2](=[C:3]=[C:5](/[C:6](=[N:7]/[H:16])[H:15])[H:14])[C:4]([H:11])([H:12])[H:13])([H:8])([H:9])[H:10]"
C       -1.96512963       1.14360906       0.14163063
C       -0.94304324       0.18171153      -0.33603670
C        0.16526517      -0.28034702       0.12977076
C       -1.06291387      -1.54234168       0.15380242
C        1.47404335      -0.56798762       0.26207224
C        2.43414275       0.35214126      -0.29949653
N        2.07977175       1.43844819      -0.87700351
H       -2.94469671       0.97119026      -0.30509158
H       -1.62374372       2.12384832      -0.19788716
H       -2.07164187       1.18328971       1.22967950
H       -0.82139554      -2.21829649      -0.65825408
H       -2.14190444      -1.41173570       0.21938620
H       -0.74365217      -1.93625731       1.12345307
H        1.78818429      -1.50104508       0.70542027
H        3.48409925       0.06864283      -0.16643231
H        2.89261463       1.99512974      -1.12501322
16
Frame=2 idx=011334 GeodesicLength=0.2122856606661685 rxn_smarts="[C:1]([c:2]1[c:3]([C:4]([H:11])([H:12])[H:13])[c:5]([H:14])[c:6]([H:15])[n:7]1[H:16])([H:8])([H:9])[H:10]>>[C:1]([C:2](=[C:3]=[C:5](/[C:6](=[N:7]/[H:16])[H:15])[H:14])[C:4]([H:11])([H:12])[H:13])([H:8])([H:9])[H:10]"
C       -1.92807295       1.15921070       0.14605019
C       -0.89505440       0.19683119      -0.30928083
C        0.17830027      -0.29429666       0.21221889
C       -1.06761555      -1.54410732       0.13732187
C        1.49185135      -0.57984601       0.30960098
C        2.42020892       0.33691901      -0.30576300
N        2.00964430       1.39938255      -0.89603990
H       -2.91323156       0.95861543      -0.27565306
H       -1.61114807       2.13141861      -0.23767187
H       -2.02612769       1.23971536       1.23237927
H       -0.78834785      -2.20732073      -0.67375945
H       -2.14817313      -1.41037648       0.14199501
H       -0.80849148      -1.96984829       1.11147144
H        1.81889527      -1.52733817       0.71104187
H        3.48088167       0.10837384      -0.16005460
H        2.78648092       2.00266699      -1.14385682
16
Frame=3 idx=011334 GeodesicLength=0.3212985288002531 rxn_smarts="[C:1]([c:2]1[c:3]([C:4]([H:11])([H:12])[H:13])[c:5]([H:14])[c:6]([H:15])[n:7]1[H:16])([H:8])([H:9])[H:10]>>[C:1]([C:2](=[C:3]=[C:5](/[C:6](=[N:7]/[H:16])[H:15])[H:14])[C:4]([H:11])([H:12])[H:13])([H:8])([H:9])[H:10]"
C       -1.88836686       1.17375218       0.14991985
C       -0.85015026       0.20732177      -0.28760576
C        0.18933522      -0.31340110       0.27851841
C       -1.07300545      -1.54684707       0.12066825
C        1.50754077      -0.59197147       0.34929687
C        2.40461313       0.32491622      -0.30855063
N        1.94072186       1.36146523      -0.91089225
H       -2.88218622       0.94699815      -0.23648664
H       -1.59742276       2.13332027      -0.28331496
H       -1.96859871       1.29934021       1.23318718
H       -0.75994967      -2.20333998      -0.68415786
H       -2.15159768      -1.40788827       0.06680396
H       -0.87283197      -1.99732919       1.09759977
H        1.84770636      -1.54640120       0.72265038
H        3.47369177       0.14717805      -0.15880403
H        2.68050049       2.01288620      -1.14883254
16
Frame=4 idx=011334 GeodesicLength=0.4311895382019878 rxn_smarts="[C:1]([c:2]1[c:3]([C:4]([H:11])([H:12])[H:13])[c:5]([H:14])[c:6]([H:15])[n:7]1[H:16])([H:8])([H:9])[H:10]>>[C:1]([C:2](=[C:3]=[C:5](/[C:6](=[N:7]/[H:16])[H:15])[H:14])[C:4]([H:11])([H:12])[H:13])([H:8])([H:9])[H:10]"
C       -1.84823921       1.18699506       0.15469005
C       -0.80805486       0.21522134      -0.26929825
C        0.19855197      -0.33514954       0.33335337
C       -1.07885353      -1.54987449       0.10225080
C        1.52137233      -0.60325658       0.38428578
C        2.38873782       0.31739991      -0.30507519
N        1.87474417       1.32853110      -0.91577679
H       -2.85212068       0.93561379      -0.18770891
H       -1.58660080       2.12998812      -0.33078072
H       -1.90307045       1.36021959       1.23272841
H       -0.73454686      -2.20342204      -0.69280588
H       -2.15229503      -1.40458919      -0.00884947
H       -0.93733811      -2.02040612       1.08000120
H        1.87531875      -1.55990269       0.73899247
H        3.46414320       0.18561751      -0.15737040
H        2.57825128       2.01701424      -1.15863647
16
Frame=5 idx=011334 GeodesicLength=0.541336642835453 rxn_smarts="[C:1]([c:2]1[c:3]([C:4]([H:11])([H:12])[H:13])[c:5]([H:14])[c:6]([H:15])[n:7]1[H:16])([H:8])([H:9])[H:10]>>[C:1]([C:2](=[C:3]=[C:5](/[C:6](=[N:7]/[H:16])[H:15])[H:14])[C:4]([H:11])([H:12])[H:13])([H:8])([H:9])[H:10]"
C       -1.80852343       1.19909119       0.16096642
C       -0.76847508       0.22165208      -0.25363776
C        0.20642150      -0.35817133       0.37884545
C       -1.08506845      -1.55254623       0.08201115
C        1.53375429      -0.61362650       0.41533918
C        2.37354625       0.31229623      -0.29821758
N        1.81280861       1.29523423      -0.91969901
H       -2.82259148       0.92435638      -0.12921418
H       -1.58075283       2.12171832      -0.37801308
H       -1.83124094       1.42177349       1.23082409
H       -0.71177839      -2.20620353      -0.70043157
H       -2.15032318      -1.40010515      -0.08521058
H       -1.00202999      -2.03918140       1.05859845
H        1.90204022      -1.56899921       0.75895276
H        3.45255558       0.22649562      -0.15070369
H        2.47965733       2.01621582      -1.17041004
16
Frame=6 idx=011334 GeodesicLength=0.6513709878591529 rxn_smarts="[C:1]([c:2]1[c:3]([C:4]([H:11])([H:12])[H:13])[c:5]([H:14])[c:6]([H:15])[n:7]1[H:16])([H:8])([H:9])[H:10]>>[C:1]([C:2](=[C:3]=[C:5](/[C:6](=[N:7]/[H:16])[H:15])[H:14])[C:4]([H:11])([H:12])[H:13])([H:8])([H:9])[H:10]"
C       -1.77036253       1.20994764       0.16755996
C       -0.73108200       0.22723291      -0.24010752
C        0.21314774      -0.38106809       0.41749163
C       -1.09119983      -1.55450454       0.06086590
C        1.54497987      -0.62195897       0.44441561
C        2.35882735       0.30805231      -0.29104617
N        1.75522615       1.26368814      -0.92047116
H       -2.79303167       0.91247467      -0.06377965
H       -1.58163754       2.10842502      -0.42488046
H       -1.75645291       1.48357691       1.22547019
H       -0.69051453      -2.21103498      -0.70614706
H       -2.14531728      -1.39466231      -0.16182367
H       -1.06659559      -2.05350120       1.03443597
H        1.92811126      -1.57284768       0.78451768
H        3.44032913       0.26213414      -0.14961780
H        2.38557237       2.01404604      -1.17688346
16
Frame=7 idx=011334 GeodesicLength=0.7609225967503768 rxn_smarts="[C:1]([c:2]1[c:3]([C:4]([H:11])([H:12])[H:13])[c:5]([H:14])[c:6]([H:15])[n:7]1[H:16])([H:8])([H:9])[H:10]>>[C:1]([C:2](=[C:3]=[C:5](/[C:6](=[N:7]/[H:16])[H:15])[H:14])[C:4]([H:11])([H:12])[H:13])([H:8])([H:9])[H:10]"
C       -1.73417544       1.21965082       0.17602110
C       -0.69564843       0.23282620      -0.22757816
C        0.21874489      -0.40368989       0.45080831
C       -1.09736353      -1.55542774       0.03770615
C        1.55500122      -0.62865567       0.47225864
C        2.34502935       0.30585151      -0.28067829
N        1.70188478       1.23302438      -0.91902191
H       -2.76265970       0.90010399       0.00910991
H       -1.59002045       2.09068751      -0.46787681
H       -1.68032121       1.54433553       1.21788533
H       -0.67088013      -2.21631273      -0.71216036
H       -2.13747454      -1.38766408      -0.23935265
H       -1.13107758      -2.06464837       1.00570332
H        1.95332579      -1.57302862       0.81335385
H        3.42744341       0.29811157      -0.14479575
H        2.29819157       2.00483559      -1.19138268
16
Frame=8 idx=011334 GeodesicLength=0.8701125891085237 rxn_smarts="[C:1]([c:2]1[c:3]([C:4]([H:11])([H:12])[H:13])[c:5]([H:14])[c:6]([H:15])[n:7]1[H:16])([H:8])([H:9])[H:10]>>[C:1]([C:2](=[C:3]=[C:5](/[C:6](=[N:7]/[H:16])[H:15])[H:14])[C:4]([H:11])([H:12])[H:13])([H:8])([H:9])[H:10]"
C       -1.69978826       1.22820259       0.18483859
C       -0.66186831       0.23807215      -0.21647621
C        0.22357955      -0.42591270       0.47927578
C       -1.10375065      -1.55542820       0.01398945
C        1.56411795      -0.63415619       0.49818814
C        2.33209821       0.30456795      -0.26952383
N        1.65266444       1.20406908      -0.91526399
H       -2.73028730       0.88723233       0.08732257
H       -1.60562767       2.06796430      -0.50814375
H       -1.60372230       1.60450422       1.20588482
H       -0.65360709      -2.22270820      -0.71685300
H       -2.12721637      -1.37925215      -0.31577556
H       -1.19517874      -2.07208880       0.97429891
H        1.97785229      -1.57017725       0.84421331
H        3.41435378       0.33167858      -0.14086710
H        2.21638045       1.99343231      -1.20510813
16
Frame=9 idx=011334 GeodesicLength=0.9791820543211771 rxn_smarts="[C:1]([c:2]1[c:3]([C:4]([H:11])([H:12])[H:13])[c:5]([H:14])[c:6]([H:15])[n:7]1[H:16])([H:8])([H:9])[H:10]>>[C:1]([C:2](=[C:3]=[C:5](/[C:6](=[N:7]/[H:16])[H:15])[H:14])[C:4]([H:11])([H:12])[H:13])([H:8])([H:9])[H:10]"
C       -1.66706624       1.23544850       0.19304826
C       -0.62961264       0.24251860      -0.20713378
C        0.22777794      -0.44795215       0.50325844
C       -1.11073963      -1.55488187      -0.00946870
C        1.57242927      -0.63891882       0.52164984
C        2.31983583       0.30449424      -0.25782820
N        1.60703127       1.18001256      -0.90587739
H       -2.69500073       0.87422213       0.16916098
H       -1.62777698       2.03986407      -0.54576229
H       -1.52738813       1.66385456       1.18798292
H       -0.63961005      -2.23070048      -0.71967376
H       -2.11536076      -1.36984534      -0.38944976
H       -1.25871499      -2.07604828       0.94133559
H        2.00183066      -1.56498982       0.87552921
H        3.40138810       0.36167695      -0.13953557
H        2.14097707       1.98124517      -1.21723579
16
Frame=10 idx=011334 GeodesicLength=1.087781367501059 rxn_smarts="[C:1]([c:2]1[c:3]([C:4]([H:11])([H:12])[H:13])[c:5]([H:14])[c:6]([H:15])[n:7]1[H:16])([H:8])([H:9])[H:10]>>[C:1]([C:2](=[C:3]=[C:5](/[C:6](=[N:7]/[H:16])[H:15])[H:14])[C:4]([H:11])([H:12])[H:13])([H:8])([H:9])[H:10]"
C       -1.63628124       1.24164414       0.20132986
C       -0.59856491       0.24703063      -0.19891255
C        0.23165111      -0.46909001       0.52359719
C       -1.11788126      -1.55326854      -0.03300526
C        1.58017205      -0.64250411       0.54370394
C        2.30862749       0.30408599      -0.24702280
N        1.56525550       1.15645420      -0.89687796
H       -2.65641277       0.86146372       0.25217814
H       -1.65535258       2.00800862      -0.57773287
H       -1.45420286       1.72049483       1.16571988
H       -0.62810992      -2.23908675      -0.72142548
H       -2.10169500      -1.35923689      -0.46085463
H       -1.32124347      -2.07666476       0.90630603
H        2.02511306      -1.55651121       0.90978127
H        3.38890212       0.38844142      -0.14020642
H        2.07002266       1.96873870      -1.22657834
16
Frame=11 idx=011334 GeodesicLength=1.1958687076064105 rxn_smarts="[C:1]([c:2]1[c:3]([C:4]([H:11])([H:12])[H:13])[c:5]([H:14])[c:6]([H:15])[n:7]1[H:16])([H:8])([H:9])[H:10]>>[C:1]([C:2](=[C:3]=[C:5](/[C:6](=[N:7]/[H:16])[H:15])[H:14])[C:4]([H:11])([H:12])[H:13])([H:8])([H:9])[H:10]"
C       -1.60738402       1.24680559       0.21012359
C       -0.56861722       0.25169564      -0.19140900
C        0.23527387      -0.48949197       0.54079144
C       -1.12525439      -1.55061971      -0.05673084
C        1.58740233      -0.64513669       0.56446455
C        2.29842810       0.30406871      -0.23611816
N        1.52692708       1.13357437      -0.88800995
H       -2.61450620       0.84921319       0.33493364
H       -1.68685841       1.97342335      -0.60255995
H       -1.38535550       1.77341648       1.14041071
H       -0.61919698      -2.24751871      -0.72264466
H       -2.08657052      -1.34747739      -0.52999081
H       -1.38275015      -2.07437280       0.86904936
H        2.04771168      -1.54517350       0.94604406
H        3.37678001       0.41389674      -0.14047119
H        2.00397032       1.95369669      -1.23788278
16
Frame=12 idx=011334 GeodesicLength=1.3035222851489285 rxn_smarts="[C:1]([c:2]1[c:3]([C:4]([H:11])([H:12])[H:13])[c:5]([H:14])[c:6]([H:15])[n:7]1[H:16])([H:8])([H:9])[H:10]>>[C:1]([C:2](=[C:3]=[C:5](/[C:6](=[N:7]/[H:16])[H:15])[H:14])[C:4]([H:11])([H:12])[H:13])([H:8])([H:9])[H:10]"
C       -1.58015457       1.25094103       0.21900343
C       -0.53965407       0.25628026      -0.18469016
C        0.23882960      -0.50926661       0.55508041
C       -1.13296269      -1.54715200      -0.08011743
C        1.59428210      -0.64704295       0.58370236
C        2.28915645       0.30426602      -0.22566379
N        1.49166738       1.11191338      -0.87892139
H       -2.56948350       0.83764514       0.41547165
H       -1.72057499       1.93685965      -0.62043549
H       -1.32157381       1.82218386       1.11253915
H       -0.61303037      -2.25636962      -0.72272575
H       -2.07029412      -1.33508545      -0.59649542
H       -1.44329387      -2.06908370       0.83041943
H        2.06969734      -1.53116026       0.98373029
H        3.36514221       0.43761243      -0.14141512
H        1.94224689       1.93745881      -1.24948219
16
Frame=13 idx=011334 GeodesicLength=1.410596355282975 rxn_smarts="[C:1]([c:2]1[c:3]([C:4]([H:11])([H:12])[H:13])[c:5]([H:14])[c:6]([H:15])[n:7]1[H:16])([H:8])([H:9])[H:10]>>[C:1]([C:2](=[C:3]=[C:5](/[C:6](=[N:7]/[H:16])[H:15])[H:14])[C:4]([H:11])([H:12])[H:13])([H:8])([H:9])[H:10]"
C       -1.55458013       1.25413528       0.22818256
C       -0.51158663       0.26094715      -0.17847674
C        0.24241684      -0.52834303       0.56685981
C       -1.14088465      -1.54283461      -0.10322240
C        1.60089570      -0.64808972       0.60183626
C        2.28079284       0.30443110      -0.21589428
N        1.45924624       1.09071719      -0.87055565
H       -2.52197642       0.82663202       0.49251512
H       -1.75517319       1.89954068      -0.63098828
H       -1.26364357       1.86621675       1.08365118
H       -0.60929344      -2.26533269      -0.72188159
H       -2.05286055      -1.32227502      -0.66067105
H       -1.50274342      -2.06103833       0.79033105
H        2.09099988      -1.51403582       1.02348508
H        3.35405451       0.45957138      -0.14328856
H        1.88433601       1.91975767      -1.26188249
16
Frame=14 idx=011334 GeodesicLength=1.5172392694999692 rxn_smarts="[C:1]([c:2]1[c:3]([C:4]([H:11])([H:12])[H:13])[c:5]([H:14])[c:6]([H:15])[n:7]1[H:16])([H:8])([H:9])[H:10]>>[C:1]([C:2](=[C:3]=[C:5](/[C:6](=[N:7]/[H:16])[H:15])[H:14])[C:4]([H:11])([H:12])[H:13])([H:8])([H:9])[H:10]"
C       -1.53039207       1.25635812       0.23728847
C       -0.48435082       0.26537792      -0.17290490
C        0.24615423      -0.54696828       0.57621862
C       -1.14917636      -1.53796961      -0.12571509
C        1.60735089      -0.64859001       0.61854607
C        2.27322746       0.30458650      -0.20701063
N        1.42927687       1.07089649      -0.86198301
H       -2.47234160       0.81616154       0.56562399
H       -1.78974133       1.86158660      -0.63535075
H       -1.21109085       1.90594938       1.05381131
H       -0.60817429      -2.27494430      -0.71951356
H       -2.03442252      -1.30962059      -0.72255936
H       -1.56140209      -2.05011004       0.74940471
H        2.11163858      -1.49402041       1.06457426
H        3.34359416       0.47941311      -0.14684432
H        1.82984974       1.90189356      -1.27358582
16
Frame=15 idx=011334 GeodesicLength=1.6233524112553388 rxn_smarts="[C:1]([c:2]1[c:3]([C:4]([H:11])([H:12])[H:13])[c:5]([H:14])[c:6]([H:15])[n:7]1[H:16])([H:8])([H:9])[H:10]>>[C:1]([C:2](=[C:3]=[C:5](/[C:6](=[N:7]/[H:16])[H:15])[H:14])[C:4]([H:11])([H:12])[H:13])([H:8])([H:9])[H:10]"
C       -1.50758142       1.25765865       0.24669659
C       -0.45788164       0.26973451      -0.16766438
C        0.25008897      -0.56516121       0.58346478
C       -1.15772502      -1.53251197      -0.14784688
C        1.61368276      -0.64846791       0.63419553
C        2.26642124       0.30466076      -0.19894856
N        1.40155119       1.05185421      -0.85381491
H       -2.42116213       0.80593847       0.63474143
H       -1.82371893       1.82364338      -0.63358098
H       -1.16394800       1.94141528       1.02421506
H       -0.60937011      -2.28494639      -0.71587533
H       -2.01475583      -1.29720948      -0.78277249
H       -1.61932696      -2.03644319       0.70724587
H        2.13147242      -1.47063863       1.10756845
H        3.33377704       0.49723414      -0.15201409
H        1.77847643       1.88323938      -1.28561010
16
Frame=16 idx=011334 GeodesicLength=1.7288854046774578 rxn_smarts="[C:1]([c:2]1[c:3]([C:4]([H:11])([H:12])[H:13])[c:5]([H:14])[c:6]([H:15])[n:7]1[H:16])([H:8])([H:9])[H:10]>>[C:1]([C:2](=[C:3]=[C:5](/[C:6](=[N:7]/[H:16])[H:15])[H:14])[C:4]([H:11])([H:12])[H:13])([H:8])([H:9])[H:10]"
C       -1.48607966       1.25805686       0.25658518
C       -0.43211662       0.27406076      -0.16257698
C        0.25427644      -0.58299312       0.58880198
C       -1.16647303      -1.52648230      -0.16972952
C        1.61993141      -0.64772202       0.64897840
C        2.26032095       0.30459989      -0.19170703
N        1.37585662       1.03332734      -0.84628764
H       -2.36893556       0.79569209       0.69987566
H       -1.85662318       1.78612345      -0.62609770
H       -1.12201506       1.97278639       0.99568446
H       -0.61274502      -2.29525848      -0.71101413
H       -1.99368579      -1.28519432      -0.84167510
H       -1.67656833      -2.02009138       0.66365486
H        2.15033158      -1.44350369       1.15269135
H        3.32462790       0.51293923      -0.15898839
H        1.72989735       1.86365930      -1.29819540
