18
Frame=0 idx=007875 GeodesicLength=0.0 rxn_smarts="[C:1]([C:2]([C:3]([H:12])([H:13])[H:14])([C@@:4]([C:5]([H:16])([H:17])[H:18])([C:6]#[N:7])[H:15])[H:11])([H:8])([H:9])[H:10]>>[C:1]([C:2](=[C:3]([H:13])[H:14])[H:11])([H:8])([H:9])[H:10].[C:4]([C:5]([H:16])([H:17])[H:18])(=[C:6]=[N:7][H:12])[H:15]"
C        1.76179353      -0.52667692       0.67882539
C        0.71722145       0.53728190       0.49260394
C        0.93557914       1.61509576      -0.35150346
C       -0.93884157      -0.89172171      -0.42474262
C       -2.09583344      -0.83899276       0.53644385
C       -0.91178714      -0.15540960      -1.55143667
N       -0.60433272       0.71824047      -2.29915337
H        1.36811744      -1.41746543       1.16797596
H        2.57570642      -0.13987211       1.29906124
H        2.19461508      -0.82249006      -0.27903822
H        0.00068839       0.65675286       1.29711155
H        0.18929310       1.30729567      -1.52454288
H        1.90640593       1.69785184      -0.83418089
H        0.44405523       2.55701522      -0.12970769
H       -0.36476942      -1.81227943      -0.45598131
H       -2.84972096      -1.59565434       0.30743444
H       -1.74763314      -1.02643417       1.55486882
H       -2.58055730       0.13746281       0.51596188
18
Frame=1 idx=007875 GeodesicLength=0.09531011075511196 rxn_smarts="[C:1]([C:2]([C:3]([H:12])([H:13])[H:14])([C@@:4]([C:5]([H:16])([H:17])[H:18])([C:6]#[N:7])[H:15])[H:11])([H:8])([H:9])[H:10]>>[C:1]([C:2](=[C:3]([H:13])[H:14])[H:11])([H:8])([H:9])[H:10].[C:4]([C:5]([H:16])([H:17])[H:18])(=[C:6]=[N:7][H:12])[H:15]"
C        1.78136512      -0.52830588       0.65554030
C        0.72290329       0.52652962       0.49410821
C        0.92406567       1.62105546      -0.33575547
C       -0.94317327      -0.89491120      -0.40501319
C       -2.11542804      -0.82209114       0.53745786
C       -0.90818984      -0.18193244      -1.54985614
N       -0.58995110       0.67950855      -2.30718087
H        1.40290026      -1.43196162       1.13331540
H        2.59487571      -0.14588727       1.27881115
H        2.21090082      -0.80565060      -0.30922350
H        0.02943232       0.63717697       1.32026779
H        0.24102743       1.28520456      -1.54734277
H        1.91149254       1.77096984      -0.76544397
H        0.37762228       2.53862081      -0.14072257
H       -0.39057951      -1.82903693      -0.42716738
H       -2.87374749      -1.57244227       0.30270228
H       -1.78585733      -1.00585490       1.56271473
H       -2.58965886       0.15900846       0.50278814
18
Frame=2 idx=007875 GeodesicLength=0.18965672704087944 rxn_smarts="[C:1]([C:2]([C:3]([H:12])([H:13])[H:14])([C@@:4]([C:5]([H:16])([H:17])[H:18])([C:6]#[N:7])[H:15])[H:11])([H:8])([H:9])[H:10]>>[C:1]([C:2](=[C:3]([H:13])[H:14])[H:11])([H:8])([H:9])[H:10].[C:4]([C:5]([H:16])([H:17])[H:18])(=[C:6]=[N:7][H:12])[H:15]"
C        1.80053637      -0.52958282       0.63222630
C        0.72855148       0.51573015       0.49612640
C        0.91196840       1.62570536      -0.32055771
C       -0.94702513      -0.89793271      -0.38569527
C       -2.13392942      -0.80456795       0.53779315
C       -0.90406788      -0.20917684      -1.54850412
N       -0.57475354       0.64105259      -2.31381783
H        1.43700224      -1.44594703       1.09759560
H        2.61378272      -0.15175989       1.25843327
H        2.22679798      -0.78808334      -0.33912580
H        0.05858104       0.61765238       1.34298730
H        0.29088586       1.26487554      -1.56654941
H        1.90944087       1.84127997      -0.69543414
H        0.31508763       2.51731240      -0.15341693
H       -0.41588974      -1.84488078      -0.39788335
H       -2.89626320      -1.54913603       0.29797798
H       -1.82284222      -0.98324688       1.56968958
H       -2.59786347       0.18070589       0.48815499
18
Frame=3 idx=007875 GeodesicLength=0.2832975305809433 rxn_smarts="[C:1]([C:2]([C:3]([H:12])([H:13])[H:14])([C@@:4]([C:5]([H:16])([H:17])[H:18])([C:6]#[N:7])[H:15])[H:11])([H:8])([H:9])[H:10]>>[C:1]([C:2](=[C:3]([H:13])[H:14])[H:11])([H:8])([H:9])[H:10].[C:4]([C:5]([H:16])([H:17])[H:18])(=[C:6]=[N:7][H:12])[H:15]"
C        1.81943529      -0.53053362       0.60861443
C        0.73420797       0.50475844       0.49865178
C        0.89928734       1.62924431      -0.30553252
C       -0.95040700      -0.90099507      -0.36656787
C       -2.15149061      -0.78623218       0.53738886
C       -0.89907721      -0.23763251      -1.54723786
N       -0.55816095       0.60188027      -2.31942823
H        1.47071612      -1.45945842       1.06060520
H        2.63267887      -0.15752427       1.23749464
H        2.24217816      -0.76973888      -0.36912379
H        0.08825717       0.59786872       1.36537230
H        0.33832636       1.24703556      -1.58225193
H        1.90033985       1.90881092      -0.62421759
H        0.25613297       2.49349923      -0.16693182
H       -0.44082690      -1.86008254      -0.36756469
H       -2.91756821      -1.52541916       0.29320080
H       -1.85895832      -0.95830297       1.57579676
H       -2.60507090       0.20282215       0.47173154
18
Frame=4 idx=007875 GeodesicLength=0.3764476699892877 rxn_smarts="[C:1]([C:2]([C:3]([H:12])([H:13])[H:14])([C@@:4]([C:5]([H:16])([H:17])[H:18])([C:6]#[N:7])[H:15])[H:11])([H:8])([H:9])[H:10]>>[C:1]([C:2](=[C:3]([H:13])[H:14])[H:11])([H:8])([H:9])[H:10].[C:4]([C:5]([H:16])([H:17])[H:18])(=[C:6]=[N:7][H:12])[H:15]"
C        1.83801057      -0.53116301       0.58469560
C        0.73988217       0.49360691       0.50158104
C        0.88622285       1.63181054      -0.29056805
C       -0.95340121      -0.90412790      -0.34757617
C       -2.16814466      -0.76717553       0.53630359
C       -0.89332549      -0.26729319      -1.54590191
N       -0.54036809       0.56181947      -2.32410359
H        1.50393045      -1.47244314       1.02235834
H        2.65151471      -0.16320386       1.21600420
H        2.25698428      -0.75066785      -0.39919908
H        0.11843502       0.57783966       1.38731205
H        0.38356560       1.23191646      -1.59496942
H        1.88461955       1.97339361      -0.55184435
H        0.20072473       2.46759705      -0.18099402
H       -0.46544630      -1.87463405      -0.33620460
H       -2.93771856      -1.50139759       0.28845425
H       -1.89416650      -0.93109456       1.58105325
H       -2.61131914       0.22521697       0.45359886
18
Frame=5 idx=007875 GeodesicLength=0.4692015130884196 rxn_smarts="[C:1]([C:2]([C:3]([H:12])([H:13])[H:14])([C@@:4]([C:5]([H:16])([H:17])[H:18])([C:6]#[N:7])[H:15])[H:11])([H:8])([H:9])[H:10]>>[C:1]([C:2](=[C:3]([H:13])[H:14])[H:11])([H:8])([H:9])[H:10].[C:4]([C:5]([H:16])([H:17])[H:18])(=[C:6]=[N:7][H:12])[H:15]"
C        1.85616864      -0.53147387       0.56054627
C        0.74558408       0.48230789       0.50478478
C        0.87302016       1.63349719      -0.27567003
C       -0.95607930      -0.90729967      -0.32871198
C       -2.18389371      -0.74757606       0.53461154
C       -0.88703344      -0.29800666      -1.54435399
N       -0.52179703       0.52102576      -2.32780266
H        1.53643625      -1.48480958       0.98297663
H        2.67014839      -0.16881154       1.19408340
H        2.27118370      -0.73098434      -0.42919856
H        0.14903848       0.55769355       1.40862540
H        0.42697596       1.21951504      -1.60524186
H        1.86273538       2.03482008      -0.47843687
H        0.14899872       2.44003593      -0.19548188
H       -0.48975187      -1.88844835      -0.30395535
H       -2.95668703      -1.47731481       0.28384550
H       -1.92833092      -0.90179522       1.58546988
H       -2.61671646       0.24762466       0.43390980
18
Frame=6 idx=007875 GeodesicLength=0.5616212212070368 rxn_smarts="[C:1]([C:2]([C:3]([H:12])([H:13])[H:14])([C@@:4]([C:5]([H:16])([H:17])[H:18])([C:6]#[N:7])[H:15])[H:11])([H:8])([H:9])[H:10]>>[C:1]([C:2](=[C:3]([H:13])[H:14])[H:11])([H:8])([H:9])[H:10].[C:4]([C:5]([H:16])([H:17])[H:18])(=[C:6]=[N:7][H:12])[H:15]"
C        1.87381059      -0.53146458       0.53629843
C        0.75131387       0.47093984       0.50811355
C        0.85996186       1.63442760      -0.26093276
C       -0.95853935      -0.91042990      -0.30999594
C       -2.19875049      -0.72767505       0.53242372
C       -0.88052125      -0.32948705      -1.54247388
N       -0.50287345       0.47978755      -2.33046182
H        1.56797481      -1.49647856       0.94263441
H        2.68842245      -0.17437166       1.17196787
H        2.28481486      -0.71079122      -0.45890557
H        0.17996673       0.53762290       1.42911937
H        0.46897630       1.20975410      -1.61357819
H        1.83522052       2.09280748      -0.40412742
H        0.10112123       2.41127045      -0.21051753
H       -0.51375524      -1.90139958      -0.27108930
H       -2.97443725      -1.45349204       0.27950189
H       -1.96127971      -0.87073514       1.58907209
H       -2.62142648       0.26971486       0.41295107
18
Frame=7 idx=007875 GeodesicLength=0.6537291516070503 rxn_smarts="[C:1]([C:2]([C:3]([H:12])([H:13])[H:14])([C@@:4]([C:5]([H:16])([H:17])[H:18])([C:6]#[N:7])[H:15])[H:11])([H:8])([H:9])[H:10]>>[C:1]([C:2](=[C:3]([H:13])[H:14])[H:11])([H:8])([H:9])[H:10].[C:4]([C:5]([H:16])([H:17])[H:18])(=[C:6]=[N:7][H:12])[H:15]"
C        1.89089671      -0.53114083       0.51201632
C        0.75708988       0.45955053       0.51146419
C        0.84723828       1.63470497      -0.24639753
C       -0.96083841      -0.91346324      -0.29140957
C       -2.21275773      -0.70762312       0.52981027
C       -0.87398489      -0.36156773      -1.54016383
N       -0.48386364       0.43827500      -2.33203175
H        1.59841340      -1.50739529       0.90144417
H        2.70625770      -0.17990844       1.14977054
H        2.29791239      -0.69016819      -0.48820622
H        0.21116795       0.51773616       1.44867825
H        0.50989820       1.20251833      -1.62034200
H        1.80242308       2.14718552      -0.32904158
H        0.05714847       2.38167739      -0.22611063
H       -0.53746258      -1.91341502      -0.23774135
H       -2.99099394      -1.43011809       0.27549838
H       -1.99296094      -0.83812714       1.59187631
H       -2.62558392       0.29127920       0.39088604
18
Frame=8 idx=007875 GeodesicLength=0.7455558484077338 rxn_smarts="[C:1]([C:2]([C:3]([H:12])([H:13])[H:14])([C@@:4]([C:5]([H:16])([H:17])[H:18])([C:6]#[N:7])[H:15])[H:11])([H:8])([H:9])[H:10]>>[C:1]([C:2](=[C:3]([H:13])[H:14])[H:11])([H:8])([H:9])[H:10].[C:4]([C:5]([H:16])([H:17])[H:18])(=[C:6]=[N:7][H:12])[H:15]"
C        1.90740625      -0.53050974       0.48776091
C        0.76293256       0.44819248       0.51475408
C        0.83502008       1.63444459      -0.23209520
C       -0.96302606      -0.91634223      -0.27293325
C       -2.22597134      -0.68755715       0.52683752
C       -0.86759872      -0.39408695      -1.53734801
N       -0.46496802       0.39663098      -2.33248714
H        1.62764878      -1.51751850       0.85952378
H        2.72360554      -0.18545098       1.12759440
H        2.31051969      -0.66918607      -0.51700511
H        0.24260226       0.49812836       1.46722291
H        0.55004123       1.19770239      -1.62581530
H        1.76464472       2.19778950      -0.25335787
H        0.01710651       2.35160841      -0.24229000
H       -0.56088088      -1.92443399      -0.20403574
H       -3.00640721      -1.40734813       0.27188913
H       -2.02335743      -0.80420277       1.59390198
H       -2.62931795       0.31213982       0.36788292
18
Frame=9 idx=007875 GeodesicLength=0.8371134105115481 rxn_smarts="[C:1]([C:2]([C:3]([H:12])([H:13])[H:14])([C@@:4]([C:5]([H:16])([H:17])[H:18])([C:6]#[N:7])[H:15])[H:11])([H:8])([H:9])[H:10]>>[C:1]([C:2](=[C:3]([H:13])[H:14])[H:11])([H:8])([H:9])[H:10].[C:4]([C:5]([H:16])([H:17])[H:18])(=[C:6]=[N:7][H:12])[H:15]"
C        1.92333338      -0.52958157       0.46359179
C        0.76886593       0.43691568       0.51791989
C        0.82346012       1.63375592      -0.21804371
C       -0.96513926      -0.91901059      -0.25454980
C       -2.23845517      -0.66759963       0.52356482
C       -0.86151132      -0.42689524      -1.53397121
N       -0.44635552       0.35499186      -2.33182275
H        1.65560570      -1.52681329       0.81699841
H        2.74043305      -0.19102855       1.10552962
H        2.32268660      -0.64792065      -0.54521730
H        0.27423310       0.47888369       1.48470054
H        0.58968300       1.19520183      -1.63021398
H        1.72213615       2.24447558      -0.17733186
H       -0.01898498       2.32139084      -0.25905041
H       -0.58401357      -1.93440806      -0.17008727
H       -3.02074124      -1.38531376       0.26871286
H       -2.05247903      -0.76918827       1.59517145
H       -2.63275694       0.33214421       0.34409890
18
Frame=10 idx=007875 GeodesicLength=0.9284239136919135 rxn_smarts="[C:1]([C:2]([C:3]([H:12])([H:13])[H:14])([C@@:4]([C:5]([H:16])([H:17])[H:18])([C:6]#[N:7])[H:15])[H:11])([H:8])([H:9])[H:10]>>[C:1]([C:2](=[C:3]([H:13])[H:14])[H:11])([H:8])([H:9])[H:10].[C:4]([C:5]([H:16])([H:17])[H:18])(=[C:6]=[N:7][H:12])[H:15]"
C        1.93867054      -0.52836667       0.43956410
C        0.77490029       0.42578001       0.52090807
C        0.81268949       1.63277048      -0.20424932
C       -0.96721100      -0.92141186      -0.23624272
C       -2.25027478      -0.64786956       0.52005358
C       -0.85585316      -0.45983778      -1.52998714
N       -0.42816223       0.31346760      -2.33004203
H        1.68221510      -1.53525713       0.77399614
H        2.75672054      -0.19667808       1.08365545
H        2.33444983      -0.62643801      -0.57277304
H        0.30602602       0.46008353       1.50107748
H        0.62909290       1.19494778      -1.63369240
H        1.67515761       2.28707770      -0.10123358
H       -0.05112725       2.29133838      -0.27644170
H       -0.60686109      -1.94329853      -0.13601091
H       -3.03405629      -1.36413513       0.26600530
H       -2.08035245      -0.73332623       1.59570960
H       -2.63602407       0.35115351       0.31970311
18
Frame=11 idx=007875 GeodesicLength=1.0194803077791637 rxn_smarts="[C:1]([C:2]([C:3]([H:12])([H:13])[H:14])([C@@:4]([C:5]([H:16])([H:17])[H:18])([C:6]#[N:7])[H:15])[H:11])([H:8])([H:9])[H:10]>>[C:1]([C:2](=[C:3]([H:13])[H:14])[H:11])([H:8])([H:9])[H:10].[C:4]([C:5]([H:16])([H:17])[H:18])(=[C:6]=[N:7][H:12])[H:15]"
C        1.95343667      -0.52688284       0.41570426
C        0.78105428       0.41481508       0.52369571
C        0.80277466       1.63158786      -0.19068050
C       -0.96925619      -0.92350071      -0.21798404
C       -2.26149316      -0.62842576       0.51634191
C       -0.85069204      -0.49281912      -1.52535659
N       -0.41046758       0.27212709      -2.32715168
H        1.70746965      -1.54284873       0.73059044
H        2.77247348      -0.20244509       1.06200705
H        2.34585521      -0.60478116      -0.59963930
H        0.33797090       0.44174741       1.51635641
H        0.66851728       1.19687278      -1.63633523
H        1.62384872       2.32548471      -0.02536712
H       -0.07939889       2.26167798      -0.29444047
H       -0.62942478      -1.95108534      -0.10185113
H       -3.04642534      -1.34385500       0.26378350
H       -2.10703392      -0.69677115       1.59553009
H       -2.63920896       0.36910200       0.29479669
18
Frame=12 idx=007875 GeodesicLength=1.1103259746025949 rxn_smarts="[C:1]([C:2]([C:3]([H:12])([H:13])[H:14])([C@@:4]([C:5]([H:16])([H:17])[H:18])([C:6]#[N:7])[H:15])[H:11])([H:8])([H:9])[H:10]>>[C:1]([C:2](=[C:3]([H:13])[H:14])[H:11])([H:8])([H:9])[H:10].[C:4]([C:5]([H:16])([H:17])[H:18])(=[C:6]=[N:7][H:12])[H:15]"
C        1.96766035      -0.52513851       0.39201609
C        0.78734681       0.40405460       0.52627487
C        0.79376037       1.63031990      -0.17728402
C       -0.97129519      -0.92524130      -0.19973393
C       -2.27219207      -0.60931638       0.51246749
C       -0.84606009      -0.52577939      -1.52004623
N       -0.39332217       0.23100162      -2.32316534
H        1.73137360      -1.54959119       0.68683254
H        2.78773037      -0.20836436       1.04059324
H        2.35694706      -0.58296743      -0.62582700
H        0.37007111       0.42387015       1.53056858
H        0.70820050       1.20095471      -1.63818188
H        1.56836268       2.35958061       0.04998017
H       -0.10389345       2.23260119      -0.31305595
H       -0.65171536      -1.95775905      -0.06761660
H       -3.05794515      -1.32449635       0.26205189
H       -2.13263164      -0.65967032       1.59465438
H       -2.64239771       0.38594150       0.26947169
18
Frame=13 idx=007875 GeodesicLength=1.2009547664721476 rxn_smarts="[C:1]([C:2]([C:3]([H:12])([H:13])[H:14])([C@@:4]([C:5]([H:16])([H:17])[H:18])([C:6]#[N:7])[H:15])[H:11])([H:8])([H:9])[H:10]>>[C:1]([C:2](=[C:3]([H:13])[H:14])[H:11])([H:8])([H:9])[H:10].[C:4]([C:5]([H:16])([H:17])[H:18])(=[C:6]=[N:7][H:12])[H:15]"
C        1.98136835      -0.52315509       0.36851165
C        0.79379269       0.39350420       0.52865324
C        0.78564084       1.62902759      -0.16399572
C       -0.97332825      -0.92659338      -0.18147133
C       -2.28241400      -0.59054974       0.50845987
C       -0.84198182      -0.55865580      -1.51403127
N       -0.37676545       0.19012316      -2.31810875
H        1.75394848      -1.55549971       0.64274199
H        2.80249690      -0.21449454       1.01943475
H        2.36777978      -0.56100997      -0.65131827
H        0.40232824       0.40642922       1.54374855
H        0.74839367       1.20715733      -1.63922184
H        1.50873212       2.38929099       0.12443077
H       -0.12475008       2.20421319      -0.33223455
H       -0.67373358      -1.96330639      -0.03332642
H       -3.06868442      -1.30602298       0.26081464
H       -2.15719964      -0.62213097       1.59309349
H       -2.64562383       0.40167289       0.24381919
18
Frame=14 idx=007875 GeodesicLength=1.2914193844400903 rxn_smarts="[C:1]([C:2]([C:3]([H:12])([H:13])[H:14])([C@@:4]([C:5]([H:16])([H:17])[H:18])([C:6]#[N:7])[H:15])[H:11])([H:8])([H:9])[H:10]>>[C:1]([C:2](=[C:3]([H:13])[H:14])[H:11])([H:8])([H:9])[H:10].[C:4]([C:5]([H:16])([H:17])[H:18])(=[C:6]=[N:7][H:12])[H:15]"
C        1.99457773      -0.52094378       0.34519837
C        0.80039579       0.38319256       0.53083144
C        0.77842760       1.62781136      -0.15075455
C       -0.97537153      -0.92753003      -0.16316847
C       -2.29222700      -0.57217133       0.50435668
C       -0.83847829      -0.59139127      -1.50728888
N       -0.36087284       0.14953095      -2.31200995
H        1.77519446      -1.56058195       0.59837559
H        2.81680498      -0.22087575       0.99853193
H        2.37837513      -0.53892680      -0.67611821
H        0.43474305       0.38941874       1.55593068
H        0.78935247       1.21552230      -1.63941896
H        1.44510307       2.41449285       0.19765848
H       -0.14203007       2.17667254      -0.35201584
H       -0.69548533      -1.96772969       0.00100588
H       -3.07871819      -1.28846285       0.26009324
H       -2.18082753      -0.58428034       1.59087285
H       -2.64896350       0.41625250       0.21791972
18
Frame=15 idx=007875 GeodesicLength=1.3817290363108048 rxn_smarts="[C:1]([C:2]([C:3]([H:12])([H:13])[H:14])([C@@:4]([C:5]([H:16])([H:17])[H:18])([C:6]#[N:7])[H:15])[H:11])([H:8])([H:9])[H:10]>>[C:1]([C:2](=[C:3]([H:13])[H:14])[H:11])([H:8])([H:9])[H:10].[C:4]([C:5]([H:16])([H:17])[H:18])(=[C:6]=[N:7][H:12])[H:15]"
C        2.00730296      -0.51851919       0.32208326
C        0.80715486       0.37313150       0.53281181
C        0.77210346       1.62673263      -0.13749914
C       -0.97743152      -0.92801830      -0.14480672
C       -2.30167973      -0.55420432       0.50019802
C       -0.83556680      -0.62392862      -1.49979883
N       -0.34571746       0.10926724      -2.30490184
H        1.79511622      -1.56484720       0.55375102
H        2.83065522      -0.22756244       0.97790047
H        2.38877995      -0.51672353      -0.70021602
H        0.46730716       0.37282671       1.56714216
H        0.83135364       1.22608545      -1.63869721
H        1.37754971       2.43508051       0.26928448
H       -0.15580417       2.15007751      -0.37241210
H       -0.71696815      -1.97102131       0.03536124
H       -3.08810383      -1.27181179       0.25991574
H       -2.20357981      -0.54622499       1.58801844
H       -2.65247172       0.42966013       0.19186522
18
Frame=16 idx=007875 GeodesicLength=1.4719185824891905 rxn_smarts="[C:1]([C:2]([C:3]([H:12])([H:13])[H:14])([C@@:4]([C:5]([H:16])([H:17])[H:18])([C:6]#[N:7])[H:15])[H:11])([H:8])([H:9])[H:10]>>[C:1]([C:2](=[C:3]([H:13])[H:14])[H:11])([H:8])([H:9])[H:10].[C:4]([C:5]([H:16])([H:17])[H:18])(=[C:6]=[N:7][H:12])[H:15]"
C        2.01956061      -0.51589838       0.29917504
C        0.81406695       0.36332883       0.53459731
C        0.76664090       1.62584856      -0.12417037
C       -0.97951992      -0.92803156      -0.12637297
C       -2.31082052      -0.53667088       0.49603020
C       -0.83327417      -0.65621265      -1.49155024
N       -0.33138553       0.06937192      -2.29683444
H        1.81372026      -1.56831082       0.50888320
H        2.84405277      -0.23461361       0.95756035
H        2.39904468      -0.49440332      -0.72359829
H        0.50001800       0.35664296       1.57741178
H        0.87470133       1.23891825      -1.63694634
H        1.30612193       2.45096153       0.33891755
H       -0.16612409       2.12450561      -0.39346318
H       -0.73818350      -1.97318388       0.06971807
H       -3.09690410      -1.25606245       0.26031777
H       -2.22551471      -0.50807477       1.58456754
H       -2.65620087       0.44188463       0.16575702
