13
Frame=0 idx=002423 GeodesicLength=0.0 rxn_smarts="[C:1]1([H:7])([H:8])[C@@:2]2([H:9])[C@@:3]3([H:10])[C@:4]1([H:11])[C:5]([H:12])([H:13])[N:6]23>>[C:1]1([H:7])([H:8])[C:2]([H:9])=[N:6][C:5]([H:12])([H:13])[C@:4]1([C:3][H:10])[H:11]"
C        1.14199535      -0.51503778      -0.13197528
C        0.64253770       0.13177797       1.15014987
C        0.10119026       1.48821020      -0.43171055
C       -0.06504370       0.02400122      -0.90214495
C       -1.20005906      -0.41955569      -0.00048537
N       -0.64592456       0.16465123       1.25569752
H        1.20455600      -1.60550109      -0.04282531
H        2.08697854      -0.10136330      -0.47244805
H        1.26351650       0.47698364       1.97031163
H       -0.89443983       1.95026569      -0.30090160
H       -0.12659845      -0.14146192      -1.97810117
H       -1.35341042      -1.49983942       0.12056711
H       -2.15529839       0.04686921      -0.23613382
13
Frame=1 idx=002423 GeodesicLength=0.053413438241149074 rxn_smarts="[C:1]1([H:7])([H:8])[C@@:2]2([H:9])[C@@:3]3([H:10])[C@:4]1([H:11])[C:5]([H:12])([H:13])[N:6]23>>[C:1]1([H:7])([H:8])[C:2]([H:9])=[N:6][C:5]([H:12])([H:13])[C@:4]1([C:3][H:10])[H:11]"
C        1.14661799      -0.51528209      -0.13141363
C        0.64835396       0.13168412       1.15049055
C        0.08373512       1.47875728      -0.41627440
C       -0.06173134       0.02106151      -0.90192393
C       -1.20023251      -0.41693585       0.00283175
N       -0.64445372       0.16446624       1.25737189
H        1.21534615      -1.60541339      -0.04602984
H        2.08964105      -0.09650108      -0.47202710
H        1.26852411       0.46267466       1.97698090
H       -0.90592470       1.95997317      -0.32854053
H       -0.12637213      -0.14781611      -1.97676175
H       -1.36178726      -1.49626201       0.11594027
H       -2.15171672       0.05959356      -0.23064417
13
Frame=2 idx=002423 GeodesicLength=0.10677864678877862 rxn_smarts="[C:1]1([H:7])([H:8])[C@@:2]2([H:9])[C@@:3]3([H:10])[C@:4]1([H:11])[C:5]([H:12])([H:13])[N:6]23>>[C:1]1([H:7])([H:8])[C:2]([H:9])=[N:6][C:5]([H:12])([H:13])[C@:4]1([C:3][H:10])[H:11]"
C        1.15114707      -0.51527014      -0.13086057
C        0.65402808       0.13164861       1.15089843
C        0.06595475       1.46915232      -0.40082033
C       -0.05865703       0.01827569      -0.90153179
C       -1.20057327      -0.41451337       0.00626293
N       -0.64314986       0.16375035       1.25930665
H        1.22629782      -1.60501463      -0.04940569
H        2.09208295      -0.09118748      -0.47163474
H        1.27324340       0.44846173       1.98352290
H       -0.91547355       1.96963528      -0.35679972
H       -0.12641152      -0.15417327      -1.97521047
H       -1.37022475      -1.49280992       0.11111787
H       -2.14826409       0.07204482      -0.22484546
13
Frame=3 idx=002423 GeodesicLength=0.16011363531455672 rxn_smarts="[C:1]1([H:7])([H:8])[C@@:2]2([H:9])[C@@:3]3([H:10])[C@:4]1([H:11])[C:5]([H:12])([H:13])[N:6]23>>[C:1]1([H:7])([H:8])[C:2]([H:9])=[N:6][C:5]([H:12])([H:13])[C@:4]1([C:3][H:10])[H:11]"
C        1.15560001      -0.51500677      -0.13031767
C        0.65957119       0.13171193       1.15138191
C        0.04781771       1.45941233      -0.38535174
C       -0.05584484       0.01563161      -0.90098659
C       -1.20111636      -0.41231140       0.00978955
N       -0.64202723       0.16250421       1.26150748
H        1.23744360      -1.60432022      -0.05295107
H        2.09432877      -0.08542934      -0.47127082
H        1.27771689       0.43440031       1.98996032
H       -0.92300086       1.97927732      -0.38559710
H       -0.12674435      -0.16056572      -1.97347986
H       -1.37874245      -1.48951870       0.10607282
H       -2.14500209       0.08421443      -0.21875722
13
Frame=4 idx=002423 GeodesicLength=0.21335373898258564 rxn_smarts="[C:1]1([H:7])([H:8])[C@@:2]2([H:9])[C@@:3]3([H:10])[C@:4]1([H:11])[C:5]([H:12])([H:13])[N:6]23>>[C:1]1([H:7])([H:8])[C:2]([H:9])=[N:6][C:5]([H:12])([H:13])[C@:4]1([C:3][H:10])[H:11]"
C        1.15989487      -0.51444682      -0.12979693
C        0.66489817       0.13187066       1.15187210
C        0.02933534       1.44945659      -0.36993228
C       -0.05328815       0.01313067      -0.90027748
C       -1.20182293      -0.41035940       0.01343077
N       -0.64110169       0.16065994       1.26392548
H        1.24868651      -1.60322653      -0.05663352
H        2.09625708      -0.07918185      -0.47096974
H        1.28182562       0.42056161       1.99614201
H       -0.92823959       1.98884084      -0.41474878
H       -0.12732125      -0.16696707      -1.97151913
H       -1.38729207      -1.48636972       0.10086888
H       -2.14183189       0.09603108      -0.21236137
13
Frame=5 idx=002423 GeodesicLength=0.2665574914712555 rxn_smarts="[C:1]1([H:7])([H:8])[C@@:2]2([H:9])[C@@:3]3([H:10])[C@:4]1([H:11])[C:5]([H:12])([H:13])[N:6]23>>[C:1]1([H:7])([H:8])[C:2]([H:9])=[N:6][C:5]([H:12])([H:13])[C@:4]1([C:3][H:10])[H:11]"
C        1.16409369      -0.51361038      -0.12929827
C        0.67005871       0.13219205       1.15240093
C        0.01046292       1.43934895      -0.35455026
C       -0.05102338       0.01075242      -0.89943367
C       -1.20276107      -0.40867723       0.01715560
N       -0.64038888       0.15827204       1.26657531
H        1.26012098      -1.60179469      -0.06046822
H        2.09795656      -0.07246212      -0.47072177
H        1.28567447       0.40695956       2.00217269
H       -0.93117542       1.99838421      -0.44420745
H       -0.12820088      -0.17344325      -1.96938942
H       -1.39592747      -1.48342253       0.09545809
H       -2.13889025       0.10750097      -0.20569356
13
Frame=6 idx=002423 GeodesicLength=0.3197294285210039 rxn_smarts="[C:1]1([H:7])([H:8])[C@@:2]2([H:9])[C@@:3]3([H:10])[C@:4]1([H:11])[C:5]([H:12])([H:13])[N:6]23>>[C:1]1([H:7])([H:8])[C:2]([H:9])=[N:6][C:5]([H:12])([H:13])[C@:4]1([C:3][H:10])[H:11]"
C        1.16817464      -0.51247705      -0.12882735
C        0.67502303       0.13270294       1.15294497
C       -0.00882012       1.42906712      -0.33924239
C       -0.04906745       0.00848242      -0.89846513
C       -1.20393849      -0.40729319       0.02095975
N       -0.63990289       0.15533396       1.26943088
H        1.27174269      -1.59998907      -0.06444219
H        2.09938722      -0.06523809      -0.47054033
H        1.28924389       0.39362895       2.00801593
H       -0.93162628       2.00792153      -0.47384150
H       -0.12939149      -0.18002135      -1.96709102
H       -1.40464183      -1.48069835       0.08986046
H       -2.13618291       0.11858020      -0.19876208
13
Frame=7 idx=002423 GeodesicLength=0.37286820664493336 rxn_smarts="[C:1]1([H:7])([H:8])[C@@:2]2([H:9])[C@@:3]3([H:10])[C@:4]1([H:11])[C:5]([H:12])([H:13])[N:6]23>>[C:1]1([H:7])([H:8])[C:2]([H:9])=[N:6][C:5]([H:12])([H:13])[C@:4]1([C:3][H:10])[H:11]"
C        1.17211256      -0.51100743      -0.12839289
C        0.67976390       0.13345148       1.15347484
C       -0.02853221       1.41860088      -0.32404868
C       -0.04743256       0.00632283      -0.89737537
C       -1.20534681      -0.40622035       0.02485724
N       -0.63964500       0.15185799       1.27247133
H        1.28353687      -1.59774567      -0.06854106
H        2.10049961      -0.05746766      -0.47045224
H        1.29249982       0.38049098       2.01367007
H       -0.92944390       2.01738569      -0.50361372
H       -0.13089843      -0.18671064      -1.96461612
H       -1.41341823      -1.47819224       0.08411220
H       -2.13369561       0.12923413      -0.19154559
13
Frame=8 idx=002423 GeodesicLength=0.4259578417128786 rxn_smarts="[C:1]1([H:7])([H:8])[C@@:2]2([H:9])[C@@:3]3([H:10])[C@:4]1([H:11])[C:5]([H:12])([H:13])[N:6]23>>[C:1]1([H:7])([H:8])[C:2]([H:9])=[N:6][C:5]([H:12])([H:13])[C@:4]1([C:3][H:10])[H:11]"
C        1.17587071      -0.50920175      -0.12800515
C        0.68422769       0.13444939       1.15393510
C       -0.04865646       1.40789586      -0.30904336
C       -0.04612679       0.00423863      -0.89618165
C       -1.20700160      -0.40550429       0.02882099
N       -0.63965255       0.14783367       1.27562492
H        1.29546049      -1.59504034      -0.07273269
H        2.10125509      -0.04915589      -0.47047276
H        1.29539819       0.36778168       2.01898682
H       -0.92437887       2.02683500      -0.53310171
H       -0.13269837      -0.19355964      -1.96195394
H       -1.42225522      -1.47594051       0.07823348
H       -2.13144232       0.13936818      -0.18411004
13
Frame=9 idx=002423 GeodesicLength=0.47901289875715264 rxn_smarts="[C:1]1([H:7])([H:8])[C@@:2]2([H:9])[C@@:3]3([H:10])[C@:4]1([H:11])[C:5]([H:12])([H:13])[N:6]23>>[C:1]1([H:7])([H:8])[C:2]([H:9])=[N:6][C:5]([H:12])([H:13])[C@:4]1([C:3][H:10])[H:11]"
C        1.17947557      -0.50706079      -0.12766764
C        0.68843515       0.13576393       1.15434293
C       -0.06923091       1.39699599      -0.29425713
C       -0.04517930       0.00221602      -0.89491837
C       -1.20893115      -0.40515497       0.03283689
N       -0.63992710       0.14333093       1.27889448
H        1.30756364      -1.59189199      -0.07701456
H        2.10167963      -0.04030837      -0.47061519
H        1.29798827       0.35546801       2.02405158
H       -0.91637294       2.03626847      -0.56222259
H       -0.13483807      -0.20061489      -1.95916493
H       -1.43115870      -1.47397512       0.07221835
H       -2.12950409       0.14896279      -0.17648382
13
Frame=10 idx=002423 GeodesicLength=0.5320392995626761 rxn_smarts="[C:1]1([H:7])([H:8])[C@@:2]2([H:9])[C@@:3]3([H:10])[C@:4]1([H:11])[C:5]([H:12])([H:13])[N:6]23>>[C:1]1([H:7])([H:8])[C:2]([H:9])=[N:6][C:5]([H:12])([H:13])[C@:4]1([C:3][H:10])[H:11]"
C        1.18290368      -0.50456721      -0.12739423
C        0.69234856       0.13744507       1.15466944
C       -0.09027399       1.38588655      -0.27975334
C       -0.04460372       0.00022905      -0.89360914
C       -1.21113312      -0.40519414       0.03690179
N       -0.64048236       0.13838959       1.28224784
H        1.31984450      -1.58826835      -0.08137219
H        2.10172639      -0.03090576      -0.47091249
H        1.30023416       0.34357348       2.02883769
H       -0.90524801       2.04569228      -0.59076617
H       -0.13731756      -0.20792729      -1.95626618
H       -1.44010783      -1.47231503       0.06610089
H       -2.12789070       0.15796177      -0.16868391
13
Frame=11 idx=002423 GeodesicLength=0.5850924144711003 rxn_smarts="[C:1]1([H:7])([H:8])[C@@:2]2([H:9])[C@@:3]3([H:10])[C@:4]1([H:11])[C:5]([H:12])([H:13])[N:6]23>>[C:1]1([H:7])([H:8])[C:2]([H:9])=[N:6][C:5]([H:12])([H:13])[C@:4]1([C:3][H:10])[H:11]"
C        1.18613155      -0.50169329      -0.12718906
C        0.69593421       0.13952300       1.15483907
C       -0.11176544       1.37450773      -0.26560772
C       -0.04441494      -0.00175581      -0.89225383
C       -1.21363238      -0.40565429       0.04099488
N       -0.64134500       0.13303511       1.28558727
H        1.33227352      -1.58410040      -0.08577580
H        2.10137518      -0.02092118      -0.47136547
H        1.30211369       0.33221122       2.03321835
H       -0.89076405       2.05509324      -0.61839443
H       -0.14013796      -0.21554134      -1.95320898
H       -1.44912580      -1.47097205       0.05991671
H       -2.12664257       0.16626808      -0.16076098
13
Frame=12 idx=002423 GeodesicLength=0.6380919119051621 rxn_smarts="[C:1]1([H:7])([H:8])[C@@:2]2([H:9])[C@@:3]3([H:10])[C@:4]1([H:11])[C:5]([H:12])([H:13])[N:6]23>>[C:1]1([H:7])([H:8])[C:2]([H:9])=[N:6][C:5]([H:12])([H:13])[C@:4]1([C:3][H:10])[H:11]"
C        1.18915572      -0.49845637      -0.12706260
C        0.69918846       0.14205858       1.15487404
C       -0.13373815       1.36291438      -0.25189669
C       -0.04464103      -0.00376542      -0.89091616
C       -1.21643165      -0.40656353       0.04509936
N       -0.64251040       0.12734240       1.28892261
H        1.34486893      -1.57943912      -0.09020512
H        2.10060381      -0.01036975      -0.47201184
H        1.30364478       0.32143557       2.03726203
H       -0.87281591       2.06453532      -0.64488725
H       -0.14333301      -0.22350887      -1.95009791
H       -1.45818393      -1.47001987       0.05368700
H       -2.12580764       0.17383669      -0.15276748
13
Frame=13 idx=002423 GeodesicLength=0.6910893642413197 rxn_smarts="[C:1]1([H:7])([H:8])[C@@:2]2([H:9])[C@@:3]3([H:10])[C@:4]1([H:11])[C:5]([H:12])([H:13])[N:6]23>>[C:1]1([H:7])([H:8])[C:2]([H:9])=[N:6][C:5]([H:12])([H:13])[C@:4]1([C:3][H:10])[H:11]"
C        1.19196230      -0.49482673      -0.12702698
C        0.70207754       0.14511097       1.15470761
C       -0.15618600       1.35107873      -0.23869750
C       -0.04528354      -0.00581949      -0.88960156
C       -1.21953879      -0.40792747       0.04921477
N       -0.64400333       0.12137468       1.29218459
H        1.35761331      -1.57421643      -0.09463252
H        2.09939594       0.00075807      -0.47288861
H        1.30479051       0.31125522       2.04089052
H       -0.85123702       2.07391066      -0.66998101
H       -0.14688492      -0.23185775      -1.94690417
H       -1.46728548      -1.46944313       0.04745627
H       -2.12542052       0.18060268      -0.14472141
13
Frame=14 idx=002423 GeodesicLength=0.744163625337626 rxn_smarts="[C:1]1([H:7])([H:8])[C@@:2]2([H:9])[C@@:3]3([H:10])[C@:4]1([H:11])[C:5]([H:12])([H:13])[N:6]23>>[C:1]1([H:7])([H:8])[C:2]([H:9])=[N:6][C:5]([H:12])([H:13])[C@:4]1([C:3][H:10])[H:11]"
C        1.19449781      -0.49081112      -0.12711860
C        0.70452023       0.14869891       1.15428781
C       -0.17913206       1.33892642      -0.22607498
C       -0.04635375      -0.00798235      -0.88834533
C       -1.22293308      -0.40977055       0.05331963
N       -0.64585406       0.11519061       1.29531693
H        1.37047280      -1.56840005      -0.09907769
H        2.09765998       0.01243668      -0.47404224
H        1.30546150       0.30191307       2.04399703
H       -0.82573858       2.08323905      -0.69321718
H       -0.15076981      -0.24066888      -1.94364931
H       -1.47636074      -1.46925292       0.04127109
H       -2.12547024       0.18648113      -0.13666715
13
Frame=15 idx=002423 GeodesicLength=0.7972021935711533 rxn_smarts="[C:1]1([H:7])([H:8])[C@@:2]2([H:9])[C@@:3]3([H:10])[C@:4]1([H:11])[C:5]([H:12])([H:13])[N:6]23>>[C:1]1([H:7])([H:8])[C:2]([H:9])=[N:6][C:5]([H:12])([H:13])[C@:4]1([C:3][H:10])[H:11]"
C        1.19678004      -0.48641755      -0.12732481
C        0.70655514       0.15289065       1.15360260
C       -0.20257317       1.32653508      -0.21414654
C       -0.04788497      -0.01026855      -0.88719878
C       -1.22665759      -0.41212908       0.05738038
N       -0.64805489       0.10886673       1.29827880
H        1.38344746      -1.56203746      -0.10346584
H        2.09543782       0.02466486      -0.47548139
H        1.30575259       0.29347948       2.04660355
H       -0.79622841       2.09250975      -0.71429943
H       -0.15504641      -0.24995879      -1.94039725
H       -1.48546026      -1.46954593       0.03514592
H       -2.12606735       0.19141081      -0.12869721
13
Frame=16 idx=002423 GeodesicLength=0.8502580934290579 rxn_smarts="[C:1]1([H:7])([H:8])[C@@:2]2([H:9])[C@@:3]3([H:10])[C@:4]1([H:11])[C:5]([H:12])([H:13])[N:6]23>>[C:1]1([H:7])([H:8])[C:2]([H:9])=[N:6][C:5]([H:12])([H:13])[C@:4]1([C:3][H:10])[H:11]"
C        1.19877389      -0.48165230      -0.12767485
C        0.70812483       0.15772383       1.15258661
C       -0.22651730       1.31386726      -0.20300539
C       -0.04987808      -0.01272135      -0.88619708
C       -1.23070203      -0.41501322       0.06137895
N       -0.65063466       0.10248021       1.30100716
H        1.39649448      -1.55510408      -0.10778595
H        2.09268110       0.03740215      -0.47726255
H        1.30560762       0.28616224       2.04860958
H       -0.76249310       2.10162536      -0.73275474
H       -0.15968688      -0.25976980      -1.93716637
H       -1.49454542      -1.47032593       0.02912629
H       -2.12722445       0.19532562      -0.12086164
