4
Frame=0 idx=005206 GeodesicLength=0.0 rxn_smarts="[N:1]#[C:2][C:3]#[N:4]>>[N+:1](#[C-:2])[N+:4]#[C-:3]"
N       -0.94346536      -0.20526257      -0.65732402
C       -0.80019960      -0.07460508       0.54624851
C        1.13809624       0.22884187       0.59206960
N        0.60556873       0.05102578      -0.48099410
4
Frame=1 idx=005206 GeodesicLength=0.08030958078285975 rxn_smarts="[N:1]#[C:2][C:3]#[N:4]>>[N+:1](#[C-:2])[N+:4]#[C-:3]"
N       -0.95264271      -0.17819473      -0.65369881
C       -0.80847516      -0.09700822       0.55040253
C        1.13206328       0.25279243       0.58849918
N        0.62905459       0.02241052      -0.48520291
4
Frame=2 idx=005206 GeodesicLength=0.15823420294916038 rxn_smarts="[N:1]#[C:2][C:3]#[N:4]>>[N+:1](#[C-:2])[N+:4]#[C-:3]"
N       -0.95978706      -0.14973433      -0.64841493
C       -0.81685700      -0.12023991       0.55374306
C        1.12407376       0.27707233       0.58274329
N        0.65257030      -0.00709809      -0.48807141
4
Frame=3 idx=005206 GeodesicLength=0.23658444685607366 rxn_smarts="[N:1]#[C:2][C:3]#[N:4]>>[N+:1](#[C-:2])[N+:4]#[C-:3]"
N       -0.96571194      -0.13005430      -0.64252470
C       -0.82685189      -0.13661394       0.55699694
C        1.11730985       0.29345530       0.57759554
N        0.67525397      -0.02678705      -0.49206778
4
Frame=4 idx=005206 GeodesicLength=0.31601877445621224 rxn_smarts="[N:1]#[C:2][C:3]#[N:4]>>[N+:1](#[C-:2])[N+:4]#[C-:3]"
N       -0.97109733      -0.11482068      -0.63561288
C       -0.83786011      -0.14948501       0.55950991
C        1.11103407       0.30571507       0.57231514
N        0.69792337      -0.04140937      -0.49621217
4
Frame=5 idx=005206 GeodesicLength=0.3953988245282688 rxn_smarts="[N:1]#[C:2][C:3]#[N:4]>>[N+:1](#[C-:2])[N+:4]#[C-:3]"
N       -0.97629407      -0.10209777      -0.62859897
C       -0.84960888      -0.16034454       0.56231048
C        1.10501677       0.31568677       0.56722875
N        0.72088618      -0.05324446      -0.50094025
4
Frame=6 idx=005206 GeodesicLength=0.4745023574519924 rxn_smarts="[N:1]#[C:2][C:3]#[N:4]>>[N+:1](#[C-:2])[N+:4]#[C-:3]"
N       -0.98139355      -0.09127402      -0.62131868
C       -0.86189750      -0.16965703       0.56508970
C        1.09914461       0.32387006       0.56210910
N        0.74414644      -0.06293901      -0.50588012
4
Frame=7 idx=005206 GeodesicLength=0.553578830333244 rxn_smarts="[N:1]#[C:2][C:3]#[N:4]>>[N+:1](#[C-:2])[N+:4]#[C-:3]"
N       -0.98652525      -0.08187959      -0.61384899
C       -0.87474830      -0.17779396       0.56797150
C        1.09336257       0.33069397       0.55695971
N        0.76791098      -0.07102042      -0.51108222
4
Frame=8 idx=005206 GeodesicLength=0.632741812552468 rxn_smarts="[N:1]#[C:2][C:3]#[N:4]>>[N+:1](#[C-:2])[N+:4]#[C-:3]"
N       -0.99168567      -0.07370303      -0.60621123
C       -0.88821039      -0.18490790       0.57105913
C        1.08757885       0.33631539       0.55173194
N        0.79231721      -0.07770446      -0.51657984
4
Frame=9 idx=005206 GeodesicLength=0.7119951860342302 rxn_smarts="[N:1]#[C:2][C:3]#[N:4]>>[N+:1](#[C-:2])[N+:4]#[C-:3]"
N       -0.99694221      -0.06662838      -0.59842117
C       -0.90229455      -0.19108646       0.57436282
C        1.08180008       0.34083438       0.54640981
N        0.81743668      -0.08311955      -0.52235146
4
Frame=10 idx=005206 GeodesicLength=0.791170270349685 rxn_smarts="[N:1]#[C:2][C:3]#[N:4]>>[N+:1](#[C-:2])[N+:4]#[C-:3]"
N       -1.00233928      -0.06053633      -0.59046681
C       -0.91694999      -0.19641464       0.57783967
C        1.07600717       0.34434324       0.54095504
N        0.84328209      -0.08739228      -0.52832790
4
Frame=11 idx=005206 GeodesicLength=0.8705730600258109 rxn_smarts="[N:1]#[C:2][C:3]#[N:4]>>[N+:1](#[C-:2])[N+:4]#[C-:3]"
N       -1.00789368      -0.05542699      -0.58237731
C       -0.93232089      -0.20088100       0.58162503
C        1.07017151       0.34681486       0.53535038
N        0.87004306      -0.09050687      -0.53459810
4
Frame=12 idx=005206 GeodesicLength=0.9501200973323887 rxn_smarts="[N:1]#[C:2][C:3]#[N:4]>>[N+:1](#[C-:2])[N+:4]#[C-:3]"
N       -1.01375204      -0.05133795      -0.57421487
C       -0.94846795      -0.20446933       0.58572552
C        1.06446452       0.34827594       0.52969958
N        0.89775547      -0.09246866      -0.54121024
4
Frame=13 idx=005206 GeodesicLength=1.0283961200956564 rxn_smarts="[N:1]#[C:2][C:3]#[N:4]>>[N+:1](#[C-:2])[N+:4]#[C-:3]"
N       -1.01953009      -0.04824953      -0.56592696
C       -0.96490698      -0.20704742       0.59010590
C        1.05832493       0.34852389       0.52381856
N        0.92611214      -0.09322694      -0.54799750
4
Frame=14 idx=005206 GeodesicLength=1.108159438793373 rxn_smarts="[N:1]#[C:2][C:3]#[N:4]>>[N+:1](#[C-:2])[N+:4]#[C-:3]"
N       -1.02554909      -0.04621437      -0.55720598
C       -0.98248184      -0.20869021       0.59468596
C        1.05218715       0.34755157       0.51743658
N        0.95584378      -0.09264700      -0.55491656
4
Frame=15 idx=005206 GeodesicLength=1.187103220545903 rxn_smarts="[N:1]#[C:2][C:3]#[N:4]>>[N+:1](#[C-:2])[N+:4]#[C-:3]"
N       -1.03180277      -0.04528130      -0.54863722
C       -1.00082738      -0.20928792       0.59992394
C        1.04596973       0.34539076       0.51108385
N        0.98666042      -0.09082154      -0.56237057
4
Frame=16 idx=005206 GeodesicLength=1.266832333789615 rxn_smarts="[N:1]#[C:2][C:3]#[N:4]>>[N+:1](#[C-:2])[N+:4]#[C-:3]"
N       -1.03826918      -0.04660235      -0.53973857
C       -1.02023486      -0.20774898       0.60538620
C        1.03985363       0.34081924       0.50444739
N        1.01865041      -0.08646791      -0.57009501
