18
Frame=0 idx=011576 GeodesicLength=0.0 rxn_smarts="[C:1]([C:2]([C@@:3]([C:4]([H:14])([H:15])[H:16])([N:5]([C:6](=[O:7])[H:18])[H:17])[H:13])([H:11])[H:12])([H:8])([H:9])[H:10]>>[C:1]([C:2]([C:3](=[C:4]([H:15])[H:16])[H:13])([H:11])[H:12])([H:8])([H:9])[H:10].[N:5](=[C:6](/[O:7][H:14])[H:18])\[H:17]"
C       -1.96849504      -0.70532831      -0.82874097
C       -1.31705620       0.19121157       0.21489348
C       -0.02733672       0.86001297      -0.16677976
C        0.72068169       1.57263262       0.77500447
N        1.09569334      -0.83607701      -0.65575487
C        2.04116454      -1.06345512       0.20063520
O        2.66793293      -0.11851324       0.78613564
H       -1.98252780      -0.22463390      -1.80927821
H       -1.45586784      -1.66148377      -0.93175597
H       -3.00122850      -0.92315878      -0.55238177
H       -1.99660892       1.02363141       0.43465999
H       -1.18551650      -0.33685390       1.16289169
H        0.04786313       1.15681093      -1.20563627
H        1.84543394       0.77274307       0.82029567
H        1.19327200       2.48896974       0.43490879
H        0.35439738       1.58136606       1.79767589
H        0.64127324      -1.68827489      -0.95521907
H        2.32692536      -2.08959947       0.47844608
18
Frame=1 idx=011576 GeodesicLength=0.0996282582249854 rxn_smarts="[C:1]([C:2]([C@@:3]([C:4]([H:14])([H:15])[H:16])([N:5]([C:6](=[O:7])[H:18])[H:17])[H:13])([H:11])[H:12])([H:8])([H:9])[H:10]>>[C:1]([C:2]([C:3](=[C:4]([H:15])[H:16])[H:13])([H:11])[H:12])([H:8])([H:9])[H:10].[N:5](=[C:6](/[O:7][H:14])[H:18])\[H:17]"
C       -1.99440031      -0.68093246      -0.84801022
C       -1.32760671       0.18926173       0.20821933
C       -0.02194061       0.83347148      -0.16087377
C        0.71001065       1.56789894       0.77866170
N        1.09176936      -0.87712045      -0.61633521
C        2.08036012      -1.06467585       0.20148288
O        2.71348457      -0.09264630       0.73294814
H       -2.00669260      -0.18373878      -1.82030158
H       -1.49506288      -1.64195820      -0.96974153
H       -3.02896347      -0.89069192      -0.57203246
H       -1.99358779       1.02951187       0.43874596
H       -1.20764285      -0.35582473       1.14827318
H        0.06924649       1.12098855      -1.20179022
H        1.87297459       0.80948513       0.78705408
H        1.12714554       2.51739238       0.45763425
H        0.37899162       1.54184547       1.81316573
H        0.64209867      -1.74440247      -0.87696373
H        2.38981559      -2.07786439       0.49986349
18
Frame=2 idx=011576 GeodesicLength=0.19659052751632344 rxn_smarts="[C:1]([C:2]([C@@:3]([C:4]([H:14])([H:15])[H:16])([N:5]([C:6](=[O:7])[H:18])[H:17])[H:13])([H:11])[H:12])([H:8])([H:9])[H:10]>>[C:1]([C:2]([C:3](=[C:4]([H:15])[H:16])[H:13])([H:11])[H:12])([H:8])([H:9])[H:10].[N:5](=[C:6](/[O:7][H:14])[H:18])\[H:17]"
C       -2.01785588      -0.65687857      -0.86682017
C       -1.33757317       0.18726934       0.20194643
C       -0.01708908       0.80778352      -0.15458110
C        0.69979324       1.56318793       0.78198016
N        1.08818702      -0.91645626      -0.57564687
C        2.11733397      -1.06606625       0.20035562
O        2.75423738      -0.06938637       0.67864422
H       -2.02876287      -0.14286233      -1.83033725
H       -1.52989916      -1.62120276      -1.00774107
H       -3.05381977      -0.86049078      -0.59130953
H       -1.99077983       1.03433153       0.44321885
H       -1.22918528      -0.37429369       1.13388745
H        0.08975958       1.08569015      -1.19733086
H        1.89719277       0.84568239       0.75293716
H        1.06136590       2.54145759       0.48059999
H        0.40575898       1.50492089       1.82654800
H        0.64320479      -1.79705392      -0.79661744
H        2.44813142      -2.06563241       0.52026643
18
Frame=3 idx=011576 GeodesicLength=0.2912451459135588 rxn_smarts="[C:1]([C:2]([C@@:3]([C:4]([H:14])([H:15])[H:16])([N:5]([C:6](=[O:7])[H:18])[H:17])[H:13])([H:11])[H:12])([H:8])([H:9])[H:10]>>[C:1]([C:2]([C:3](=[C:4]([H:15])[H:16])[H:13])([H:11])[H:12])([H:8])([H:9])[H:10].[N:5](=[C:6](/[O:7][H:14])[H:18])\[H:17]"
C       -2.03898271      -0.63325756      -0.88509808
C       -1.34688570       0.18516742       0.19610074
C       -0.01275014       0.78301193      -0.14797866
C        0.68996123       1.55876265       0.78485305
N        1.08502030      -0.95386960      -0.53393948
C        2.15178680      -1.06792585       0.19744124
O        2.79014968      -0.04912814       0.62405362
H       -2.04885915      -0.10217482      -1.83932427
H       -1.56060832      -1.59943103      -1.04556554
H       -3.07598313      -0.83252210      -0.61016617
H       -1.98815988       1.03799972       0.44820773
H       -1.24984303      -0.39238372       1.11970010
H        0.10930793       1.05104623      -1.19234239
H        1.91805823       0.88106061       0.71858947
H        0.99644065       2.56151389       0.50352001
H        0.43411874       1.47140525       1.83775221
H        0.64495376      -1.84595833      -0.71487531
H        2.50227472      -2.05331653       0.53907174
18
Frame=4 idx=011576 GeodesicLength=0.38407222563670573 rxn_smarts="[C:1]([C:2]([C@@:3]([C:4]([H:14])([H:15])[H:16])([N:5]([C:6](=[O:7])[H:18])[H:17])[H:13])([H:11])[H:12])([H:8])([H:9])[H:10]>>[C:1]([C:2]([C:3](=[C:4]([H:15])[H:16])[H:13])([H:11])[H:12])([H:8])([H:9])[H:10].[N:5](=[C:6](/[O:7][H:14])[H:18])\[H:17]"
C       -2.05800023      -0.61005320      -0.90286411
C       -1.35556720       0.18290899       0.19066067
C       -0.00888671       0.75911917      -0.14109930
C        0.68040155       1.55477055       0.78723711
N        1.08227841      -0.98936862      -0.49128748
C        2.18366437      -1.07048422       0.19301322
O        2.82153653      -0.03195647       0.56954569
H       -2.06712412      -0.06171385      -1.84728690
H       -1.58759725      -1.57677308      -1.08313171
H       -3.09575569      -0.80656535      -0.62869404
H       -1.98573151       1.04050180       0.45375935
H       -1.26955811      -0.41021836       1.10563992
H        0.12790153       1.01705069      -1.18686765
H        1.93573580       0.91553375       0.68432525
H        0.93257487       2.57794526       0.52631427
H        0.46361464       1.44166458       1.84686459
H        0.64756825      -1.89115233      -0.63202385
H        2.55294488      -2.04120929       0.55589496
18
Frame=5 idx=011576 GeodesicLength=0.47582927727129287 rxn_smarts="[C:1]([C:2]([C@@:3]([C:4]([H:14])([H:15])[H:16])([N:5]([C:6](=[O:7])[H:18])[H:17])[H:13])([H:11])[H:12])([H:8])([H:9])[H:10]>>[C:1]([C:2]([C:3](=[C:4]([H:15])[H:16])[H:13])([H:11])[H:12])([H:8])([H:9])[H:10].[N:5](=[C:6](/[O:7][H:14])[H:18])\[H:17]"
C       -2.07534462      -0.58707918      -0.92031260
C       -1.36391207       0.18061240       0.18546248
C       -0.00544326       0.73578479      -0.13384327
C        0.67093817       1.55125289       0.78919785
N        1.07974140      -1.02350770      -0.44691273
C        2.21353858      -1.07372361       0.18758511
O        2.84900657      -0.01756516       0.51591725
H       -2.08365089      -0.02144730      -1.85449492
H       -1.61169456      -1.55329516      -1.12032781
H       -3.11373571      -0.78196997      -0.64728061
H       -1.98358158       1.04225450       0.45945399
H       -1.28905180      -0.42764075       1.09165647
H        0.14584094       0.98310703      -1.18084902
H        1.95054818       0.94923791       0.65052145
H        0.86956039       2.59121073       0.54908006
H        0.49387910       1.41566821       1.85384964
H        0.65050586      -1.93336977      -0.54703489
H        2.60285529      -2.02952987       0.56833153
18
Frame=6 idx=011576 GeodesicLength=0.5662544504501257 rxn_smarts="[C:1]([C:2]([C@@:3]([C:4]([H:14])([H:15])[H:16])([N:5]([C:6](=[O:7])[H:18])[H:17])[H:13])([H:11])[H:12])([H:8])([H:9])[H:10]>>[C:1]([C:2]([C:3](=[C:4]([H:15])[H:16])[H:13])([H:11])[H:12])([H:8])([H:9])[H:10].[N:5](=[C:6](/[O:7][H:14])[H:18])\[H:17]"
C       -2.09094232      -0.56445001      -0.93733093
C       -1.37164955       0.17799167       0.18064356
C       -0.00237335       0.71319561      -0.12632114
C        0.66157764       1.54840106       0.79058478
N        1.07773290      -1.05575075      -0.40159023
C        2.24088162      -1.07790262       0.18113394
O        2.87253506      -0.00626005       0.46307212
H       -2.09866272       0.01869548      -1.86069549
H       -1.63272631      -1.52904102      -1.15736756
H       -3.12977209      -0.75904668      -0.66568693
H       -1.98161337       1.04270898       0.46587682
H       -1.30750608      -0.44520340       1.07764922
H        0.16289562       0.94968402      -1.17438669
H        1.96267982       0.98218005       0.61692990
H        0.80769750       2.60163347       0.57154535
H        0.52476235       1.39369337       1.85888300
H        0.65461902      -1.97195563      -0.46124365
H        2.64986426      -2.01857356       0.57830394
18
Frame=7 idx=011576 GeodesicLength=0.6556762560358749 rxn_smarts="[C:1]([C:2]([C@@:3]([C:4]([H:14])([H:15])[H:16])([N:5]([C:6](=[O:7])[H:18])[H:17])[H:13])([H:11])[H:12])([H:8])([H:9])[H:10]>>[C:1]([C:2]([C:3](=[C:4]([H:15])[H:16])[H:13])([H:11])[H:12])([H:8])([H:9])[H:10].[N:5](=[C:6](/[O:7][H:14])[H:18])\[H:17]"
C       -2.10500249      -0.54203677      -0.95401112
C       -1.37883612       0.17498524       0.17615447
C        0.00037705       0.69122740      -0.11851037
C        0.65222833       1.54619851       0.79140584
N        1.07624017      -1.08625457      -0.35524984
C        2.26592133      -1.08305862       0.17383037
O        2.89257085       0.00215476       0.41100716
H       -2.11231275       0.05888323      -1.86591867
H       -1.65107794      -1.50396154      -1.19437913
H       -3.14412629      -0.73750957      -0.68406123
H       -1.97982276       1.04184408       0.47307350
H       -1.32501365      -0.46309473       1.06347844
H        0.17915412       0.91665520      -1.16746342
H        1.97238619       1.01450713       0.58342034
H        0.74678892       2.60948209       0.59376574
H        0.55613297       1.37558646       1.86206521
H        0.65992286      -2.00716066      -0.37442390
H        2.69446920      -2.00844764       0.58581661
18
Frame=8 idx=011576 GeodesicLength=0.7444586239008508 rxn_smarts="[C:1]([C:2]([C@@:3]([C:4]([H:14])([H:15])[H:16])([N:5]([C:6](=[O:7])[H:18])[H:17])[H:13])([H:11])[H:12])([H:8])([H:9])[H:10]>>[C:1]([C:2]([C:3](=[C:4]([H:15])[H:16])[H:13])([H:11])[H:12])([H:8])([H:9])[H:10].[N:5](=[C:6](/[O:7][H:14])[H:18])\[H:17]"
C       -2.11772850      -0.51967410      -0.97046304
C       -1.38554130       0.17151195       0.17196086
C        0.00283660       0.66974123      -0.11037644
C        0.64278515       1.54460371       0.79166246
N        1.07525547      -1.11519177      -0.30782493
C        2.28894853      -1.08923470       0.16587328
O        2.90957696       0.00791966       0.35947541
H       -2.12476732       0.09939429      -1.87016204
H       -1.66709921      -1.47789837      -1.23159923
H       -3.15703504      -0.71708723      -0.70256035
H       -1.97822011       1.03958092       0.48114527
H       -1.34167113      -0.48154639       1.04900113
H        0.19468127       0.88387811      -1.16005056
H        1.97985269       1.04634842       0.54977215
H        0.68666646       2.61490144       0.61582947
H        0.58789395       1.36119054       1.86346553
H        0.66637420      -2.03927253      -0.28630290
H        2.73719133      -1.99916517       0.59115394
18
Frame=9 idx=011576 GeodesicLength=0.832844885880489 rxn_smarts="[C:1]([C:2]([C@@:3]([C:4]([H:14])([H:15])[H:16])([N:5]([C:6](=[O:7])[H:18])[H:17])[H:13])([H:11])[H:12])([H:8])([H:9])[H:10]>>[C:1]([C:2]([C:3](=[C:4]([H:15])[H:16])[H:13])([H:11])[H:12])([H:8])([H:9])[H:10].[N:5](=[C:6](/[O:7][H:14])[H:18])\[H:17]"
C       -2.12918033      -0.49743836      -0.98678304
C       -1.39191068       0.16759614       0.16795535
C        0.00504888       0.64862730      -0.10186014
C        0.63322718       1.54360230       0.79146326
N        1.07481338      -1.14256622      -0.25906787
C        2.31011532      -1.09631143       0.15699828
O        2.92402887       0.01113633       0.30897241
H       -2.13596779       0.14003673      -1.87355476
H       -1.68091392      -1.45094776      -1.26881828
H       -3.16860792      -0.69767632      -0.72142181
H       -1.97693347       1.03608798       0.48972331
H       -1.35789262      -0.50045611       1.03423153
H        0.20962212       0.85115951      -1.15208461
H        1.98538388       1.07793113       0.51584559
H        0.62708709       2.61825822       0.63811685
H        0.62018802       1.35010363       1.86302257
H        0.67382844      -2.06814079      -0.19589047
H        2.77806355      -1.99100228       0.59315184
18
Frame=10 idx=011576 GeodesicLength=0.9207198148836573 rxn_smarts="[C:1]([C:2]([C@@:3]([C:4]([H:14])([H:15])[H:16])([N:5]([C:6](=[O:7])[H:18])[H:17])[H:13])([H:11])[H:12])([H:8])([H:9])[H:10]>>[C:1]([C:2]([C:3](=[C:4]([H:15])[H:16])[H:13])([H:11])[H:12])([H:8])([H:9])[H:10].[N:5](=[C:6](/[O:7][H:14])[H:18])\[H:17]"
C       -2.13937651      -0.47522982      -1.00294201
C       -1.39783008       0.16309406       0.16419551
C        0.00702667       0.62797226      -0.09301100
C        0.62346375       1.54327357       0.79068416
N        1.07500813      -1.16823245      -0.20930016
C        2.32916156      -1.10452549       0.14750848
O        2.93588447       0.01165867       0.25940432
H       -2.14603975       0.18102265      -1.87592289
H       -1.69252612      -1.42295195      -1.30630916
H       -3.17883112      -0.67926720      -0.74059587
H       -1.97590882       1.03102674       0.49918319
H       -1.37324952      -0.52018374       1.01899687
H        0.22391452       0.81869650      -1.14362227
H        1.98889073       1.10920591       0.48148973
H        0.56816137       2.61955959       0.66041662
H        0.65271668       1.34265795       1.86085608
H        0.68270934      -2.09354951      -0.10337426
H        2.81682471      -1.98422775       0.59234267
18
Frame=11 idx=011576 GeodesicLength=1.0081502026940072 rxn_smarts="[C:1]([C:2]([C@@:3]([C:4]([H:14])([H:15])[H:16])([N:5]([C:6](=[O:7])[H:18])[H:17])[H:13])([H:11])[H:12])([H:8])([H:9])[H:10]>>[C:1]([C:2]([C:3](=[C:4]([H:15])[H:16])[H:13])([H:11])[H:12])([H:8])([H:9])[H:10].[N:5](=[C:6](/[O:7][H:14])[H:18])\[H:17]"
C       -2.14835848      -0.45301538      -1.01898516
C       -1.40333753       0.15796618       0.16064311
C        0.00879051       0.60775129      -0.08380175
C        0.61341816       1.54364500       0.78933453
N        1.07583172      -1.19219073      -0.15838992
C        2.34610581      -1.11387624       0.13740416
O        2.94533924       0.00950332       0.21108772
H       -2.15496667       0.22235588      -1.87726882
H       -1.70204288      -1.39388639      -1.34406606
H       -3.18776716      -0.66174293      -0.76021346
H       -1.97519975       1.02434735       0.50949962
H       -1.38779257      -0.54082657       1.00319228
H        0.23763811       0.78642230      -1.13464481
H        1.99042883       1.14027721       0.44660189
H        0.50983293       2.61895177       0.68278149
H        0.68538429       1.33878945       1.85697050
H        0.69310967      -2.11534050      -0.00824900
H        2.85358577      -1.97913100       0.58810370
18
Frame=12 idx=011576 GeodesicLength=1.0952155981126106 rxn_smarts="[C:1]([C:2]([C@@:3]([C:4]([H:14])([H:15])[H:16])([N:5]([C:6](=[O:7])[H:18])[H:17])[H:13])([H:11])[H:12])([H:8])([H:9])[H:10]>>[C:1]([C:2]([C:3](=[C:4]([H:15])[H:16])[H:13])([H:11])[H:12])([H:8])([H:9])[H:10].[N:5](=[C:6](/[O:7][H:14])[H:18])\[H:17]"
C       -2.15621001      -0.43071485      -1.03491704
C       -1.40840270       0.15208092       0.15728377
C        0.01037093       0.58792982      -0.07427290
C        0.60303713       1.54468131       0.78737196
N        1.07737420      -1.21438906      -0.10651512
C        2.36096482      -1.12444558       0.12688689
O        2.95264688       0.00474333       0.16395033
H       -2.16292224       0.26421223      -1.87744936
H       -1.70958220      -1.36356851      -1.38224772
H       -3.19547913      -0.64504580      -0.78026997
H       -1.97477355       1.01581210       0.52083800
H       -1.40137783      -0.56266145       0.98663552
H        0.25078375       0.75437525      -1.12519463
H        1.99002377       1.17124590       0.41089929
H        0.45206216       2.61647613       0.70531491
H        0.71818524       1.33837436       1.85124796
H        0.70524130      -2.13322544       0.08940884
H        2.88805747      -1.97588065       0.58102927
18
Frame=13 idx=011576 GeodesicLength=1.1820343745375976 rxn_smarts="[C:1]([C:2]([C@@:3]([C:4]([H:14])([H:15])[H:16])([N:5]([C:6](=[O:7])[H:18])[H:17])[H:13])([H:11])[H:12])([H:8])([H:9])[H:10]>>[C:1]([C:2]([C:3](=[C:4]([H:15])[H:16])[H:13])([H:11])[H:12])([H:8])([H:9])[H:10].[N:5](=[C:6](/[O:7][H:14])[H:18])\[H:17]"
C       -2.16305912      -0.40822690      -1.05078308
C       -1.41302614       0.14530719       0.15402041
C        0.01181932       0.56838913      -0.06450833
C        0.59232784       1.54621823       0.78481220
N        1.07971344      -1.23489741      -0.05390315
C        2.37393478      -1.13619236       0.11603432
O        2.95806828      -0.00246679       0.11770320
H       -2.17013410       0.30676629      -1.87634068
H       -1.71535233      -1.33181424      -1.42101441
H       -3.20207014      -0.62905333      -0.80079232
H       -1.97458041       1.00520787       0.53326374
H       -1.41396687      -0.58594636       0.96903364
H        0.26335857       0.72253363      -1.11536533
H        1.98777652       1.20228599       0.37398811
H        0.39473586       2.61214908       0.72846005
H        0.75138817       1.34085767       1.84347004
H        0.71905479      -2.14679697       0.18989713
H        2.92001153      -1.97432071       0.57202443
18
Frame=14 idx=011576 GeodesicLength=1.268586398645027 rxn_smarts="[C:1]([C:2]([C@@:3]([C:4]([H:14])([H:15])[H:16])([N:5]([C:6](=[O:7])[H:18])[H:17])[H:13])([H:11])[H:12])([H:8])([H:9])[H:10]>>[C:1]([C:2]([C:3](=[C:4]([H:15])[H:16])[H:13])([H:11])[H:12])([H:8])([H:9])[H:10].[N:5](=[C:6](/[O:7][H:14])[H:18])\[H:17]"
C       -2.16889925      -0.38549266      -1.06655790
C       -1.41717971       0.13756247       0.15087540
C        0.01313499       0.54921229      -0.05452342
C        0.58116925       1.54834461       0.78157469
N        1.08286603      -1.25358104      -0.00056060
C        2.38477047      -1.14927962       0.10497843
O        2.96169474      -0.01229045       0.07266792
H       -2.17658606       0.35008714      -1.87381031
H       -1.71934947      -1.29846294      -1.46041693
H       -3.20753460      -0.61371491      -0.82183879
H       -1.97465224       0.99230956       0.54691733
H       -1.42535729      -0.61088140       0.95025521
H        0.27539997       0.69096045      -1.10517559
H        1.98351130       1.23333159       0.33584162
H        0.33791042       2.60593956       0.75208789
H        0.78464025       1.34659871       1.83363732
H        0.73513768      -2.15562689       0.29341118
H        2.94932350      -1.97501647       0.56063654
18
Frame=15 idx=011576 GeodesicLength=1.3549049967234192 rxn_smarts="[C:1]([C:2]([C@@:3]([C:4]([H:14])([H:15])[H:16])([N:5]([C:6](=[O:7])[H:18])[H:17])[H:13])([H:11])[H:12])([H:8])([H:9])[H:10]>>[C:1]([C:2]([C:3](=[C:4]([H:15])[H:16])[H:13])([H:11])[H:12])([H:8])([H:9])[H:10].[N:5](=[C:6](/[O:7][H:14])[H:18])\[H:17]"
C       -2.17382794      -0.36238063      -1.08220858
C       -1.42083750       0.12869917       0.14782790
C        0.01435746       0.53033755      -0.04437264
C        0.56950561       1.55101654       0.77759514
N        1.08688249      -1.27043897       0.05349331
C        2.39351268      -1.16374051       0.09398405
O        2.96370210      -0.02469864       0.02889642
H       -2.18242620       0.39436583      -1.86963049
H       -1.72174580      -1.26326662      -1.50055143
H       -3.21195120      -0.59888241      -0.84339439
H       -1.97494338       0.97682439       0.56197142
H       -1.43539850      -0.63775671       0.93004130
H        0.28694323       0.65959700      -1.09468773
H        1.97716309       1.26446676       0.29621147
H        0.28157611       2.59782046       0.77622975
H        0.81793094       1.35549605       1.82154216
H        0.75373367      -2.15939912       0.39958549
H        2.97582316      -1.97806014       0.54746684
18
Frame=16 idx=011576 GeodesicLength=1.4410464079694028 rxn_smarts="[C:1]([C:2]([C@@:3]([C:4]([H:14])([H:15])[H:16])([N:5]([C:6](=[O:7])[H:18])[H:17])[H:13])([H:11])[H:12])([H:8])([H:9])[H:10]>>[C:1]([C:2]([C:3](=[C:4]([H:15])[H:16])[H:13])([H:11])[H:12])([H:8])([H:9])[H:10].[N:5](=[C:6](/[O:7][H:14])[H:18])\[H:17]"
C       -2.17795982      -0.33874210      -1.09770886
C       -1.42396809       0.11856020       0.14481798
C        0.01552590       0.51169778      -0.03415404
C        0.55728070       1.55413321       0.77280984
N        1.09181582      -1.28547161       0.10813320
C        2.40022652      -1.17965034       0.08329977
O        2.96426326      -0.03968889      -0.01372033
H       -2.18785044       0.43982501      -1.86354140
H       -1.72272897      -1.22589172      -1.54154886
H       -3.21541036      -0.58440788      -0.86544669
H       -1.97537767       0.95840891       0.57857920
H       -1.44391553      -0.66686460       0.90804921
H        0.29800855       0.62841943      -1.08400942
H        1.96863328       1.29572824       0.25482745
H        0.22572078       2.58767699       0.80106983
H        0.85124016       1.36739084       1.80693868
H        0.77512761      -2.15760755       0.50831855
H        2.99936831      -1.98351594       0.53328591
