15
Frame=0 idx=008221 GeodesicLength=0.0 rxn_smarts="[C:1]1([H:8])([H:9])[O:2][C@@:3]2([H:10])[C:4]([H:11])=[C:5]([H:12])[C:6]([H:13])([H:14])[C@@:7]12[H:15]>>[C:1]([O:2][H:11])([C@@:7]1([H:15])[C:3]([H:10])=[C:4]=[C:5]([H:12])[C:6]1([H:13])[H:14])([H:8])[H:9]"
C       -1.14071648      -0.57241039      -0.72116585
O       -0.44666442      -1.75896304      -0.13961399
C        0.10712693      -0.81362165       0.94523198
C        1.46622772      -0.69376792       0.32448346
C        1.53645759       0.55185350      -0.16989816
C        0.30871552       1.42342527       0.07361878
C       -0.73442241       0.35693358       0.42483601
H       -0.72052758      -0.34728027      -1.70040555
H       -2.19634884      -0.81926236      -0.79370393
H       -0.02743714      -1.25098092       1.93110572
H        0.62743117      -1.81508816      -0.45942848
H        2.33395196       0.90198244      -0.81831533
H        0.42503948       2.14639661       0.88787128
H        0.03380603       1.99751607      -0.81738498
H       -1.57263946       0.69326729       1.03276904
15
Frame=1 idx=008221 GeodesicLength=0.0919272288599332 rxn_smarts="[C:1]1([H:8])([H:9])[O:2][C@@:3]2([H:10])[C:4]([H:11])=[C:5]([H:12])[C:6]([H:13])([H:14])[C@@:7]12[H:15]>>[C:1]([O:2][H:11])([C@@:7]1([H:15])[C:3]([H:10])=[C:4]=[C:5]([H:12])[C:6]1([H:13])[H:14])([H:8])[H:9]"
C       -1.14571097      -0.57400535      -0.72115173
O       -0.45862439      -1.76502399      -0.15063092
C        0.11265345      -0.81090358       0.95074726
C        1.46686682      -0.69045042       0.32927589
C        1.54097135       0.55614291      -0.16262135
C        0.30825936       1.42213389       0.06972294
C       -0.73302440       0.35330305       0.42444311
H       -0.72572948      -0.34373857      -1.69985379
H       -2.20471631      -0.80628414      -0.79393430
H       -0.02122137      -1.24861966       1.93650999
H        0.63624005      -1.82357105      -0.46576614
H        2.33995905       0.90541780      -0.80960710
H        0.41956256       2.14925524       0.88083241
H        0.03330084       1.98972302      -0.82536615
H       -1.56878657       0.68662085       1.03739987
15
Frame=2 idx=008221 GeodesicLength=0.18383087619083388 rxn_smarts="[C:1]1([H:8])([H:9])[O:2][C@@:3]2([H:10])[C:4]([H:11])=[C:5]([H:12])[C:6]([H:13])([H:14])[C@@:7]12[H:15]>>[C:1]([O:2][H:11])([C@@:7]1([H:15])[C:3]([H:10])=[C:4]=[C:5]([H:12])[C:6]1([H:13])[H:14])([H:8])[H:9]"
C       -1.15078752      -0.57560473      -0.72110333
O       -0.47090971      -1.77119197      -0.16184770
C        0.11825706      -0.80805981       0.95643418
C        1.46750109      -0.68712462       0.33400688
C        1.54545189       0.56048288      -0.15528189
C        0.30780331       1.42077309       0.06580330
C       -0.73160417       0.34959004       0.42406068
H       -0.73099238      -0.34024987      -1.69924974
H       -2.21300533      -0.79310556      -0.79413462
H       -0.01491707      -1.24621415       1.94204402
H        0.64527149      -1.83208991      -0.47224412
H        2.34595230       0.90895769      -0.80077733
H        0.41401001       2.15206315       0.87369936
H        0.03286674       1.98179612      -0.83336643
H       -1.56489769       0.67997767       1.04195674
15
Frame=3 idx=008221 GeodesicLength=0.27572115841455186 rxn_smarts="[C:1]1([H:8])([H:9])[O:2][C@@:3]2([H:10])[C:4]([H:11])=[C:5]([H:12])[C:6]([H:13])([H:14])[C@@:7]12[H:15]>>[C:1]([O:2][H:11])([C@@:7]1([H:15])[C:3]([H:10])=[C:4]=[C:5]([H:12])[C:6]1([H:13])[H:14])([H:8])[H:9]"
C       -1.15594641      -0.57720830      -0.72101998
O       -0.48354374      -1.77746953      -0.17327041
C        0.12394141      -0.80508340       0.96230123
C        1.46813042      -0.68378977       0.33867847
C        1.54989795       0.56487396      -0.14787887
C        0.30734737       1.41934067       0.06186105
C       -0.73016040       0.34579020       0.42368973
H       -0.73631197      -0.33681724      -1.69859244
H       -2.22121037      -0.77971965      -0.79430805
H       -0.00852098      -1.24376157       1.94771415
H        0.65454039      -1.84064263      -0.47886952
H        2.35192602       0.91260071      -0.79183160
H        0.40838090       2.15481693       0.86647151
H        0.03250371       1.97373308      -0.84138375
H       -1.56097429       0.67333656       1.04643847
15
Frame=4 idx=008221 GeodesicLength=0.36760678083185594 rxn_smarts="[C:1]1([H:8])([H:9])[O:2][C@@:3]2([H:10])[C:4]([H:11])=[C:5]([H:12])[C:6]([H:13])([H:14])[C@@:7]12[H:15]>>[C:1]([O:2][H:11])([C@@:7]1([H:15])[C:3]([H:10])=[C:4]=[C:5]([H:12])[C:6]1([H:13])[H:14])([H:8])[H:9]"
C       -1.16118851      -0.57881628      -0.72090092
O       -0.49655209      -1.78385918      -0.18490557
C        0.12970995      -0.80196752       0.96835680
C        1.46875462      -0.68044521       0.34329222
C        1.55430794       0.56931633      -0.14041215
C        0.30689111       1.41783380       0.05789687
C       -0.72869151       0.34189893       0.42333106
H       -0.74168431      -0.33344440      -1.69788083
H       -2.22932404      -0.76611869      -0.79445728
H       -0.00202868      -1.24125762       1.95352728
H        0.66406198      -1.84922693      -0.48565038
H        2.35787490       0.91634650      -0.78277315
H        0.40267380       2.15751269       0.85914787
H        0.03221209       1.96553126      -0.84941578
H       -1.55701723       0.66669631       1.05084396
15
Frame=5 idx=008221 GeodesicLength=0.45949499528483073 rxn_smarts="[C:1]1([H:8])([H:9])[O:2][C@@:3]2([H:10])[C:4]([H:11])=[C:5]([H:12])[C:6]([H:13])([H:14])[C@@:7]12[H:15]>>[C:1]([O:2][H:11])([C@@:7]1([H:15])[C:3]([H:10])=[C:4]=[C:5]([H:12])[C:6]1([H:13])[H:14])([H:8])[H:9]"
C       -1.16651440      -0.58042843      -0.72074497
O       -0.50996084      -1.79036333      -0.19676150
C        0.13556745      -0.79870348       0.97461074
C        1.46937390      -0.67708988       0.34785068
C        1.55868058       0.57380992      -0.13288222
C        0.30643442       1.41624994       0.05391113
C       -0.72719566       0.33791116       0.42298608
H       -0.74710561      -0.33013467      -1.69711371
H       -2.23734243      -0.75229610      -0.79458497
H        0.00456354      -1.23870028       1.95948987
H        0.67385152      -1.85784036      -0.49259466
H        2.36379662       0.92019485      -0.77360467
H        0.39688691       2.16014794       0.85172690
H        0.03199163       1.95718743      -0.85746128
H       -1.55302765       0.66005527       1.05517257
15
Frame=6 idx=008221 GeodesicLength=0.5513927754039509 rxn_smarts="[C:1]1([H:8])([H:9])[O:2][C@@:3]2([H:10])[C:4]([H:11])=[C:5]([H:12])[C:6]([H:13])([H:14])[C@@:7]12[H:15]>>[C:1]([O:2][H:11])([C@@:7]1([H:15])[C:3]([H:10])=[C:4]=[C:5]([H:12])[C:6]1([H:13])[H:14])([H:8])[H:9]"
C       -1.17192514      -0.58204544      -0.72055111
O       -0.52379968      -1.79698366      -0.20884371
C        0.14151785      -0.79528425       0.98107179
C        1.46998795      -0.67372338       0.35235569
C        1.56301391       0.57835476      -0.12528927
C        0.30597680       1.41458567       0.04990440
C       -0.72567097       0.33382126       0.42265592
H       -0.75257160      -0.32689281      -1.69628991
H       -2.24525722      -0.73824067      -0.79469490
H        0.01126067      -1.23608509       1.96560919
H        0.68392794      -1.86647958      -0.49971151
H        2.36968533       0.92414577      -0.76432856
H        0.39101839       2.16271807       0.84420657
H        0.03184185       1.94869808      -0.86551842
H       -1.54900608       0.65341128       1.05942384
15
Frame=7 idx=008221 GeodesicLength=0.643302248740252 rxn_smarts="[C:1]1([H:8])([H:9])[O:2][C@@:3]2([H:10])[C:4]([H:11])=[C:5]([H:12])[C:6]([H:13])([H:14])[C@@:7]12[H:15]>>[C:1]([O:2][H:11])([C@@:7]1([H:15])[C:3]([H:10])=[C:4]=[C:5]([H:12])[C:6]1([H:13])[H:14])([H:8])[H:9]"
C       -1.17742177      -0.58366697      -0.72031842
O       -0.53809763      -1.80372229      -0.22116158
C        0.14756570      -0.79170046       0.98775054
C        1.47059626      -0.67034504       0.35681025
C        1.56730635       0.58295052      -0.11763353
C        0.30551786       1.41283800       0.04587737
C       -0.72411553       0.32962328       0.42234225
H       -0.75807790      -0.32372245      -1.69540797
H       -2.25306298      -0.72394517      -0.79478949
H        0.01806707      -1.23340837       1.97189272
H        0.69430912      -1.87514052      -0.50701064
H        2.37553883       0.92819837      -0.75494732
H        0.38506668       2.16521933       0.83658471
H        0.03176140       1.94005936      -0.87358612
H       -1.54495343       0.64676242       1.06359723
15
Frame=8 idx=008221 GeodesicLength=0.7352300501534055 rxn_smarts="[C:1]1([H:8])([H:9])[O:2][C@@:3]2([H:10])[C:4]([H:11])=[C:5]([H:12])[C:6]([H:13])([H:14])[C@@:7]12[H:15]>>[C:1]([O:2][H:11])([C@@:7]1([H:15])[C:3]([H:10])=[C:4]=[C:5]([H:12])[C:6]1([H:13])[H:14])([H:8])[H:9]"
C       -1.18300664      -0.58529370      -0.72004541
O       -0.55288965      -1.81058049      -0.23372085
C        0.15371558      -0.78794398       0.99465674
C        1.47119844      -0.66695417       0.36121653
C        1.57155524       0.58759684      -0.10991650
C        0.30505614       1.41100274       0.04182988
C       -0.72252735       0.32531010       0.42204671
H       -0.76361955      -0.32063051      -1.69446650
H       -2.26075086      -0.70939672      -0.79487352
H        0.02498902      -1.23066513       1.97834843
H        0.70501658      -1.88381847      -0.51450334
H        2.38135330       0.93235380      -0.74546167
H        0.37902939       2.16764713       0.82885932
H        0.03175011       1.93126656      -0.88166277
H       -1.54086974       0.64010600       1.06769293
15
Frame=9 idx=008221 GeodesicLength=0.8271695702773032 rxn_smarts="[C:1]1([H:8])([H:9])[O:2][C@@:3]2([H:10])[C:4]([H:11])=[C:5]([H:12])[C:6]([H:13])([H:14])[C@@:7]12[H:15]>>[C:1]([O:2][H:11])([C@@:7]1([H:15])[C:3]([H:10])=[C:4]=[C:5]([H:12])[C:6]1([H:13])[H:14])([H:8])[H:9]"
C       -1.18868063      -0.58692588      -0.71973107
O       -0.56821063      -1.81755846      -0.24652371
C        0.15997184      -0.78400740       1.00179869
C        1.47179420      -0.66355008       0.36557774
C        1.57575893       0.59229290      -0.10213958
C        0.30459098       1.40907670       0.03776189
C       -0.72090444       0.32087497       0.42177104
H       -0.76919178      -0.31762188      -1.69346424
H       -2.26831592      -0.69458445      -0.79495190
H        0.03203093      -1.22785250       1.98498253
H        0.71607455      -1.89250814      -0.52220009
H        2.38712747       0.93661165      -0.73587398
H        0.37290432       2.16999835       0.82102836
H        0.03180606       1.92231592      -0.88974718
H       -1.53675586       0.63343829       1.07171151
15
Frame=10 idx=008221 GeodesicLength=0.9191264932318698 rxn_smarts="[C:1]1([H:8])([H:9])[O:2][C@@:3]2([H:10])[C:4]([H:11])=[C:5]([H:12])[C:6]([H:13])([H:14])[C@@:7]12[H:15]>>[C:1]([O:2][H:11])([C@@:7]1([H:15])[C:3]([H:10])=[C:4]=[C:5]([H:12])[C:6]1([H:13])[H:14])([H:8])[H:9]"
C       -1.19444647      -0.58856408      -0.71937376
O       -0.58409837      -1.82465776      -0.25958179
C        0.16634016      -0.77987870       1.00919000
C        1.47238281      -0.66013189       0.36989802
C        1.57991428       0.59703836      -0.09430410
C        0.30412102       1.40705488       0.03367389
C       -0.71924447       0.31630960       0.42151748
H       -0.77478880      -0.31470377      -1.69239914
H       -2.27574735      -0.67949528      -0.79502873
H        0.03919911      -1.22496549       1.99180447
H        0.72750595      -1.90120289      -0.53011374
H        2.39285622       0.94097176      -0.72618612
H        0.36668927       2.17226695       0.81308875
H        0.03192837       1.91320148      -0.89783784
H       -1.53261173       0.62675684       1.07565260
15
Frame=11 idx=008221 GeodesicLength=1.0111049359318982 rxn_smarts="[C:1]1([H:8])([H:9])[O:2][C@@:3]2([H:10])[C:4]([H:11])=[C:5]([H:12])[C:6]([H:13])([H:14])[C@@:7]12[H:15]>>[C:1]([O:2][H:11])([C@@:7]1([H:15])[C:3]([H:10])=[C:4]=[C:5]([H:12])[C:6]1([H:13])[H:14])([H:8])[H:9]"
C       -1.20030599      -0.59020915      -0.71897167
O       -0.60059695      -1.83187717      -0.27290116
C        0.17282627      -0.77554745       1.01684226
C        1.47296444      -0.65669856       0.37418197
C        1.58401906       0.60183237      -0.08641199
C        0.30364498       1.40493234       0.02956606
C       -0.71754428       0.31160499       0.42128843
H       -0.78040323      -0.31188518      -1.69126913
H       -2.28303657      -0.66411409      -0.79510971
H        0.04649910      -1.22200043       1.99882220
H        0.73933874      -1.90989477      -0.53825768
H        2.39853580       0.94543452      -0.71640046
H        0.36038067       2.17444750       0.80503738
H        0.03211486       1.90391734      -0.90593325
H       -1.52843690       0.62005773       1.07951674
15
Frame=12 idx=008221 GeodesicLength=1.103089173908476 rxn_smarts="[C:1]1([H:8])([H:9])[O:2][C@@:3]2([H:10])[C:4]([H:11])=[C:5]([H:12])[C:6]([H:13])([H:14])[C@@:7]12[H:15]>>[C:1]([O:2][H:11])([C@@:7]1([H:15])[C:3]([H:10])=[C:4]=[C:5]([H:12])[C:6]1([H:13])[H:14])([H:8])[H:9]"
C       -1.20626207      -0.59186025      -0.71852435
O       -0.61774835      -1.83921645      -0.28648611
C        0.17943504      -0.77100403       1.02476559
C        1.47353836      -0.65324950       0.37843398
C        1.58807060       0.60667318      -0.07846634
C        0.30316125       1.40270464       0.02543855
C       -0.71580145       0.30675181       0.42108593
H       -0.78602824      -0.30917335      -1.69007330
H       -2.29017603      -0.64842817      -0.79519997
H        0.05393706      -1.21895140       2.00604377
H        0.75160148      -1.91857638      -0.54664453
H        2.40416462       0.94999946      -0.70651869
H        0.35397620       2.17653530       0.79687284
H        0.03236306       1.89445891      -0.91403171
H       -1.52423154       0.61333622       1.08330434
15
Frame=13 idx=008221 GeodesicLength=1.195081112645035 rxn_smarts="[C:1]1([H:8])([H:9])[O:2][C@@:3]2([H:10])[C:4]([H:11])=[C:5]([H:12])[C:6]([H:13])([H:14])[C@@:7]12[H:15]>>[C:1]([O:2][H:11])([C@@:7]1([H:15])[C:3]([H:10])=[C:4]=[C:5]([H:12])[C:6]1([H:13])[H:14])([H:8])[H:9]"
C       -1.21231772      -0.59351855      -0.71802932
O       -0.63560187      -1.84667380      -0.30034354
C        0.18617275      -0.76623529       1.03297433
C        1.47410393      -0.64978368       0.38266034
C        1.59206555       0.61155984      -0.07046938
C        0.30266811       1.40036579       0.02129161
C       -0.71401301       0.30173945       0.42091329
H       -0.79165558      -0.30657920      -1.68880865
H       -2.29715351      -0.63241878      -0.79530674
H        0.06151866      -1.21581525       2.01347800
H        0.76432779      -1.92723659      -0.55529102
H        2.40973737       0.95466563      -0.69654427
H        0.34747238       2.17852382       0.78859110
H        0.03267034       1.88481868      -0.92213201
H       -1.51999519       0.60658791       1.08701626
15
Frame=14 idx=008221 GeodesicLength=1.2870768408517235 rxn_smarts="[C:1]1([H:8])([H:9])[O:2][C@@:3]2([H:10])[C:4]([H:11])=[C:5]([H:12])[C:6]([H:13])([H:14])[C@@:7]12[H:15]>>[C:1]([O:2][H:11])([C@@:7]1([H:15])[C:3]([H:10])=[C:4]=[C:5]([H:12])[C:6]1([H:13])[H:14])([H:8])[H:9]"
C       -1.21847601      -0.59518508      -0.71748489
O       -0.65421251      -1.85424610      -0.31447728
C        0.19304572      -0.76122953       1.04148099
C        1.47466111      -0.64629973       0.38686792
C        1.59600071       0.61649101      -0.06242454
C        0.30216305       1.39790958       0.01712569
C       -0.71217557       0.29655612       0.42077345
H       -0.79727533      -0.30411529      -1.68747272
H       -2.30395740      -0.61606535      -0.79543853
H        0.06925062      -1.21258724       2.02113341
H        0.77755467      -1.93586362      -0.56421314
H        2.41524937       0.95943256      -0.68648126
H        0.34086512       2.18040590       0.78018959
H        0.03303331       1.87498943      -0.93023199
H       -1.51572686       0.59980734       1.09065332
15
Frame=15 idx=008221 GeodesicLength=1.3790581938025805 rxn_smarts="[C:1]1([H:8])([H:9])[O:2][C@@:3]2([H:10])[C:4]([H:11])=[C:5]([H:12])[C:6]([H:13])([H:14])[C@@:7]12[H:15]>>[C:1]([O:2][H:11])([C@@:7]1([H:15])[C:3]([H:10])=[C:4]=[C:5]([H:12])[C:6]1([H:13])[H:14])([H:8])[H:9]"
C       -1.22474057      -0.59686021      -0.71688926
O       -0.67363470      -1.86192943      -0.32889152
C        0.20005991      -0.75597428       1.05029843
C        1.47520952      -0.64279646       0.39106473
C        1.59987271       0.62146497      -0.05433560
C        0.30164366       1.39532969       0.01294112
C       -0.71028572       0.29118954       0.42066972
H       -0.80287760      -0.30179395      -1.68606303
H       -2.31057522      -0.59934796      -0.79560362
H        0.07713866      -1.20926295       2.02901825
H        0.79132007      -1.94444479      -0.57342732
H        2.42069647       0.96429862      -0.67633465
H        0.33415018       2.18217488       0.77166567
H        0.03344839       1.86496402      -0.93832969
H       -1.51142576       0.59298830       1.09421677
15
Frame=16 idx=008221 GeodesicLength=1.471013673058425 rxn_smarts="[C:1]1([H:8])([H:9])[O:2][C@@:3]2([H:10])[C:4]([H:11])=[C:5]([H:12])[C:6]([H:13])([H:14])[C@@:7]12[H:15]>>[C:1]([O:2][H:11])([C@@:7]1([H:15])[C:3]([H:10])=[C:4]=[C:5]([H:12])[C:6]1([H:13])[H:14])([H:8])[H:9]"
C       -1.23111558      -0.59854524      -0.71624007
O       -0.69393077      -1.86971847      -0.34358958
C        0.20722202      -0.75045590       1.05944072
C        1.47574895      -0.63927256       0.39525958
C        1.60367781       0.62647980      -0.04620661
C        0.30110682       1.39261883       0.00873813
C       -0.70833967       0.28562562       0.42060584
H       -0.80845090      -0.29963089      -1.68457637
H       -2.31699279      -0.58224217      -0.79581186
H        0.08518938      -1.20583772       2.03714139
H        0.80566719      -1.95296456      -0.58295300
H        2.42607420       0.96926302      -0.66610860
H        0.32732307       2.18382265       0.76301588
H        0.03391074       1.85473359      -0.94642342
H       -1.50709047       0.58612398       1.09770796
