19
Frame=0 idx=007576 GeodesicLength=0.0 rxn_smarts="[C:1]([C@@:2]([O:3][H:12])([C@@:4]1([H:13])[C:5]([H:14])([H:15])[C@:6]1([C:7]([H:17])([H:18])[H:19])[H:16])[H:11])([H:8])([H:9])[H:10]>>[C:1]([C@@:2]([O:3][H:12])([C:4]([C:5]([C:6][C:7]([H:17])([H:18])[H:19])([H:14])[H:15])([H:13])[H:16])[H:11])([H:8])([H:9])[H:10]"
C        2.30182191       0.12803827      -0.26617206
C        1.01506655      -0.24852138       0.44241132
O        1.33964959      -0.42501569       1.81172866
C       -0.04280616       0.82308697       0.26825004
C       -0.79303826       0.89255825      -1.05475209
C       -1.87661189       0.53362339      -0.11319045
C       -2.16204119      -0.94582447      -0.08895659
H        2.13293941       0.25943573      -1.33546462
H        3.04888443      -0.65205225      -0.12000103
H        2.69652099       1.06006924       0.14311798
H        0.64104402      -1.19072379       0.02270702
H        0.57330883      -0.77270015       2.27198905
H        0.27477524       1.80398050       0.61884032
H       -0.46895272       0.12862803      -1.76681503
H       -0.82506217       1.87898329      -1.50711818
H       -0.94783535       0.68490968       1.02212074
H       -1.38554787      -1.61872965      -0.47929191
H       -3.02487613      -1.04174599      -0.75712144
H       -2.49723924      -1.29800003       0.88771830
19
Frame=1 idx=007576 GeodesicLength=0.05806649969324888 rxn_smarts="[C:1]([C@@:2]([O:3][H:12])([C@@:4]1([H:13])[C:5]([H:14])([H:15])[C@:6]1([C:7]([H:17])([H:18])[H:19])[H:16])[H:11])([H:8])([H:9])[H:10]>>[C:1]([C@@:2]([O:3][H:12])([C:4]([C:5]([C:6][C:7]([H:17])([H:18])[H:19])([H:14])[H:15])([H:13])[H:16])[H:11])([H:8])([H:9])[H:10]"
C        2.30747327       0.13676898      -0.26712136
C        1.02317263      -0.24908095       0.44072316
O        1.34901089      -0.42825490       1.80954774
C       -0.04254825       0.81575094       0.27136335
C       -0.78766179       0.88302762      -1.05469348
C       -1.87259948       0.52969240      -0.11316752
C       -2.17773035      -0.94423162      -0.08921390
H        2.13869122       0.26889596      -1.33633568
H        3.05968899      -0.63852745      -0.12175424
H        2.69605078       1.07089750       0.14329600
H        0.65573794      -1.19309633       0.01878661
H        0.58156039      -0.77486239       2.26886635
H        0.27466180       1.79767565       0.61953624
H       -0.46879282       0.11511717      -1.76476278
H       -0.81067986       1.86900438      -1.50836339
H       -0.96005302       0.68883063       1.03459440
H       -1.40538445      -1.62476033      -0.47392757
H       -3.03771729      -1.03021879      -0.76276317
H       -2.52288059      -1.29262844       0.88538923
19
Frame=2 idx=007576 GeodesicLength=0.11614322436195355 rxn_smarts="[C:1]([C@@:2]([O:3][H:12])([C@@:4]1([H:13])[C:5]([H:14])([H:15])[C@:6]1([C:7]([H:17])([H:18])[H:19])[H:16])[H:11])([H:8])([H:9])[H:10]>>[C:1]([C@@:2]([O:3][H:12])([C:4]([C:5]([C:6][C:7]([H:17])([H:18])[H:19])([H:14])[H:15])([H:13])[H:16])[H:11])([H:8])([H:9])[H:10]"
C        2.31323702       0.14568534      -0.26803574
C        1.03148347      -0.24969297       0.43897137
O        1.35852103      -0.43156617       1.80730717
C       -0.04218065       0.80815908       0.27445242
C       -0.78227526       0.87317993      -1.05458246
C       -1.86850292       0.52556837      -0.11298059
C       -2.19367435      -0.94247663      -0.08949422
H        2.14453370       0.27861429      -1.33716011
H        3.07068146      -0.62468029      -0.12348851
H        2.69552822       1.08188682       0.14361218
H        0.67086587      -1.19551562       0.01472361
H        0.58995143      -0.77711368       2.26565100
H        0.27449635       1.79114951       0.62025061
H       -0.46868982       0.10126608      -1.76259965
H       -0.79627040       1.85860826      -1.50960202
H       -0.97247543       0.69290845       1.04702787
H       -1.42572181      -1.63075926      -0.46857229
H       -3.05066402      -1.01832345      -0.76844512
H       -2.54884389      -1.28689806       0.88296448
19
Frame=3 idx=007576 GeodesicLength=0.17424030141371405 rxn_smarts="[C:1]([C@@:2]([O:3][H:12])([C@@:4]1([H:13])[C:5]([H:14])([H:15])[C@:6]1([C:7]([H:17])([H:18])[H:19])[H:16])[H:11])([H:8])([H:9])[H:10]>>[C:1]([C@@:2]([O:3][H:12])([C:4]([C:5]([C:6][C:7]([H:17])([H:18])[H:19])([H:14])[H:15])([H:13])[H:16])[H:11])([H:8])([H:9])[H:10]"
C        2.31911117       0.15479337      -0.26891579
C        1.04000632      -0.25035809       0.43715714
O        1.36819293      -0.43494996       1.80500690
C       -0.04169924       0.80030100       0.27752031
C       -0.77687786       0.86300221      -1.05441493
C       -1.86431931       0.52123887      -0.11262513
C       -2.20987906      -0.94055204      -0.08980206
H        2.15045958       0.28859553      -1.33793750
H        3.08186279      -0.61049771      -0.12520536
H        2.69494658       1.09304203       0.14406501
H        0.68644157      -1.19797913       0.01051891
H        0.59849791      -0.77945779       2.26234515
H        0.27427727       1.78439331       0.62098666
H       -0.46864215       0.08706083      -1.76031681
H       -0.78183619       1.84777758      -1.51083180
H       -0.98511428       0.69715124       1.05941830
H       -1.44657692      -1.63672327      -0.46322831
H       -3.06370802      -1.00604257      -0.77417404
H       -2.57514310      -1.28079540       0.88043335
19
Frame=4 idx=007576 GeodesicLength=0.2323625359022387 rxn_smarts="[C:1]([C@@:2]([O:3][H:12])([C@@:4]1([H:13])[C:5]([H:14])([H:15])[C@:6]1([C:7]([H:17])([H:18])[H:19])[H:16])[H:11])([H:8])([H:9])[H:10]>>[C:1]([C@@:2]([O:3][H:12])([C:4]([C:5]([C:6][C:7]([H:17])([H:18])[H:19])([H:14])[H:15])([H:13])[H:16])[H:11])([H:8])([H:9])[H:10]"
C        2.32509314       0.16409929      -0.26976182
C        1.04874759      -0.25107678       0.43528176
O        1.37803917      -0.43840755       1.80264656
C       -0.04110022       0.79216630       0.28057056
C       -0.77146905       0.85248124      -1.05418646
C       -1.86004687       0.51669242      -0.11209622
C       -2.22634814      -0.93845016      -0.09014043
H        2.15646107       0.29884507      -1.33866728
H        3.09323263      -0.59596739      -0.12690720
H        2.69429836       1.10436754       0.14465383
H        0.70247838      -1.20048380       0.00617288
H        0.60721548      -0.78190007       2.25895055
H        0.27400287       1.77739822       0.62174788
H       -0.46864834       0.07248658      -1.75790483
H       -0.76737840       1.83649626      -1.51205171
H       -0.99798132       0.70156810       1.07176164
H       -1.46796731      -1.64264797      -0.45789716
H       -3.07684079      -0.99336230      -0.77995743
H       -2.60178826      -1.27430499       0.87778487
19
Frame=5 idx=007576 GeodesicLength=0.2905144465798033 rxn_smarts="[C:1]([C@@:2]([O:3][H:12])([C@@:4]1([H:13])[C:5]([H:14])([H:15])[C@:6]1([C:7]([H:17])([H:18])[H:19])[H:16])[H:11])([H:8])([H:9])[H:10]>>[C:1]([C@@:2]([O:3][H:12])([C:4]([C:5]([C:6][C:7]([H:17])([H:18])[H:19])([H:14])[H:15])([H:13])[H:16])[H:11])([H:8])([H:9])[H:10]"
C        2.33118004       0.17360943      -0.27057410
C        1.05771465      -0.25184968       0.43334657
O        1.38807335      -0.44193951       1.80022610
C       -0.04037978       0.78374340       0.28360690
C       -0.76604750       0.84160244      -1.05389285
C       -1.85568207       0.51191495      -0.11138949
C       -2.24308749      -0.93616204      -0.09051333
H        2.16252974       0.30936880      -1.33934857
H        3.10479103      -0.58107513      -0.12859595
H        2.69357553       1.11586821       0.14537800
H        0.71898983      -1.20302660       0.00168663
H        0.61612093      -0.78444510       2.25546971
H        0.27367159       1.77015438       0.62253716
H       -0.46870569       0.05752720      -1.75535393
H       -0.75289905       1.82474517      -1.51325935
H       -1.01108909       0.70617006       1.08405193
H       -1.48991184      -1.64852755      -0.45258381
H       -3.09005497      -0.98026157      -0.78579887
H       -2.62878921      -1.26741684       0.87500726
19
Frame=6 idx=007576 GeodesicLength=0.3486995847120415 rxn_smarts="[C:1]([C@@:2]([O:3][H:12])([C@@:4]1([H:13])[C:5]([H:14])([H:15])[C@:6]1([C:7]([H:17])([H:18])[H:19])[H:16])[H:11])([H:8])([H:9])[H:10]>>[C:1]([C@@:2]([O:3][H:12])([C:4]([C:5]([C:6][C:7]([H:17])([H:18])[H:19])([H:14])[H:15])([H:13])[H:16])[H:11])([H:8])([H:9])[H:10]"
C        2.33736867       0.18333104      -0.27135306
C        1.06691475      -0.25267784       0.43135288
O        1.39831007      -0.44554737       1.79774477
C       -0.03953376       0.77501991       0.28663389
C       -0.76061257       0.83035016      -1.05352846
C       -1.85122171       0.50689201      -0.11049867
C       -2.26010140      -0.93368017      -0.09092651
H        2.16865603       0.32017395      -1.33998079
H        3.11653736      -0.56580614      -0.13027468
H        2.69276909       1.12754919       0.14623724
H        0.73599059      -1.20560401      -0.00293976
H        0.62523300      -0.78709933       2.25190476
H        0.27328210       1.76265112       0.62335840
H       -0.46881281       0.04216555      -1.75265311
H       -0.73840075       1.81250548      -1.51445224
H       -1.02445023       0.71096726       1.09628327
H       -1.51242926      -1.65435803      -0.44729073
H       -3.10333933      -0.96672404      -0.79170777
H       -2.65615981      -1.26010873       0.87209056
19
Frame=7 idx=007576 GeodesicLength=0.406927636798163 rxn_smarts="[C:1]([C@@:2]([O:3][H:12])([C@@:4]1([H:13])[C:5]([H:14])([H:15])[C@:6]1([C:7]([H:17])([H:18])[H:19])[H:16])[H:11])([H:8])([H:9])[H:10]>>[C:1]([C@@:2]([O:3][H:12])([C:4]([C:5]([C:6][C:7]([H:17])([H:18])[H:19])([H:14])[H:15])([H:13])[H:16])[H:11])([H:8])([H:9])[H:10]"
C        2.34365535       0.19327073      -0.27209897
C        1.07635553      -0.25356175       0.42930170
O        1.40876341      -0.44923220       1.79520214
C       -0.03855669       0.76598385       0.28965476
C       -0.75516348       0.81870823      -1.05308829
C       -1.84666150       0.50160704      -0.10941755
C       -2.27739472      -0.93099500      -0.09138382
H        2.17483066       0.33126738      -1.34056283
H        3.12847091      -0.55014554      -0.13194554
H        2.69187056       1.13941439       0.14723188
H        0.75349457      -1.20821168      -0.00770604
H        0.63456938      -0.78986948       2.24825782
H        0.27283266       1.75487767       0.62421505
H       -0.46896704       0.02638315      -1.74979106
H       -0.72388879       1.79975811      -1.51562805
H       -1.03807974       0.71597297       1.10844887
H       -1.53553941      -1.66013419      -0.44202394
H       -3.11668363      -0.95272882      -0.79768929
H       -2.68390804      -1.25236488       0.86902317
19
Frame=8 idx=007576 GeodesicLength=0.4651930131262575 rxn_smarts="[C:1]([C@@:2]([O:3][H:12])([C@@:4]1([H:13])[C:5]([H:14])([H:15])[C@:6]1([C:7]([H:17])([H:18])[H:19])[H:16])[H:11])([H:8])([H:9])[H:10]>>[C:1]([C@@:2]([O:3][H:12])([C:4]([C:5]([C:6][C:7]([H:17])([H:18])[H:19])([H:14])[H:15])([H:13])[H:16])[H:11])([H:8])([H:9])[H:10]"
C        2.35003452       0.20343544      -0.27281188
C        1.08604338      -0.25450229       0.42719453
O        1.41944756      -0.45299650       1.79259727
C       -0.03744523       0.75662177       0.29267514
C       -0.74969933       0.80666063      -1.05256641
C       -1.84200002       0.49604331      -0.10813988
C       -2.29496857      -0.92809753      -0.09188989
H        2.18104217       0.34265717      -1.34109355
H        3.14058790      -0.53407870      -0.13361186
H        2.69086918       1.15146725       0.14836285
H        0.77151576      -1.21084478      -0.01261253
H        0.64414892      -0.79276455       2.24453027
H        0.27232123       1.74682215       0.62511136
H       -0.46916602       0.01016150      -1.74675592
H       -0.70936483       1.78648546      -1.51678485
H       -1.05199077       0.72120178       1.12053905
H       -1.55926331      -1.66584838      -0.43678824
H       -3.13007460      -0.93826339      -0.80374919
H       -2.71203794      -1.24416032       0.86579372
19
Frame=9 idx=007576 GeodesicLength=0.5234888610441252 rxn_smarts="[C:1]([C@@:2]([O:3][H:12])([C@@:4]1([H:13])[C:5]([H:14])([H:15])[C@:6]1([C:7]([H:17])([H:18])[H:19])[H:16])[H:11])([H:8])([H:9])[H:10]>>[C:1]([C@@:2]([O:3][H:12])([C:4]([C:5]([C:6][C:7]([H:17])([H:18])[H:19])([H:14])[H:15])([H:13])[H:16])[H:11])([H:8])([H:9])[H:10]"
C        2.35649906       0.21383132      -0.27349327
C        1.09598560      -0.25550027       0.42503481
O        1.43038038      -0.45684056       1.78993012
C       -0.03619570       0.74691856       0.29570266
C       -0.74422103       0.79418861      -1.05195348
C       -1.83723642       0.49017733      -0.10665697
C       -2.31282551      -0.92497690      -0.09245375
H        2.18727579       0.35434856      -1.34157331
H        3.15288207      -0.51759159      -0.13527750
H        2.68975296       1.16370999       0.14962753
H        0.79006879      -1.21349789      -0.01765666
H        0.65399653      -0.79579207       2.24072635
H        0.27174549       1.73847147       0.62605322
H       -0.46940497      -0.00651811      -1.74353320
H       -0.69483732       1.77267180      -1.51791749
H       -1.06619455       0.72666629       1.13254605
H       -1.58361922      -1.67148886      -0.43158821
H       -3.14349758      -0.92332029      -0.80990251
H       -2.74055436      -1.23545737       0.86238561
19
Frame=10 idx=007576 GeodesicLength=0.5818252736034634 rxn_smarts="[C:1]([C@@:2]([O:3][H:12])([C@@:4]1([H:13])[C:5]([H:14])([H:15])[C@:6]1([C:7]([H:17])([H:18])[H:19])[H:16])[H:11])([H:8])([H:9])[H:10]>>[C:1]([C@@:2]([O:3][H:12])([C:4]([C:5]([C:6][C:7]([H:17])([H:18])[H:19])([H:14])[H:15])([H:13])[H:16])[H:11])([H:8])([H:9])[H:10]"
C        2.36304387       0.22446569      -0.27414304
C        1.10618967      -0.25655645       0.42282379
O        1.44157804      -0.46076362       1.78720079
C       -0.03480235       0.73686088       0.29874167
C       -0.73872593       0.78127430      -1.05124429
C       -1.83236222       0.48398995      -0.10496212
C       -2.33096905      -0.92162481      -0.09308215
H        2.19351878       0.36634757      -1.34200038
H        3.16535296      -0.50066717      -0.13694652
H        2.68851119       1.17614796       0.15102587
H        0.80916621      -1.21616650      -0.02283653
H        0.66413108      -0.79895568       2.23685110
H        0.27110463       1.72981333       0.62704479
H       -0.46968080      -0.02367603      -1.74011109
H       -0.68030904       1.75829303      -1.51902051
H       -1.08071166       0.73238567       1.14445538
H       -1.60863072      -1.67705218      -0.42644109
H       -3.15694237      -0.90786203      -0.81614696
H       -2.76946227      -1.22625390       0.85879128
19
Frame=11 idx=007576 GeodesicLength=0.6401986703686703 rxn_smarts="[C:1]([C@@:2]([O:3][H:12])([C@@:4]1([H:13])[C:5]([H:14])([H:15])[C@:6]1([C:7]([H:17])([H:18])[H:19])[H:16])[H:11])([H:8])([H:9])[H:10]>>[C:1]([C@@:2]([O:3][H:12])([C:4]([C:5]([C:6][C:7]([H:17])([H:18])[H:19])([H:14])[H:15])([H:13])[H:16])[H:11])([H:8])([H:9])[H:10]"
C        2.36966036       0.23534248      -0.27476239
C        1.11666166      -0.25767160       0.42056491
O        1.45305737      -0.46476396       1.78441016
C       -0.03326079       0.72643446       0.30179937
C       -0.73321316       0.76790058      -1.05043057
C       -1.82737431       0.47745760      -0.10304644
C       -2.34939896      -0.91803087      -0.09378247
H        2.19975467       0.37865676      -1.34237443
H        3.17799220      -0.48329260      -0.13862238
H        2.68713081       1.18878230       0.15255514
H        0.82881987      -1.21884458      -0.02814803
H        0.67457531      -0.80225904       2.23291134
H        0.27039662       1.72083434       0.62809232
H       -0.46998901      -0.04133064      -1.73647521
H       -0.66578602       1.74333149      -1.52008807
H       -1.09555998       0.73838170       1.15625188
H       -1.63431964      -1.68252519      -0.42136618
H       -3.17039496      -0.89186827      -0.82248465
H       -2.79875204      -1.21653496       0.85499569
19
Frame=12 idx=007576 GeodesicLength=0.6986112358744179 rxn_smarts="[C:1]([C@@:2]([O:3][H:12])([C@@:4]1([H:13])[C:5]([H:14])([H:15])[C@:6]1([C:7]([H:17])([H:18])[H:19])[H:16])[H:11])([H:8])([H:9])[H:10]>>[C:1]([C@@:2]([O:3][H:12])([C:4]([C:5]([C:6][C:7]([H:17])([H:18])[H:19])([H:14])[H:15])([H:13])[H:16])[H:11])([H:8])([H:9])[H:10]"
C        2.37633989       0.24646729      -0.27535301
C        1.12740879      -0.25884628       0.41826141
O        1.46483772      -0.46883944       1.78155884
C       -0.03156525       0.71562422       0.30488357
C       -0.72768269       0.75404772      -1.04950213
C       -1.82226662       0.47055502      -0.10089816
C       -2.36811655      -0.91418503      -0.09456444
H        2.20596548       0.39127922      -1.34269557
H        3.19079341      -0.46545280      -0.14031089
H        2.68559885       1.20161468       0.15421199
H        0.84904164      -1.22152609      -0.03358687
H        0.68535361      -0.80570443       2.22891468
H        0.26962034       1.71152034       0.62920261
H       -0.47032450      -0.05950300      -1.73260942
H       -0.65127752       1.72776760      -1.52111179
H       -1.11075891       0.74467459       1.16792063
H       -1.66070515      -1.68790070      -0.41638384
H       -3.18383944      -0.87531292      -0.82892332
H       -2.82842311      -1.20627996       0.85098569
19
Frame=13 idx=007576 GeodesicLength=0.7570512951480523 rxn_smarts="[C:1]([C@@:2]([O:3][H:12])([C@@:4]1([H:13])[C:5]([H:14])([H:15])[C@:6]1([C:7]([H:17])([H:18])[H:19])[H:16])[H:11])([H:8])([H:9])[H:10]>>[C:1]([C@@:2]([O:3][H:12])([C:4]([C:5]([C:6][C:7]([H:17])([H:18])[H:19])([H:14])[H:15])([H:13])[H:16])[H:11])([H:8])([H:9])[H:10]"
C        2.38307148       0.25784420      -0.27591575
C        1.13843635      -0.26008064       0.41591754
O        1.47693646      -0.47298767       1.77864836
C       -0.02971200       0.70441476       0.30800327
C       -0.72213361       0.73969704      -1.04844926
C       -1.81703631       0.46325577      -0.09850696
C       -2.38711775      -0.91007644      -0.09543661
H        2.21213179       0.40421693      -1.34296324
H        3.20374556      -0.44713575      -0.14201752
H        2.68390029       1.21464504       0.15599393
H        0.86984138      -1.22420411      -0.03914759
H        0.69648994      -0.80929610       2.22486908
H        0.26877378       1.70185727       0.63038266
H       -0.47068203      -0.07821294      -1.72849796
H       -0.63679057       1.71158406      -1.52208475
H       -1.12632698       0.75129015       1.17944037
H       -1.68781021      -1.69316381      -0.41152073
H       -3.19726006      -0.85817352      -0.83546184
H       -2.85845752      -1.19547422       0.84674699
19
Frame=14 idx=007576 GeodesicLength=0.8155224304275432 rxn_smarts="[C:1]([C@@:2]([O:3][H:12])([C@@:4]1([H:13])[C:5]([H:14])([H:15])[C@:6]1([C:7]([H:17])([H:18])[H:19])[H:16])[H:11])([H:8])([H:9])[H:10]>>[C:1]([C@@:2]([O:3][H:12])([C:4]([C:5]([C:6][C:7]([H:17])([H:18])[H:19])([H:14])[H:15])([H:13])[H:16])[H:11])([H:8])([H:9])[H:10]"
C        2.38984496       0.26947906      -0.27645253
C        1.14975233      -0.26137625       0.41353690
O        1.48937527      -0.47720637       1.77567926
C       -0.02769403       0.69278855       0.31116754
C       -0.71656580       0.72482531      -1.04725989
C       -1.81167591       0.45552290      -0.09585841
C       -2.40640335      -0.90569305      -0.09641051
H        2.21823290       0.41747384      -1.34317753
H        3.21684102      -0.42832371      -0.14374776
H        2.68202038       1.22787522       0.15789776
H        0.89123194      -1.22687189      -0.04482581
H        0.70801238      -0.81303708       2.22078349
H        0.26785537       1.69182810       0.63164045
H       -0.47105419      -0.09748375      -1.72412301
H       -0.62233803       1.69475915      -1.52299621
H       -1.14228582       0.75825584       1.19078930
H       -1.71565799      -1.69830268      -0.40680437
H       -3.21064062      -0.84041818      -0.84210809
H       -2.88885081      -1.18409503       0.84226942
19
Frame=15 idx=007576 GeodesicLength=0.8740151473962785 rxn_smarts="[C:1]([C@@:2]([O:3][H:12])([C@@:4]1([H:13])[C:5]([H:14])([H:15])[C@:6]1([C:7]([H:17])([H:18])[H:19])[H:16])[H:11])([H:8])([H:9])[H:10]>>[C:1]([C@@:2]([O:3][H:12])([C:4]([C:5]([C:6][C:7]([H:17])([H:18])[H:19])([H:14])[H:15])([H:13])[H:16])[H:11])([H:8])([H:9])[H:10]"
C        2.39664743       0.28137566      -0.27696489
C        1.16136257      -0.26273351       0.41112416
O        1.50217371      -0.48149261       1.77265317
C       -0.02550667       0.68072825       0.31438688
C       -0.71097909       0.70941077      -1.04592187
C       -1.80618100       0.44732285      -0.09293897
C       -2.42596822      -0.90102372      -0.09749823
H        2.22424608       0.43105207      -1.34333799
H        3.23006725      -0.40900234      -0.14550762
H        2.67994192       1.24130415       0.15992118
H        0.91322419      -1.22952128      -0.05061645
H        0.71994750      -0.81693103       2.21666736
H        0.26686313       1.68141673       0.63298456
H       -0.47143372      -0.11733836      -1.71946618
H       -0.60792979       1.67727338      -1.52383644
H       -1.15865730       0.76560276       1.20193931
H       -1.74427262      -1.70330086      -0.40226908
H       -3.22396611      -0.82201748      -0.84885975
H       -2.91957928      -1.17212544       0.83754086
19
Frame=16 idx=007576 GeodesicLength=0.9325259926261509 rxn_smarts="[C:1]([C@@:2]([O:3][H:12])([C@@:4]1([H:13])[C:5]([H:14])([H:15])[C@:6]1([C:7]([H:17])([H:18])[H:19])[H:16])[H:11])([H:8])([H:9])[H:10]>>[C:1]([C@@:2]([O:3][H:12])([C:4]([C:5]([C:6][C:7]([H:17])([H:18])[H:19])([H:14])[H:15])([H:13])[H:16])[H:11])([H:8])([H:9])[H:10]"
C        2.40346558       0.29353905      -0.27745474
C        1.17327396      -0.26415331       0.40868382
O        1.51535361      -0.48584320       1.76957131
C       -0.02314341       0.66821535       0.31767282
C       -0.70537380       0.69342922      -1.04442060
C       -1.80054484       0.43861499      -0.08973055
C       -2.44580833      -0.89605694      -0.09871092
H        2.23014686       0.44495440      -1.34344455
H        3.24341164      -0.38915564      -0.14730488
H        2.67764768       1.25493105       0.16206112
H        0.93582921      -1.23214396      -0.05651448
H        0.73232419      -0.82098074       2.21253098
H        0.26579538       1.67060534       0.63442445
H       -0.47181319      -0.13780116      -1.71450711
H       -0.59357950       1.65910422      -1.52459300
H       -1.17546566       0.77336525       1.21285913
H       -1.77367703      -1.70814299      -0.39795438
H       -3.23721672      -0.80293733      -0.85572080
H       -2.95062564      -1.15954359       0.83255237
