14
Frame=0 idx=010157 GeodesicLength=0.0 rxn_smarts="[O:1]([C@@:2]1([H:9])[C@@:3]2([H:10])[C@@:4]3([H:11])[C:5]([H:12])([H:13])[C@:6]1([H:14])[N:7]23)[H:8]>>[O:1]([C:2][C@@:3]1([H:10])[C@@:4]2([H:11])[C:5]([H:12])([H:13])[C:6]([H:9])([H:14])[N:7]12)[H:8]"
O        1.72518397      -0.13746450      -1.25486333
C        1.47139229       0.03372195       0.05606766
C        0.48504524       1.10783764       0.31595187
C       -0.93277959       0.91386083      -0.08076572
C       -1.17907875      -0.53586022      -0.43497036
C       -0.34398836      -0.81783892       0.79185438
N       -0.48004564       0.56248984       1.30222552
H        2.49691020      -0.70212690      -1.34756224
H        1.06478118      -0.92576978       0.68561407
H        0.84206771       2.12503455       0.43247099
H       -1.59139483       1.75348450      -0.25790874
H       -0.84442407      -0.90870663      -1.40528857
H       -2.22203219      -0.80708956      -0.26458571
H       -0.49163717      -1.66157285       1.46176019
14
Frame=1 idx=010157 GeodesicLength=0.05647934362441463 rxn_smarts="[O:1]([C@@:2]1([H:9])[C@@:3]2([H:10])[C@@:4]3([H:11])[C:5]([H:12])([H:13])[C@:6]1([H:14])[N:7]23)[H:8]>>[O:1]([C:2][C@@:3]1([H:10])[C@@:4]2([H:11])[C:5]([H:12])([H:13])[C:6]([H:9])([H:14])[N:7]12)[H:8]"
O        1.73436689      -0.13263507      -1.26148814
C        1.46168956       0.02432249       0.04743512
C        0.48575564       1.10660295       0.31050899
C       -0.93424189       0.91296298      -0.07963949
C       -1.18403861      -0.53666175      -0.43254961
C       -0.34221372      -0.82026197       0.79111700
N       -0.47671019       0.56362246       1.30097960
H        2.51958968      -0.67909529      -1.34915065
H        1.06813624      -0.94202726       0.70185073
H        0.84636372       2.12253871       0.42555124
H       -1.59093448       1.75420330      -0.25664523
H       -0.85354051      -0.90966347      -1.40398509
H       -2.22675386      -0.80642673      -0.25901716
H       -0.50746849      -1.65748135       1.46503269
14
Frame=2 idx=010157 GeodesicLength=0.11296821952194373 rxn_smarts="[O:1]([C@@:2]1([H:9])[C@@:3]2([H:10])[C@@:4]3([H:11])[C:5]([H:12])([H:13])[C@:6]1([H:14])[N:7]23)[H:8]>>[O:1]([C:2][C@@:3]1([H:10])[C@@:4]2([H:11])[C:5]([H:12])([H:13])[C:6]([H:9])([H:14])[N:7]12)[H:8]"
O        1.74389540      -0.12765519      -1.26809729
C        1.45174237       0.01453875       0.03835474
C        0.48654475       1.10515558       0.30482242
C       -0.93568191       0.91201834      -0.07854633
C       -1.18922766      -0.53748865      -0.43004571
C       -0.34046470      -0.82282896       0.79028637
N       -0.47321568       0.56466602       1.29961807
H        2.54239668      -0.65534493      -1.34996467
H        1.07125897      -0.95817922       0.71818114
H        0.85088574       2.11975443       0.41843581
H       -1.59037496       1.75494074      -0.25535076
H       -0.86303292      -0.91066459      -1.40262541
H       -2.23169303      -0.80566152      -0.25318548
H       -0.52303305      -1.65325079       1.46811710
14
Frame=3 idx=010157 GeodesicLength=0.16943568057163605 rxn_smarts="[O:1]([C@@:2]1([H:9])[C@@:3]2([H:10])[C@@:4]3([H:11])[C:5]([H:12])([H:13])[C@:6]1([H:14])[N:7]23)[H:8]>>[O:1]([C:2][C@@:3]1([H:10])[C@@:4]2([H:11])[C:5]([H:12])([H:13])[C:6]([H:9])([H:14])[N:7]12)[H:8]"
O        1.75379942      -0.12246065      -1.27465842
C        1.44156227       0.00443978       0.02880700
C        0.48740129       1.10352100       0.29890045
C       -0.93710314       0.91103224      -0.07748188
C       -1.19461859      -0.53833366      -0.42747387
C       -0.33871243      -0.82553682       0.78933969
N       -0.46955959       0.56561160       1.29813867
H        2.56513589      -0.63110581      -1.34993863
H        1.07418072      -0.97417569       0.73457558
H        0.85559351       2.11671353       0.41115927
H       -1.58973473       1.75569188      -0.25401333
H       -0.87287301      -0.91168240      -1.40123004
H       -2.23681417      -0.80480988      -0.24711093
H       -0.53825745      -1.64890511       1.47098645
14
Frame=4 idx=010157 GeodesicLength=0.22584467831047517 rxn_smarts="[O:1]([C@@:2]1([H:9])[C@@:3]2([H:10])[C@@:4]3([H:11])[C:5]([H:12])([H:13])[C@:6]1([H:14])[N:7]23)[H:8]>>[O:1]([C:2][C@@:3]1([H:10])[C@@:4]2([H:11])[C:5]([H:12])([H:13])[C:6]([H:9])([H:14])[N:7]12)[H:8]"
O        1.76410946      -0.11697218      -1.28113052
C        1.43116411      -0.00588624       0.01877638
C        0.48830899       1.10173505       0.29275693
C       -0.93851345       0.91001094      -0.07643839
C       -1.20017882      -0.53918780      -0.42485330
C       -0.33692149      -0.82837836       0.78824969
N       -0.46574219       0.56644986       1.29654123
H        2.58759879      -0.60667870      -1.34901668
H        1.07694142      -0.98995498       0.75099980
H        0.86043529       2.11345946       0.40376616
H       -1.58904274       1.75644766      -0.25261367
H       -0.88302409      -0.91268119      -1.39982454
H       -2.24207563      -0.80389472      -0.24082064
H       -0.55305964      -1.64446881       1.47360755
14
Frame=5 idx=010157 GeodesicLength=0.2821713626630746 rxn_smarts="[O:1]([C@@:2]1([H:9])[C@@:3]2([H:10])[C@@:4]3([H:11])[C:5]([H:12])([H:13])[C@:6]1([H:14])[N:7]23)[H:8]>>[O:1]([C:2][C@@:3]1([H:10])[C@@:4]2([H:11])[C:5]([H:12])([H:13])[C:6]([H:9])([H:14])[N:7]12)[H:8]"
O        1.77485596      -0.11109405      -1.28746859
C        1.42057093      -0.01632928       0.00825302
C        0.48924701       1.09985111       0.28641403
C       -0.93992525       0.90896468      -0.07540408
C       -1.20587024      -0.54004364      -0.42220829
C       -0.33505163      -0.83134396       0.78698709
N       -0.46176994       0.56717377       1.29483191
H        2.60956978      -0.58244429      -1.34716715
H        1.07958663      -1.00544430       0.76742306
H        0.86534899       2.11005937       0.39631451
H       -1.58833860       1.75720001      -0.25112622
H       -0.89343836      -0.91362073      -1.39844283
H       -2.24743124      -0.80295264      -0.23435000
H       -0.56735404      -1.63997606       1.47594354
14
Frame=6 idx=010157 GeodesicLength=0.3384617871798613 rxn_smarts="[O:1]([C@@:2]1([H:9])[C@@:3]2([H:10])[C@@:4]3([H:11])[C:5]([H:12])([H:13])[C@:6]1([H:14])[N:7]23)[H:8]>>[O:1]([C:2][C@@:3]1([H:10])[C@@:4]2([H:11])[C:5]([H:12])([H:13])[C:6]([H:9])([H:14])[N:7]12)[H:8]"
O        1.78607733      -0.10471823      -1.29363803
C        1.40979857      -0.02675449      -0.00276543
C        0.49017763       1.09794532       0.27990606
C       -0.94135857       0.90791407      -0.07436071
C       -1.21164595      -0.54089484      -0.41956679
C       -0.33305669      -0.83442173       0.78552270
N       -0.45765725       0.56778451       1.29302508
H        2.63085155      -0.55888226      -1.34440324
H        1.08216776      -1.02057297       0.78383495
H        0.87024617       2.10661138       0.38888355
H       -1.58767540       1.75795162      -0.24951694
H       -0.90405647      -0.91445856      -1.39712447
H       -2.25281883      -0.80203283      -0.22774333
H       -0.58104985      -1.63547099       1.47794660
14
Frame=7 idx=010157 GeodesicLength=0.3946965773262019 rxn_smarts="[O:1]([C@@:2]1([H:9])[C@@:3]2([H:10])[C@@:4]3([H:11])[C:5]([H:12])([H:13])[C@:6]1([H:14])[N:7]23)[H:8]>>[O:1]([C:2][C@@:3]1([H:10])[C@@:4]2([H:11])[C:5]([H:12])([H:13])[C:6]([H:9])([H:14])[N:7]12)[H:8]"
O        1.79770847      -0.09775888      -1.29955676
C        1.39888316      -0.03721279      -0.01427632
C        0.49112813       1.09594522       0.27321138
C       -0.94278247       0.90683269      -0.07333388
C       -1.21747609      -0.54173606      -0.41690661
C       -0.33094251      -0.83760971       0.78388066
N       -0.45340926       0.56827514       1.29109629
H        2.65134422      -0.53579708      -1.34075528
H        1.08469568      -1.03542241       0.80022400
H        0.87515750       2.10302868       0.38142381
H       -1.58700523       1.75867894      -0.24785348
H       -0.91485205      -0.91523471      -1.39581874
H       -2.25821886      -0.80108110      -0.22098356
H       -0.59423069      -1.63090794       1.47964850
14
Frame=8 idx=010157 GeodesicLength=0.45074398450751235 rxn_smarts="[O:1]([C@@:2]1([H:9])[C@@:3]2([H:10])[C@@:4]3([H:11])[C:5]([H:12])([H:13])[C@:6]1([H:14])[N:7]23)[H:8]>>[O:1]([C:2][C@@:3]1([H:10])[C@@:4]2([H:11])[C:5]([H:12])([H:13])[C:6]([H:9])([H:14])[N:7]12)[H:8]"
O        1.80988022      -0.09020478      -1.30520142
C        1.38777251      -0.04742521      -0.02632536
C        0.49200173       1.09402851       0.26637624
C       -0.94428911       0.90575744      -0.07224878
C       -1.22337942      -0.54254596      -0.41427257
C       -0.32864004      -0.84086455       0.78195090
N       -0.44901694       0.56863993       1.28906621
H        2.67113237      -0.51411988      -1.33611647
H        1.08722418      -1.04975885       0.81644227
H        0.87991323       2.09951154       0.37406735
H       -1.58649312       1.75936255      -0.24594880
H       -0.92585548      -0.91580639      -1.39461342
H       -2.26361251      -0.80021454      -0.21410253
H       -0.60663763      -1.62635981       1.48092638
14
Frame=9 idx=010157 GeodesicLength=0.5067791247317412 rxn_smarts="[O:1]([C@@:2]1([H:9])[C@@:3]2([H:10])[C@@:4]3([H:11])[C:5]([H:12])([H:13])[C@:6]1([H:14])[N:7]23)[H:8]>>[O:1]([C:2][C@@:3]1([H:10])[C@@:4]2([H:11])[C:5]([H:12])([H:13])[C:6]([H:9])([H:14])[N:7]12)[H:8]"
O        1.82245126      -0.08214618      -1.31052993
C        1.37654538      -0.05757675      -0.03885583
C        0.49287619       1.09208649       0.25936478
C       -0.94579519       0.90468010      -0.07117224
C       -1.22931729      -0.54334467      -0.41163808
C       -0.32619785      -0.84422848       0.77982692
N       -0.44448641       0.56889388       1.28692930
H        2.69008251      -0.49309549      -1.33065033
H        1.08972140      -1.06380083       0.83263502
H        0.88463871       2.09596047       0.36670408
H       -1.58600870       1.76004758      -0.24396959
H       -0.93703046      -0.91628905      -1.39345547
H       -2.26898877      -0.79935235      -0.20709278
H       -0.61849079      -1.62183474       1.48190414
14
Frame=10 idx=010157 GeodesicLength=0.5627302754598468 rxn_smarts="[O:1]([C@@:2]1([H:9])[C@@:3]2([H:10])[C@@:4]3([H:11])[C:5]([H:12])([H:13])[C@:6]1([H:14])[N:7]23)[H:8]>>[O:1]([C:2][C@@:3]1([H:10])[C@@:4]2([H:11])[C:5]([H:12])([H:13])[C:6]([H:9])([H:14])[N:7]12)[H:8]"
O        1.83552338      -0.07350915      -1.31549329
C        1.36513895      -0.06748309      -0.05195180
C        0.49367407       1.09021045       0.25218635
C       -0.94737808       0.90361206      -0.07004479
C       -1.23531944      -0.54411046      -0.40901226
C       -0.32357043      -0.84766066       0.77742532
N       -0.43980925       0.56903153       1.28468649
H        2.70839153      -0.47335299      -1.32424470
H        1.09222597      -1.07743225       0.84864390
H        0.88920744       2.09246407       0.35939009
H       -1.58567659       1.76070288      -0.24177111
H       -0.94842666      -0.91659548      -1.39237699
H       -2.27434933      -0.79854989      -0.19992974
H       -0.62963156      -1.61732701       1.48249253
14
Frame=11 idx=010157 GeodesicLength=0.6186198315021257 rxn_smarts="[O:1]([C@@:2]1([H:9])[C@@:3]2([H:10])[C@@:4]3([H:11])[C:5]([H:12])([H:13])[C@:6]1([H:14])[N:7]23)[H:8]>>[O:1]([C:2][C@@:3]1([H:10])[C@@:4]2([H:11])[C:5]([H:12])([H:13])[C:6]([H:9])([H:14])[N:7]12)[H:8]"
O        1.84904964      -0.06440122      -1.32005745
C        1.35355744      -0.07720853      -0.06566994
C        0.49441717       1.08836228       0.24478702
C       -0.94903001       0.90255795      -0.06888111
C       -1.24142362      -0.54484118      -0.40637232
C       -0.32077607      -0.85118054       0.77475153
N       -0.43495940       0.56905046       1.28232564
H        2.72621574      -0.45456511      -1.31680935
H        1.09471752      -1.09074051       0.86443675
H        0.89366585       2.08899107       0.35202525
H       -1.58547370       1.76135929      -0.23936327
H       -0.96011967      -0.91674684      -1.39136101
H       -2.27973725      -0.79776760      -0.19255498
H       -0.64010363      -1.61286951       1.48274323
14
Frame=12 idx=010157 GeodesicLength=0.6744541662089095 rxn_smarts="[O:1]([C@@:2]1([H:9])[C@@:3]2([H:10])[C@@:4]3([H:11])[C:5]([H:12])([H:13])[C@:6]1([H:14])[N:7]23)[H:8]>>[O:1]([C:2][C@@:3]1([H:10])[C@@:4]2([H:11])[C:5]([H:12])([H:13])[C:6]([H:9])([H:14])[N:7]12)[H:8]"
O        1.86305224      -0.05494319      -1.32418796
C        1.34176618      -0.08675917      -0.08005083
C        0.49509916       1.08652831       0.23713024
C       -0.95075745       0.90151156      -0.06767364
C       -1.24766477      -0.54553162      -0.40369792
C       -0.31782449      -0.85477985       0.77178556
N       -0.42990514       0.56895158       1.27982658
H        2.74372561      -0.43656345      -1.30828325
H        1.09718318      -1.10376912       0.87996505
H        0.89802193       2.08551876       0.34454867
H       -1.58540588       1.76200673      -0.23670533
H       -0.97218957      -0.91674127      -1.39038531
H       -2.28517644      -0.79698896      -0.18492064
H       -0.64992456      -1.60844030       1.48264879
14
Frame=13 idx=010157 GeodesicLength=0.7302600848988805 rxn_smarts="[O:1]([C@@:2]1([H:9])[C@@:3]2([H:10])[C@@:4]3([H:11])[C:5]([H:12])([H:13])[C@:6]1([H:14])[N:7]23)[H:8]>>[O:1]([C:2][C@@:3]1([H:10])[C@@:4]2([H:11])[C:5]([H:12])([H:13])[C:6]([H:9])([H:14])[N:7]12)[H:8]"
O        1.87752066      -0.04523347      -1.32786715
C        1.32975418      -0.09616592      -0.09514216
C        0.49572335       1.08469455       0.22917698
C       -0.95256386       0.90048150      -0.06642454
C       -1.25407091      -0.54618015      -0.40097566
C       -0.31472075      -0.85847162       0.76851959
N       -0.42462273       0.56873670       1.27718348
H        2.76104684      -0.41915696      -1.29858524
H        1.09961236      -1.11657821       0.89520381
H        0.90229311       2.08203792       0.33688978
H       -1.58547473       1.76267071      -0.23378230
H       -0.98469947      -0.91658745      -1.38944718
H       -2.29069252      -0.79619132      -0.17698100
H       -0.65910553      -1.60405628       1.48223161
14
Frame=14 idx=010157 GeodesicLength=0.78608354533458 rxn_smarts="[O:1]([C@@:2]1([H:9])[C@@:3]2([H:10])[C@@:4]3([H:11])[C:5]([H:12])([H:13])[C@:6]1([H:14])[N:7]23)[H:8]>>[O:1]([C:2][C@@:3]1([H:10])[C@@:4]2([H:11])[C:5]([H:12])([H:13])[C:6]([H:9])([H:14])[N:7]12)[H:8]"
O        1.89245778      -0.03529874      -1.33104447
C        1.31748712      -0.10540676      -0.11103275
C        0.49629333       1.08285539       0.22087922
C       -0.95444481       0.89946311      -0.06512755
C       -1.26066830      -0.54678715      -0.39818399
C       -0.31146452      -0.86225886       0.76491747
N       -0.41907659       0.56839465       1.27436890
H        2.77824704      -0.40225718      -1.28757022
H        1.10200370      -1.12920658       0.91010448
H        0.90649741       2.07853742       0.32897799
H       -1.58566203       1.76334519      -0.23056908
H       -0.99772040      -0.91628187      -1.38852451
H       -2.29629972      -0.79537361      -0.16867227
H       -0.66765001      -1.59972500       1.48147678
14
Frame=15 idx=010157 GeodesicLength=0.8417979501612078 rxn_smarts="[O:1]([C@@:2]1([H:9])[C@@:3]2([H:10])[C@@:4]3([H:11])[C:5]([H:12])([H:13])[C@:6]1([H:14])[N:7]23)[H:8]>>[O:1]([C:2][C@@:3]1([H:10])[C@@:4]2([H:11])[C:5]([H:12])([H:13])[C:6]([H:9])([H:14])[N:7]12)[H:8]"
O        1.90784209      -0.02520990      -1.33366069
C        1.30499557      -0.11441655      -0.12766077
C        0.49678247       1.08104008       0.21226807
C       -0.95641488       0.89845507      -0.06377434
C       -1.26741207      -0.54733222      -0.39534041
C       -0.30801693      -0.86610963       0.76095576
N       -0.41328064       0.56792612       1.27137394
H        2.79518700      -0.38603492      -1.27532512
H        1.10439662      -1.14161347       0.92466931
H        0.91057190       2.07504576       0.32086851
H       -1.58600923       1.76400782      -0.22705910
H       -1.01119443      -0.91578789      -1.38761901
H       -2.30194479      -0.79454348      -0.16004259
H       -0.67550268      -1.59542680       1.48034645
14
Frame=16 idx=010157 GeodesicLength=0.8975314265584785 rxn_smarts="[O:1]([C@@:2]1([H:9])[C@@:3]2([H:10])[C@@:4]3([H:11])[C:5]([H:12])([H:13])[C@:6]1([H:14])[N:7]23)[H:8]>>[O:1]([C:2][C@@:3]1([H:10])[C@@:4]2([H:11])[C:5]([H:12])([H:13])[C:6]([H:9])([H:14])[N:7]12)[H:8]"
O        1.92369824      -0.01497665      -1.33568677
C        1.29224505      -0.12317613      -0.14514008
C        0.49718639       1.07927150       0.20329061
C       -0.95847945       0.89747903      -0.06235983
C       -1.27433022      -0.54782365      -0.39243630
C       -0.30436867      -0.87004668       0.75660606
N       -0.40719819       0.56733324       1.26819834
H        2.81193339      -0.37046633      -1.26167850
H        1.10679714      -1.15385775       0.93886558
H        0.91452111       2.07160477       0.31248334
H       -1.58652103       1.76469781      -0.22321349
H       -1.02519622      -0.91511250      -1.38674778
H       -2.30764197      -0.79371306      -0.15102992
H       -0.68264555      -1.59121361       1.47884873
