17
Frame=0 idx=010892 GeodesicLength=0.0 rxn_smarts="[C:1]1([H:8])([H:9])[C@@:2]2([H:10])[C:3]([H:11])([H:12])[C@:4]3([H:13])[C:5]([H:14])([H:15])[C@@:6]2([H:16])[C@:7]13[H:17]>>[C:1]1([H:8])([H:9])[C:2]([H:10])([H:16])[C:3]([H:11])([H:12])[C@:4]2([H:13])[C:5]([H:14])([H:15])[C:6][C@:7]12[H:17]"
C        1.44514764      -0.76011325      -0.09668355
C        1.08851739       0.69976043       0.13241210
C        0.02549950       1.00152564      -0.89173999
C       -0.93398784      -0.16263383      -0.63282345
C       -1.58320460       0.13177934       0.72545777
C       -0.31306264      -0.34190397       1.41393000
C        0.00570880      -1.16482789       0.12856564
H        1.88311274      -0.97427773      -1.07606026
H        2.08788222      -1.15959406       0.68981075
H        1.84905921       1.45045019       0.34587858
H        0.45771466       0.95193853      -1.89587898
H       -0.44555063       1.97941357      -0.77494655
H       -1.53928340      -0.47738285      -1.48606541
H       -1.99835778       1.11843872       0.94148124
H       -2.33426533      -0.62964949       0.96071252
H        0.59240698       0.54998138       1.37338093
H       -0.28733686      -2.21290479       0.14256871
17
Frame=1 idx=010892 GeodesicLength=0.052395302609945495 rxn_smarts="[C:1]1([H:8])([H:9])[C@@:2]2([H:10])[C:3]([H:11])([H:12])[C@:4]3([H:13])[C:5]([H:14])([H:15])[C@@:6]2([H:16])[C@:7]13[H:17]>>[C:1]1([H:8])([H:9])[C:2]([H:10])([H:16])[C:3]([H:11])([H:12])[C@:4]2([H:13])[C:5]([H:14])([H:15])[C:6][C@:7]12[H:17]"
C        1.44427444      -0.75960946      -0.09563995
C        1.08589737       0.70041916       0.13730834
C        0.02565227       1.00158602      -0.89250653
C       -0.93448566      -0.16228636      -0.63409173
C       -1.58488206       0.13021644       0.72458633
C       -0.31376976      -0.34295922       1.40970058
C        0.00365389      -1.16652552       0.12666288
H        1.88197571      -0.97287384      -1.07516116
H        2.08705284      -1.16115492       0.68971199
H        1.85239573       1.44892380       0.33653576
H        0.45930630       0.95113894      -1.89585479
H       -0.44599353       1.97950450      -0.77831987
H       -1.54070380      -0.47663169      -1.48647311
H       -1.99955811       1.11687703       0.94187130
H       -2.33653138      -0.63036898       0.96115955
H        0.60106442       0.55947153       1.39213821
H       -0.28534866      -2.21572744       0.13837222
17
Frame=2 idx=010892 GeodesicLength=0.1047845849274327 rxn_smarts="[C:1]1([H:8])([H:9])[C@@:2]2([H:10])[C:3]([H:11])([H:12])[C@:4]3([H:13])[C:5]([H:14])([H:15])[C@@:6]2([H:16])[C@:7]13[H:17]>>[C:1]1([H:8])([H:9])[C:2]([H:10])([H:16])[C:3]([H:11])([H:12])[C@:4]2([H:13])[C:5]([H:14])([H:15])[C:6][C@:7]12[H:17]"
C        1.44337727      -0.75909535      -0.09463712
C        1.08324406       0.70108963       0.14225888
C        0.02582796       1.00162989      -0.89330078
C       -0.93499163      -0.16194016      -0.63539027
C       -1.58654434       0.12865444       0.72369862
C       -0.31440137      -0.34389327       1.40544030
C        0.00157782      -1.16823376       0.12473675
H        1.88082204      -0.97144243      -1.07430090
H        2.08621444      -1.16270873       0.68955292
H        1.85549735       1.44727803       0.32737430
H        0.46094184       0.95032062      -1.89584368
H       -0.44640617       1.97957748      -0.78173752
H       -1.54213862      -0.47587620      -1.48690500
H       -2.00074703       1.11531715       0.94222876
H       -2.33873677      -0.63110130       0.96167174
H        0.60982593       0.56896492       1.41091512
H       -0.28336279      -2.21854097       0.13423789
17
Frame=3 idx=010892 GeodesicLength=0.15716834355547182 rxn_smarts="[C:1]1([H:8])([H:9])[C@@:2]2([H:10])[C:3]([H:11])([H:12])[C@:4]3([H:13])[C:5]([H:14])([H:15])[C@@:6]2([H:16])[C@:7]13[H:17]>>[C:1]1([H:8])([H:9])[C:2]([H:10])([H:16])[C:3]([H:11])([H:12])[C@:4]2([H:13])[C:5]([H:14])([H:15])[C:6][C@:7]12[H:17]"
C        1.44245701      -0.75857192      -0.09367366
C        1.08056003       0.70177093       0.14725670
C        0.02602541       1.00165704      -0.89412282
C       -0.93550556      -0.16159544      -0.63671768
C       -1.58819216       0.12709312       0.72279529
C       -0.31496461      -0.34471687       1.40115201
C       -0.00051853      -1.16995161       0.12278852
H        1.87965208      -0.96998796      -1.07347764
H        2.08536678      -1.16425368       0.68933705
H        1.85836727       1.44551917       0.31839765
H        0.46261689       0.94948300      -1.89584715
H       -0.44678884       1.97963249      -0.78519865
H       -1.54358785      -0.47511717      -1.48735943
H       -2.00192247       1.11375953       0.94255642
H       -2.34088608      -0.63184423       0.96224483
H        0.61869823       0.57846899       1.42970961
H       -0.28137760      -2.22134538       0.13015896
17
Frame=4 idx=010892 GeodesicLength=0.20954838558898073 rxn_smarts="[C:1]1([H:8])([H:9])[C@@:2]2([H:10])[C:3]([H:11])([H:12])[C@:4]3([H:13])[C:5]([H:14])([H:15])[C@@:6]2([H:16])[C@:7]13[H:17]>>[C:1]1([H:8])([H:9])[C:2]([H:10])([H:16])[C:3]([H:11])([H:12])[C@:4]2([H:13])[C:5]([H:14])([H:15])[C:6][C@:7]12[H:17]"
C        1.44151437      -0.75804022      -0.09274808
C        1.07784733       0.70246197       0.15229544
C        0.02624332       1.00166721      -0.89497254
C       -0.93602744      -0.16125248      -0.63807269
C       -1.58982640       0.12553203       0.72187684
C       -0.31546657      -0.34544086       1.39683830
C       -0.00263445      -1.17167838       0.12081911
H        1.87846628      -0.96851450      -1.07268935
H        2.08450945      -1.16578826       0.68906797
H        1.86100896       1.44365324       0.30960881
H        0.46432734       0.94862560      -1.89586639
H       -0.44714200       1.97966944      -0.78870237
H       -1.54505154      -0.47435530      -1.48783508
H       -2.00308243       1.11220444       0.94285719
H       -2.34298396      -0.63259585       0.96287445
H        0.62768941       0.58799270       1.44851964
H       -0.27939169      -2.22414079       0.12612876
17
Frame=5 idx=010892 GeodesicLength=0.261929316996797 rxn_smarts="[C:1]1([H:8])([H:9])[C@@:2]2([H:10])[C:3]([H:11])([H:12])[C@:4]3([H:13])[C:5]([H:14])([H:15])[C@@:6]2([H:16])[C@:7]13[H:17]>>[C:1]1([H:8])([H:9])[C:2]([H:10])([H:16])[C:3]([H:11])([H:12])[C@:4]2([H:13])[C:5]([H:14])([H:15])[C:6][C@:7]12[H:17]"
C        1.44054992      -0.75750135      -0.09185838
C        1.07510758       0.70316161       0.15736940
C        0.02648035       1.00166010      -0.89584971
C       -0.93655735      -0.16091166      -0.63945409
C       -1.59144798       0.12397061       0.72094387
C       -0.31591467      -0.34607651       1.39250131
C       -0.00476941      -1.17341371       0.11882906
H        1.87726539      -0.96702589      -1.07193342
H        2.08364166      -1.16731108       0.68874988
H        1.86342685       1.44168657       0.30100858
H        0.46606923       0.94774799      -1.89590228
H       -0.44746625       1.97968820      -0.79224750
H       -1.54652990      -0.47359111      -1.48833068
H       -2.00422493       1.11065196       0.94313416
H       -2.34503528      -0.63335434       0.96355600
H        0.63680855       0.59754624       1.46734419
H       -0.27740375      -2.22692763       0.12213959
17
Frame=6 idx=010892 GeodesicLength=0.3143095117667668 rxn_smarts="[C:1]1([H:8])([H:9])[C@@:2]2([H:10])[C:3]([H:11])([H:12])[C@:4]3([H:13])[C:5]([H:14])([H:15])[C@@:6]2([H:16])[C@:7]13[H:17]>>[C:1]1([H:8])([H:9])[C:2]([H:10])([H:16])[C:3]([H:11])([H:12])[C@:4]2([H:13])[C:5]([H:14])([H:15])[C:6][C@:7]12[H:17]"
C        1.43956424      -0.75695636      -0.09100302
C        1.07234235       0.70386864       0.16247307
C        0.02673520       1.00163553      -0.89675401
C       -0.93709537      -0.16057324      -0.64086090
C       -1.59305787       0.12240832       0.71999666
C       -0.31631530      -0.34663376       1.38814310
C       -0.00692287      -1.17515719       0.11681893
H        1.87604984      -0.96552565      -1.07120798
H        2.08276295      -1.16882109       0.68838617
H        1.86562491       1.43962462       0.29259860
H        0.46783887       0.94684991      -1.89595566
H       -0.44776212       1.97968875      -0.79583287
H       -1.54802298      -0.47282513      -1.48884528
H       -2.00534859       1.10910201       0.94338963
H       -2.34704429      -0.63411818       0.96428529
H        0.64606376       0.60713887       1.48618291
H       -0.27541273      -2.22970606       0.11818535
17
Frame=7 idx=010892 GeodesicLength=0.3666903291501087 rxn_smarts="[C:1]1([H:8])([H:9])[C@@:2]2([H:10])[C:3]([H:11])([H:12])[C@:4]3([H:13])[C:5]([H:14])([H:15])[C@@:6]2([H:16])[C@:7]13[H:17]>>[C:1]1([H:8])([H:9])[C:2]([H:10])([H:16])[C:3]([H:11])([H:12])[C@:4]2([H:13])[C:5]([H:14])([H:15])[C:6][C@:7]12[H:17]"
C        1.43855761      -0.75640641      -0.09018031
C        1.06955259       0.70458165       0.16760198
C        0.02700641       1.00159317      -0.89768496
C       -0.93764180      -0.16023777      -0.64229227
C       -1.59465727       0.12084442       0.71903540
C       -0.31667495      -0.34712281       1.38376509
C       -0.00909469      -1.17690898       0.11478881
H        1.87482037      -0.96401678      -1.07051076
H        2.08187252      -1.17031738       0.68798077
H        1.86760732       1.43747259       0.28438010
H        0.46963305       0.94593118      -1.89602689
H       -0.44803038       1.97967089      -0.79945720
H       -1.54953099      -0.47205773      -1.48937816
H       -2.00645197       1.10755446       0.94362628
H       -2.34901544      -0.63488611       0.96505817
H        0.65546544       0.61678230       1.50503465
H       -0.27341784      -2.23247671       0.11425929
17
Frame=8 idx=010892 GeodesicLength=0.4190730458036638 rxn_smarts="[C:1]1([H:8])([H:9])[C@@:2]2([H:10])[C:3]([H:11])([H:12])[C@:4]3([H:13])[C:5]([H:14])([H:15])[C@@:6]2([H:16])[C@:7]13[H:17]>>[C:1]1([H:8])([H:9])[C:2]([H:10])([H:16])[C:3]([H:11])([H:12])[C@:4]2([H:13])[C:5]([H:14])([H:15])[C:6][C@:7]12[H:17]"
C        1.43753038      -0.75585256      -0.08938820
C        1.06673912       0.70529984       0.17275140
C        0.02729263       1.00153258      -0.89864202
C       -0.93819694      -0.15990607      -0.64374726
C       -1.59624733       0.11927812       0.71806040
C       -0.31700047      -0.34755357       1.37936731
C       -0.01128478      -1.17866981       0.11273913
H        1.87357763      -0.96250208      -1.06983953
H        2.08096955      -1.17179879       0.68753739
H        1.86937964       1.43523697       0.27635270
H        0.47144854       0.94499179      -1.89611662
H       -0.44827172       1.97963455      -0.80311901
H       -1.55105408      -0.47128934      -1.48992876
H       -2.00753356       1.10600957       0.94384675
H       -2.35095312      -0.63565693       0.96587014
H        0.66502326       0.62648649       1.52390106
H       -0.27141876      -2.23524076       0.11035511
17
Frame=9 idx=010892 GeodesicLength=0.47104449333854803 rxn_smarts="[C:1]1([H:8])([H:9])[C@@:2]2([H:10])[C:3]([H:11])([H:12])[C@:4]3([H:13])[C:5]([H:14])([H:15])[C@@:6]2([H:16])[C@:7]13[H:17]>>[C:1]1([H:8])([H:9])[C:2]([H:10])([H:16])[C:3]([H:11])([H:12])[C@:4]2([H:13])[C:5]([H:14])([H:15])[C:6][C@:7]12[H:17]"
C        1.43650571      -0.75525646      -0.08859476
C        1.06392555       0.70603551       0.17788339
C        0.02758882       1.00146596      -0.89963516
C       -0.93874083      -0.15957607      -0.64520960
C       -1.59783174       0.11773129       0.71706744
C       -0.31728925      -0.34791086       1.37497110
C       -0.01348231      -1.18041349       0.11070545
H        1.87231340      -0.96099292      -1.06919846
H        2.08006107      -1.17329514       0.68705530
H        1.87096536       1.43300411       0.26847132
H        0.47326541       0.94404114      -1.89624661
H       -0.44850936       1.97961364      -0.80682814
H       -1.55256318      -0.47054946      -1.49047721
H       -2.00860488       1.10450258       0.94404097
H       -2.35288844      -0.63641105       0.96670841
H        0.67468064       0.63600852       1.54278937
H       -0.26939597      -2.23799731       0.10649718
17
Frame=10 idx=010892 GeodesicLength=0.5238283860243643 rxn_smarts="[C:1]1([H:8])([H:9])[C@@:2]2([H:10])[C:3]([H:11])([H:12])[C@:4]3([H:13])[C:5]([H:14])([H:15])[C@@:6]2([H:16])[C@:7]13[H:17]>>[C:1]1([H:8])([H:9])[C:2]([H:10])([H:16])[C:3]([H:11])([H:12])[C@:4]2([H:13])[C:5]([H:14])([H:15])[C:6][C@:7]12[H:17]"
C        1.43541438      -0.75473933      -0.08788775
C        1.06104558       0.70674195       0.18309623
C        0.02790484       1.00135990      -0.90063014
C       -0.93933278      -0.15925238      -0.64672777
C       -1.59940652       0.11613202       0.71606768
C       -0.31757337      -0.34827807       1.37053209
C       -0.01571751      -1.18221397       0.10857821
H        1.87105357      -0.95947129      -1.06856311
H        2.07911730      -1.17472130       0.68655457
H        1.87230833       1.43052584       0.26086950
H        0.47513117       0.94305442      -1.89634886
H       -0.44867550       1.97950853      -0.81054223
H       -1.55414267      -0.46974916      -1.49108499
H       -2.00963338       1.10291731       0.94425080
H       -2.35474511      -0.63721018       0.96759303
H        0.68465712       0.64614078       1.56165823
H       -0.26740546      -2.24074506       0.10258451
17
Frame=11 idx=010892 GeodesicLength=0.5762133155792863 rxn_smarts="[C:1]1([H:8])([H:9])[C@@:2]2([H:10])[C:3]([H:11])([H:12])[C@:4]3([H:13])[C:5]([H:14])([H:15])[C@@:6]2([H:16])[C@:7]13[H:17]>>[C:1]1([H:8])([H:9])[C:2]([H:10])([H:16])[C:3]([H:11])([H:12])[C@:4]2([H:13])[C:5]([H:14])([H:15])[C:6][C@:7]12[H:17]"
C        1.43432589      -0.75418195      -0.08717584
C        1.05816461       0.70746412       0.18828518
C        0.02822662       1.00124443      -0.90165989
C       -0.93991582      -0.15893363      -0.64825097
C       -1.60097749       0.11455138       0.71504950
C       -0.31783310      -0.34859360       1.36608560
C       -0.01796180      -1.18400205       0.10646632
H        1.86977472      -0.95795818      -1.06795412
H        2.07816787      -1.17615868       0.68602207
H        1.87347423       1.42806469       0.25341582
H        0.47699261       0.94205370      -1.89649166
H       -0.44884092       1.97941666      -0.81430185
H       -1.55571010      -0.46897863      -1.49168812
H       -2.01064497       1.10137283       0.94443819
H       -2.35660717      -0.63798802       0.96849475
H        0.69475729       0.65611683       1.58055828
H       -0.26539246      -2.24348990       0.09870673
17
Frame=12 idx=010892 GeodesicLength=0.6285999027560826 rxn_smarts="[C:1]1([H:8])([H:9])[C@@:2]2([H:10])[C:3]([H:11])([H:12])[C@:4]3([H:13])[C:5]([H:14])([H:15])[C@@:6]2([H:16])[C@:7]13[H:17]>>[C:1]1([H:8])([H:9])[C:2]([H:10])([H:16])[C:3]([H:11])([H:12])[C@:4]2([H:13])[C:5]([H:14])([H:15])[C:6][C@:7]12[H:17]"
C        1.43321649      -0.75362569      -0.08648675
C        1.05525911       0.70818400       0.19348489
C        0.02855839       1.00111047      -0.90271220
C       -0.94050913      -0.15862018      -0.64979700
C       -1.60254553       0.11296326       0.71401675
C       -0.31808282      -0.34888945       1.36162719
C       -0.02022447      -1.18580085       0.10433102
H        1.86848536      -0.95644837      -1.06736118
H        2.07719998      -1.17758234       0.68546657
H        1.87444596       1.42553507       0.24615030
H        0.47886607       0.94103312      -1.89665135
H       -0.44898271       1.97930601      -0.81809234
H       -1.55729352      -0.46820727      -1.49230990
H       -2.01163243       1.09982648       0.94461877
H       -2.35845366      -0.63876785       0.96941852
H        0.70506664       0.66621425       1.59947206
H       -0.26337372      -2.24623066       0.09482464
17
Frame=13 idx=010892 GeodesicLength=0.6809884571637619 rxn_smarts="[C:1]1([H:8])([H:9])[C@@:2]2([H:10])[C:3]([H:11])([H:12])[C@:4]3([H:13])[C:5]([H:14])([H:15])[C@@:6]2([H:16])[C@:7]13[H:17]>>[C:1]1([H:8])([H:9])[C:2]([H:10])([H:16])[C:3]([H:11])([H:12])[C@:4]2([H:13])[C:5]([H:14])([H:15])[C:6][C@:7]12[H:17]"
C        1.43208575      -0.75307182      -0.08581797
C        1.05232821       0.70889986       0.19869402
C        0.02889830       1.00095737      -0.90378519
C       -0.94111357      -0.15831281      -0.65136512
C       -1.60411234       0.11136613       0.71296894
C       -0.31832844      -0.34917517       1.35715513
C       -0.02250639      -1.18761181       0.10217158
H        1.86718647      -0.95494320      -1.06678122
H        2.07621219      -1.17899231       0.68489221
H        1.87522840       1.42294028       0.23907072
H        0.48074941       0.93999294      -1.89682628
H       -0.44910225       1.97917607      -0.82191087
H       -1.55889293      -0.46743455      -1.49295022
H       -2.01259507       1.09827722       0.94479427
H       -2.36028870      -0.63954940       0.97035917
H        0.71560046       0.67644982       1.61839944
H       -0.26134948      -2.24896862       0.09093138
17
Frame=14 idx=010892 GeodesicLength=0.7333749470953912 rxn_smarts="[C:1]1([H:8])([H:9])[C@@:2]2([H:10])[C:3]([H:11])([H:12])[C@:4]3([H:13])[C:5]([H:14])([H:15])[C@@:6]2([H:16])[C@:7]13[H:17]>>[C:1]1([H:8])([H:9])[C:2]([H:10])([H:16])[C:3]([H:11])([H:12])[C@:4]2([H:13])[C:5]([H:14])([H:15])[C:6][C@:7]12[H:17]"
C        1.43093321      -0.75252169      -0.08516765
C        1.04937102       0.70960969       0.20391141
C        0.02924502       1.00078489      -0.90487750
C       -0.94172978      -0.15801210      -0.65295538
C       -1.60567981       0.10975855       0.71190543
C       -0.31857511      -0.34945909       1.35266958
C       -0.02480817      -1.18943608       0.09998681
H        1.86587867      -0.95344417      -1.06621198
H        2.07520304      -1.18038924       0.68430238
H        1.87582563       1.42028340       0.23217580
H        0.48264103       0.93893369      -1.89701537
H       -0.44920043       1.97902672      -0.82575516
H       -1.56050846      -0.46666019      -1.49360982
H       -2.01353290       1.09672370       0.94496625
H       -2.36211617      -0.64033316       0.97131247
H        0.72637332       0.68683995       1.63734156
H       -0.25932011      -2.25170487       0.08702116
17
Frame=15 idx=010892 GeodesicLength=0.7857579075405938 rxn_smarts="[C:1]1([H:8])([H:9])[C@@:2]2([H:10])[C:3]([H:11])([H:12])[C@:4]3([H:13])[C:5]([H:14])([H:15])[C@@:6]2([H:16])[C@:7]13[H:17]>>[C:1]1([H:8])([H:9])[C:2]([H:10])([H:16])[C:3]([H:11])([H:12])[C@:4]2([H:13])[C:5]([H:14])([H:15])[C:6][C@:7]12[H:17]"
C        1.42975822      -0.75197674      -0.08453355
C        1.04638608       0.71031138       0.20913685
C        0.02959721       1.00059282      -0.90598749
C       -0.94235853      -0.15771870      -0.65456794
C       -1.60725010       0.10813861       0.71082542
C       -0.31882839      -0.34974991       1.34817071
C       -0.02713063      -1.19127507       0.09777504
H        1.86456270      -0.95195242      -1.06565077
H        2.07417049      -1.18177414       0.68370079
H        1.87624119       1.41756671       0.22546430
H        0.48453963       0.93785609      -1.89721705
H       -0.44927825       1.97885779      -0.82962267
H       -1.56214022      -0.46588373      -1.49428977
H       -2.01444618       1.09516423       0.94513646
H       -2.36394038      -0.64112004       0.97227382
H        0.73740329       0.69740383       1.65629809
H       -0.25728611      -2.25444069       0.08308777
17
Frame=16 idx=010892 GeodesicLength=0.8381352442053094 rxn_smarts="[C:1]1([H:8])([H:9])[C@@:2]2([H:10])[C:3]([H:11])([H:12])[C@:4]3([H:13])[C:5]([H:14])([H:15])[C@@:6]2([H:16])[C@:7]13[H:17]>>[C:1]1([H:8])([H:9])[C:2]([H:10])([H:16])[C:3]([H:11])([H:12])[C@:4]2([H:13])[C:5]([H:14])([H:15])[C:6][C@:7]12[H:17]"
C        1.42855997      -0.75143848      -0.08391340
C        1.04337175       0.71100271       0.21437056
C        0.02995360       1.00038094      -0.90711326
C       -0.94300059      -0.15743327      -0.65620303
C       -1.60882552       0.10650429       0.70972809
C       -0.31909394      -0.35005634       1.34365857
C       -0.02947466      -1.19313029       0.09553460
H        1.86323924      -0.95046900      -1.06509481
H        2.07311244      -1.18314826       0.68309116
H        1.87647867       1.41479233       0.21893457
H        0.48644406       0.93676095      -1.89742950
H       -0.44933667       1.97866912      -0.83351053
H       -1.56378829      -0.46510462      -1.49499124
H       -2.01533533       1.09359683       0.94530654
H       -2.36576576      -0.64191113       0.97323842
H        0.74870911       0.70816167       1.67526857
H       -0.25524806      -2.25717744       0.07912469
