15
Frame=0 idx=009693 GeodesicLength=0.0 rxn_smarts="[O:1]([C:2]([C:3]1([H:11])[C:4]([H:12])([H:13])[C:5](=[O:6])[C:7]1([H:14])[H:15])([H:9])[H:10])[H:8]>>[H:8][H:10].[O:1]=[C:2]([C:3]1([H:11])[C:4]([H:12])([H:13])[C:5](=[O:6])[C:7]1([H:14])[H:15])[H:9]"
O       -1.66135020       1.20553093       0.55222691
C       -1.48593636      -0.05255311       0.18723516
C       -0.09397937      -0.53497203      -0.14392006
C        0.85901206      -0.41625016       1.08271296
C        1.86055378       0.24638805       0.14433115
O        3.03346101       0.44653315       0.20520763
C        0.81195626       0.42945306      -0.94427943
H       -2.17125623       0.66009825      -0.64431568
H       -2.10125352      -0.82531110       0.67922319
H       -2.10907045      -0.19842652      -1.08118359
H       -0.11649297      -1.54510267      -0.55498436
H        0.48393363       0.30733311       1.81085010
H        1.17776538      -1.32736969       1.58569321
H        0.41409640       1.44764421      -0.91973476
H        1.09856056       0.15700457      -1.95906239
15
Frame=1 idx=009693 GeodesicLength=0.09770136188690885 rxn_smarts="[O:1]([C:2]([C:3]1([H:11])[C:4]([H:12])([H:13])[C:5](=[O:6])[C:7]1([H:14])[H:15])([H:9])[H:10])[H:8]>>[H:8][H:10].[O:1]=[C:2]([C:3]1([H:11])[C:4]([H:12])([H:13])[C:5](=[O:6])[C:7]1([H:14])[H:15])[H:9]"
O       -1.66245843       1.20106028       0.54440390
C       -1.48491563      -0.05784384       0.18555140
C       -0.09104081      -0.53684819      -0.14075882
C        0.86352625      -0.41861087       1.08468240
C        1.86265525       0.24803503       0.14632976
O        3.03475647       0.45297966       0.20791849
C        0.81381165       0.42735938      -0.94266873
H       -2.19396751       0.67886562      -0.65390817
H       -2.09305460      -0.82752000       0.69133808
H       -2.12771854      -0.18883083      -1.09384785
H       -0.11254343      -1.54733802      -0.55115862
H        0.48870508       0.30148956       1.81634895
H        1.18550656      -1.33041123       1.58446417
H        0.41495042       1.44517138      -0.92227334
H        1.10178728       0.15244205      -1.95642163
15
Frame=2 idx=009693 GeodesicLength=0.19520867056819025 rxn_smarts="[O:1]([C:2]([C:3]1([H:11])[C:4]([H:12])([H:13])[C:5](=[O:6])[C:7]1([H:14])[H:15])([H:9])[H:10])[H:8]>>[H:8][H:10].[O:1]=[C:2]([C:3]1([H:11])[C:4]([H:12])([H:13])[C:5](=[O:6])[C:7]1([H:14])[H:15])[H:9]"
O       -1.66371975       1.19612354       0.53634750
C       -1.48382871      -0.06361926       0.18386539
C       -0.08795526      -0.53897064      -0.13751057
C        0.86816065      -0.42096996       1.08672759
C        1.86476371       0.24976437       0.14836203
O        3.03600844       0.45968274       0.21065221
C        0.81567063       0.42508062      -0.94105572
H       -2.21710548       0.69871890      -0.66356164
H       -2.08469671      -0.82995582       0.70345852
H       -2.14672567      -0.17838969      -1.10664351
H       -0.10833583      -1.54983634      -0.54720784
H        0.49350802       0.29563204       1.82186073
H        1.19351038      -1.33334811       1.58336779
H        0.41566080       1.44244051      -0.92492351
H        1.10508479       0.14764709      -1.95373898
15
Frame=3 idx=009693 GeodesicLength=0.2926353921322793 rxn_smarts="[O:1]([C:2]([C:3]1([H:11])[C:4]([H:12])([H:13])[C:5](=[O:6])[C:7]1([H:14])[H:15])([H:9])[H:10])[H:8]>>[H:8][H:10].[O:1]=[C:2]([C:3]1([H:11])[C:4]([H:12])([H:13])[C:5](=[O:6])[C:7]1([H:14])[H:15])[H:9]"
O       -1.66516953       1.19066368       0.52802112
C       -1.48266986      -0.06994154       0.18218884
C       -0.08471206      -0.54136604      -0.13416965
C        0.87292223      -0.42332173       1.08885571
C        1.86687493       0.25158354       0.15042639
O        3.03720934       0.46665881       0.21340028
C        0.81752677       0.42260041      -0.93944093
H       -2.24065574       0.71979869      -0.67331268
H       -2.07616963      -0.83267841       0.71559297
H       -2.16611124      -0.16701147      -1.11954738
H       -0.10383760      -1.55262815      -0.54311781
H        0.49833891       0.28977229       1.82738262
H        1.20179790      -1.33616220       1.58242424
H        0.41620576       1.43942750      -0.92769055
H        1.10844981       0.14260462      -1.95101316
15
Frame=4 idx=009693 GeodesicLength=0.3900649315421426 rxn_smarts="[O:1]([C:2]([C:3]1([H:11])[C:4]([H:12])([H:13])[C:5](=[O:6])[C:7]1([H:14])[H:15])([H:9])[H:10])[H:8]>>[H:8][H:10].[O:1]=[C:2]([C:3]1([H:11])[C:4]([H:12])([H:13])[C:5](=[O:6])[C:7]1([H:14])[H:15])[H:9]"
O       -1.66684755       1.18461400       0.51938351
C       -1.48143387      -0.07687853       0.18052795
C       -0.08129984      -0.54406408      -0.13073209
C        0.87781550      -0.42565993       1.09107312
C        1.86898174       0.25350093       0.15252083
O        3.03834658       0.47392787       0.21615414
C        0.81937309       0.41990054      -0.93782573
H       -2.26459279       0.74226304      -0.68319999
H       -2.06745476      -0.83575093       0.72775754
H       -2.18589662      -0.15459970      -1.13252414
H       -0.09901092      -1.55574639      -0.53887469
H        0.50318860       0.28392209       1.83290971
H        1.21038804      -1.33883264       1.58165390
H        0.41656144       1.43610466      -0.93058106
H        1.11188136       0.13729907      -1.94824300
15
Frame=5 idx=009693 GeodesicLength=0.48757848867819104 rxn_smarts="[O:1]([C:2]([C:3]1([H:11])[C:4]([H:12])([H:13])[C:5](=[O:6])[C:7]1([H:14])[H:15])([H:9])[H:10])[H:8]>>[H:8][H:10].[O:1]=[C:2]([C:3]1([H:11])[C:4]([H:12])([H:13])[C:5](=[O:6])[C:7]1([H:14])[H:15])[H:9]"
O       -1.66879662       1.17790156       0.51039017
C       -1.48011446      -0.08450425       0.17889130
C       -0.07770572      -0.54709775      -0.12719260
C        0.88284733      -0.42797762       1.09338736
C        1.87107838       0.25552710       0.15464362
O        3.03941125       0.48151817       0.21890788
C        0.82120114       0.41696045      -0.93621271
H       -2.28889109       0.76628489      -0.69326145
H       -2.05854071      -0.83924255       0.73995897
H       -2.20610506      -0.14104792      -1.14553354
H       -0.09381613      -1.55922904      -0.53446206
H        0.50804887       0.27809465       1.83843752
H        1.21930571      -1.34133812       1.58107967
H        0.41669967       1.43244179      -0.93360529
H        1.11537743       0.13170863      -1.94542881
15
Frame=6 idx=009693 GeodesicLength=0.5852297785053611 rxn_smarts="[O:1]([C:2]([C:3]1([H:11])[C:4]([H:12])([H:13])[C:5](=[O:6])[C:7]1([H:14])[H:15])([H:9])[H:10])[H:8]>>[H:8][H:10].[O:1]=[C:2]([C:3]1([H:11])[C:4]([H:12])([H:13])[C:5](=[O:6])[C:7]1([H:14])[H:15])[H:9]"
O       -1.67107034       1.17043681       0.50098265
C       -1.47870637      -0.09291018       0.17728042
C       -0.07391438      -0.55050806      -0.12354816
C        0.88802218      -0.43026551       1.09580632
C        1.87315304       0.25767544       0.15679215
O        3.04038169       0.48946307       0.22165190
C        0.82300157       0.41375435      -0.93460578
H       -2.31349964       0.79206839      -0.70352742
H       -2.04940611      -0.84323674       0.75221294
H       -2.22676500      -0.12622255      -1.15852317
H       -0.08820243      -1.56312212      -0.52986304
H        0.51290344       0.27230673       1.84395828
H        1.22857607      -1.34364857       1.58072953
H        0.41658678       1.42839923      -0.93677667
H        1.11893951       0.12580972      -1.94256994
15
Frame=7 idx=009693 GeodesicLength=0.6830332076405475 rxn_smarts="[O:1]([C:2]([C:3]1([H:11])[C:4]([H:12])([H:13])[C:5](=[O:6])[C:7]1([H:14])[H:15])([H:9])[H:10])[H:8]>>[H:8][H:10].[O:1]=[C:2]([C:3]1([H:11])[C:4]([H:12])([H:13])[C:5](=[O:6])[C:7]1([H:14])[H:15])[H:9]"
O       -1.67372504       1.16212428       0.49109678
C       -1.47720520      -0.10218963       0.17569342
C       -0.06991091      -0.55433659      -0.11979644
C        0.89334249      -0.43251241       1.09833778
C        1.87519318       0.25996103       0.15896397
O        3.04123955       0.49779967       0.22438095
C        0.82476355       0.41025528      -0.93301116
H       -2.33835645       0.81982003      -0.71400990
H       -2.04002847      -0.84781726       0.76453122
H       -2.24790567      -0.10998943      -1.17144220
H       -0.08211762      -1.56747262      -0.52505952
H        0.51773356       0.26657766       1.84946342
H        1.23822293      -1.34573314       1.58063311
H        0.41618669       1.42393779      -0.94011280
H        1.12256742       0.11957534      -1.93966862
15
Frame=8 idx=009693 GeodesicLength=0.7809582181901329 rxn_smarts="[O:1]([C:2]([C:3]1([H:11])[C:4]([H:12])([H:13])[C:5](=[O:6])[C:7]1([H:14])[H:15])([H:9])[H:10])[H:8]>>[H:8][H:10].[O:1]=[C:2]([C:3]1([H:11])[C:4]([H:12])([H:13])[C:5](=[O:6])[C:7]1([H:14])[H:15])[H:9]"
O       -1.67682311       1.15285468       0.48065842
C       -1.47560895      -0.11244804       0.17411146
C       -0.06567851      -0.55863143      -0.11594019
C        0.89880637      -0.43470548       1.10098775
C        1.87718034       0.26240333       0.16115643
O        3.04195381       0.50657646       0.22709014
C        0.82647656       0.40643190      -0.93143844
H       -2.36337634       0.84977328      -0.72469989
H       -2.03038065      -0.85307070       0.77692764
H       -2.26955554      -0.09220457      -1.18421374
H       -0.07550058      -1.57233569      -0.52003561
H        0.52250746       0.26092816       1.85493936
H        1.24826743      -1.34755396       1.58082088
H        0.41545926       1.41900888      -0.94363884
H        1.12627244       0.11297318      -1.93672536
15
Frame=9 idx=009693 GeodesicLength=0.8786852774138192 rxn_smarts="[O:1]([C:2]([C:3]1([H:11])[C:4]([H:12])([H:13])[C:5](=[O:6])[C:7]1([H:14])[H:15])([H:9])[H:10])[H:8]>>[H:8][H:10].[O:1]=[C:2]([C:3]1([H:11])[C:4]([H:12])([H:13])[C:5](=[O:6])[C:7]1([H:14])[H:15])[H:9]"
O       -1.68040269       1.14243713       0.46956683
C       -1.47391138      -0.12380567       0.17241998
C       -0.06118851      -0.56344695      -0.11200679
C        0.90436341      -0.43681360       1.10374233
C        1.87906305       0.26503634       0.16336377
O        3.04245170       0.51586677       0.22979482
C        0.82814415       0.40223852      -0.92991485
H       -2.38833007       0.88224345      -0.73545165
H       -2.02040675      -0.85908025       0.78937011
H       -2.29180644      -0.07275186      -1.19659346
H       -0.06824306      -1.57776102      -0.51477513
H        0.52710873       0.25538071       1.86033060
H        1.25866999      -1.34903185       1.58131841
H        0.41437712       1.41352950      -0.94741790
H        1.13011074       0.10595877      -1.93374706
15
Frame=10 idx=009693 GeodesicLength=0.9764394687744209 rxn_smarts="[O:1]([C:2]([C:3]1([H:11])[C:4]([H:12])([H:13])[C:5](=[O:6])[C:7]1([H:14])[H:15])([H:9])[H:10])[H:8]>>[H:8][H:10].[O:1]=[C:2]([C:3]1([H:11])[C:4]([H:12])([H:13])[C:5](=[O:6])[C:7]1([H:14])[H:15])[H:9]"
O       -1.68455204       1.13080652       0.45774186
C       -1.47210804      -0.13638315       0.17067193
C       -0.05643163      -0.56883666      -0.10797974
C        0.91004747      -0.43882919       1.10662680
C        1.88084239       0.26787728       0.16558624
O        3.04272516       0.52573168       0.23248406
C        0.82974276       0.39763973      -0.92844519
H       -2.41320434       0.91740922      -0.74626790
H       -2.01011638      -0.86595593       0.80187037
H       -2.31464096      -0.05140315      -1.20865855
H       -0.06031146      -1.58382107      -0.50925266
H        0.53156402       0.24996839       1.86565452
H        1.26950859      -1.35014534       1.58217679
H        0.41287661       1.40745970      -0.95147155
H        1.13405785       0.09848197      -1.93073699
15
Frame=11 idx=009693 GeodesicLength=1.07420578266016 rxn_smarts="[O:1]([C:2]([C:3]1([H:11])[C:4]([H:12])([H:13])[C:5](=[O:6])[C:7]1([H:14])[H:15])([H:9])[H:10])[H:8]>>[H:8][H:10].[O:1]=[C:2]([C:3]1([H:11])[C:4]([H:12])([H:13])[C:5](=[O:6])[C:7]1([H:14])[H:15])[H:9]"
O       -1.68932122       1.11782308       0.44510829
C       -1.47019127      -0.15029135       0.16883480
C       -0.05138923      -0.57485109      -0.10386089
C        0.91584645      -0.44073025       1.10964517
C        1.88248801       0.27095388       0.16781824
O        3.04272779       0.53624553       0.23515820
C        0.83126244       0.39259303      -0.92704538
H       -2.43787080       0.95550209      -0.75706220
H       -1.99948267      -0.87378178       0.81441678
H       -2.33810241      -0.02799536      -1.22035302
H       -0.05163455      -1.59057069      -0.50343983
H        0.53582453       0.24471769       1.87089075
H        1.28079707      -1.35083889       1.58343074
H        0.41091305       1.40073164      -0.95584491
H        1.13813282       0.09049247      -1.92769674
15
Frame=12 idx=009693 GeodesicLength=1.1719397940480076 rxn_smarts="[O:1]([C:2]([C:3]1([H:11])[C:4]([H:12])([H:13])[C:5](=[O:6])[C:7]1([H:14])[H:15])([H:9])[H:10])[H:8]>>[H:8][H:10].[O:1]=[C:2]([C:3]1([H:11])[C:4]([H:12])([H:13])[C:5](=[O:6])[C:7]1([H:14])[H:15])[H:9]"
O       -1.69476509       1.10334529       0.43157318
C       -1.46815541      -0.16565154       0.16685683
C       -0.04604285      -0.58154580      -0.09965886
C        0.92174239      -0.44249087       1.11280108
C        1.88396305       0.27429899       0.17005563
O        3.04239731       0.54749494       0.23782061
C        0.83269456       0.38705025      -0.92573718
H       -2.46217211       0.99675496      -0.76769374
H       -1.98848022      -0.88264347       0.82698440
H       -2.36222734      -0.00235143      -1.23160182
H       -0.04213507      -1.59807269      -0.49731077
H        0.53983002       0.23966077       1.87601619
H        1.29254667      -1.35104900       1.58512072
H        0.40843885       1.39326878      -0.96059707
H        1.14236526       0.08193081      -1.92462919
15
Frame=13 idx=009693 GeodesicLength=1.2696114094977617 rxn_smarts="[O:1]([C:2]([C:3]1([H:11])[C:4]([H:12])([H:13])[C:5](=[O:6])[C:7]1([H:14])[H:15])([H:9])[H:10])[H:8]>>[H:8][H:10].[O:1]=[C:2]([C:3]1([H:11])[C:4]([H:12])([H:13])[C:5](=[O:6])[C:7]1([H:14])[H:15])[H:9]"
O       -1.70092908       1.08723480       0.41703896
C       -1.46599352      -0.18258090       0.16467611
C       -0.04037530      -0.58897280      -0.09538559
C        0.92771270      -0.44408152       1.11609695
C        1.88522955       0.27794863       0.17229505
O        3.04167855       0.55956943       0.24048535
C        0.83403205       0.38096257      -0.92454720
H       -2.48594517       1.04136956      -0.77796724
H       -1.97709154      -0.89261417       0.83953601
H       -2.38705120       0.02569900      -1.24234174
H       -0.03173725      -1.60638687      -0.49083926
H        0.54351166       0.23483553       1.88100374
H        1.30476146      -1.35070881       1.58728818
H        0.40540870       1.38499451      -0.96579804
H        1.14678841       0.07273103      -1.92154126
15
Frame=14 idx=009693 GeodesicLength=1.3671685755297913 rxn_smarts="[O:1]([C:2]([C:3]1([H:11])[C:4]([H:12])([H:13])[C:5](=[O:6])[C:7]1([H:14])[H:15])([H:9])[H:10])[H:8]>>[H:8][H:10].[O:1]=[C:2]([C:3]1([H:11])[C:4]([H:12])([H:13])[C:5](=[O:6])[C:7]1([H:14])[H:15])[H:9]"
O       -1.70785585       1.06934754       0.40138496
C       -1.46370131      -0.20119107       0.16219987
C       -0.03436913      -0.59718464      -0.09105960
C        0.93371893      -0.44546242       1.11953144
C        1.88623717       0.28194247       0.17453089
O        3.04048503       0.57256954       0.24316121
C        0.83527480       0.37427167      -0.92350863
H       -2.50898038       1.08953413      -0.78754909
H       -1.96530486      -0.90375570       0.85200208
H       -2.41259443       0.05631385      -1.25252085
H       -0.02035859      -1.61557271      -0.48399556
H        0.54677954       0.23028911       1.88581714
H        1.31742832      -1.34973247       1.58997965
H        0.40178391       1.37581561      -0.97153692
H        1.15145686       0.06281510      -1.91843660
15
Frame=15 idx=009693 GeodesicLength=1.4645938188912149 rxn_smarts="[O:1]([C:2]([C:3]1([H:11])[C:4]([H:12])([H:13])[C:5](=[O:6])[C:7]1([H:14])[H:15])([H:9])[H:10])[H:8]>>[H:8][H:10].[O:1]=[C:2]([C:3]1([H:11])[C:4]([H:12])([H:13])[C:5](=[O:6])[C:7]1([H:14])[H:15])[H:9]"
O       -1.71557203       1.04955705       0.38448342
C       -1.46127060      -0.22157501       0.15932746
C       -0.02801062      -0.60622227      -0.08670260
C        0.93971672      -0.44658832       1.12310219
C        1.88693677       0.28632011       0.17675845
O        3.03874187       0.58658902       0.24586842
C        0.83642740       0.36692149      -0.92266010
H       -2.53107020       1.14136035      -0.79601815
H       -1.95312180      -0.91610626       0.86429223
H       -2.43887362       0.08963365      -1.26212128
H       -0.00792653      -1.62567891      -0.47674920
H        0.54953657       0.22607787       1.89041520
H        1.33051927      -1.34803017       1.59324255
H        0.39753641       1.36564199      -0.97791596
H        1.15643038       0.05209943      -1.91532263
15
Frame=16 idx=009693 GeodesicLength=1.5618658386516486 rxn_smarts="[O:1]([C:2]([C:3]1([H:11])[C:4]([H:12])([H:13])[C:5](=[O:6])[C:7]1([H:14])[H:15])([H:9])[H:10])[H:8]>>[H:8][H:10].[O:1]=[C:2]([C:3]1([H:11])[C:4]([H:12])([H:13])[C:5](=[O:6])[C:7]1([H:14])[H:15])[H:9]"
O       -1.72408930       1.02775406       0.36618284
C       -1.45869362      -0.24381263       0.15592423
C       -0.02128950      -0.61612188      -0.08234728
C        0.94564601      -0.44740317       1.12680460
C        1.88727151       0.29112456       0.17897401
O        3.03635707       0.60173134       0.24863644
C        0.83750323       0.35884905      -0.92205278
H       -2.55197810       1.19690116      -0.80279593
H       -1.94056122      -0.92968266       0.87627466
H       -2.46588703       0.12578081      -1.27113539
H        0.00562766      -1.63675106      -0.46906916
H        0.55166528       0.22227335       1.89474880
H        1.34398602      -1.34549929       1.59713272
H        0.39265161       1.35437527      -0.98506685
H        1.16179039       0.04048107      -1.91221093
