12
Frame=0 idx=004920 GeodesicLength=0.0 rxn_smarts="[O:1]=[C:2]1[C:3]([H:7])([H:8])[C:4]([H:9])([H:10])[O:5][C:6]1([H:11])[H:12]>>[O:1]1[C:2](=[C:6]([H:11])[H:12])[C:3]([H:7])([H:8])[C:4]([H:9])([H:10])[O:5]1"
O        0.81594344       1.06182973      -1.30342768
C        0.53607455       0.80564410      -0.11758602
C       -0.87097199       0.42754670       0.20004701
C       -0.88933690      -0.96165262      -0.54914153
O        0.32170012      -1.18594028      -1.10471117
C        1.56690202       0.45945257       0.75999689
H       -1.58003441       1.11154176      -0.26398458
H       -1.07955498       0.34079745       1.26580944
H       -1.08970918      -1.74175278       0.20456957
H       -1.70272512      -1.03929420      -1.28613977
H        2.58252033       0.46328550       0.38459519
H        1.38919213       0.25854211       1.80997260
12
Frame=1 idx=004920 GeodesicLength=0.05167844069410152 rxn_smarts="[O:1]=[C:2]1[C:3]([H:7])([H:8])[C:4]([H:9])([H:10])[O:5][C:6]1([H:11])[H:12]>>[O:1]1[C:2](=[C:6]([H:11])[H:12])[C:3]([H:7])([H:8])[C:4]([H:9])([H:10])[O:5]1"
O        0.81130476       1.06688178      -1.30129492
C        0.53067818       0.81720051      -0.11140282
C       -0.87622378       0.42803847       0.20059860
C       -0.88645920      -0.95961339      -0.54379670
O        0.33812255      -1.17463501      -1.08424453
C        1.56472479       0.42805476       0.74669336
H       -1.58839216       1.10906189      -0.26313965
H       -1.09142140       0.34345261       1.26513549
H       -1.09327886      -1.74185541       0.20496973
H       -1.68726057      -1.03751002      -1.29355200
H        2.58125690       0.44994799       0.37405828
H        1.39694878       0.27097582       1.80597518
12
Frame=2 idx=004920 GeodesicLength=0.10346776697671684 rxn_smarts="[O:1]=[C:2]1[C:3]([H:7])([H:8])[C:4]([H:9])([H:10])[O:5][C:6]1([H:11])[H:12]>>[O:1]1[C:2](=[C:6]([H:11])[H:12])[C:3]([H:7])([H:8])[C:4]([H:9])([H:10])[O:5]1"
O        0.80695266       1.07170039      -1.29922089
C        0.52555187       0.82857684      -0.10526614
C       -0.88136490       0.42890022       0.20082100
C       -0.88342329      -0.95756985      -0.53802528
O        0.35414689      -1.16321310      -1.06385634
C        1.56185216       0.40034458       0.73405293
H       -1.59645357       1.10675044      -0.26318125
H       -1.10357539       0.34695259       1.26404567
H       -1.09600417      -1.74172511       0.20615046
H       -1.67185994      -1.03627728      -1.29984540
H        2.57923406       0.43719094       0.36442956
H        1.40494363       0.27836934       1.79989570
12
Frame=3 idx=004920 GeodesicLength=0.15539420616437427 rxn_smarts="[O:1]=[C:2]1[C:3]([H:7])([H:8])[C:4]([H:9])([H:10])[O:5][C:6]1([H:11])[H:12]>>[O:1]1[C:2](=[C:6]([H:11])[H:12])[C:3]([H:7])([H:8])[C:4]([H:9])([H:10])[O:5]1"
O        0.80284924       1.07633137      -1.29714644
C        0.52069642       0.83963981      -0.09917254
C       -0.88635994       0.42993033       0.20080314
C       -0.88032930      -0.95552874      -0.53202788
O        0.36966615      -1.15162141      -1.04386753
C        1.55853561       0.37552812       0.72195922
H       -1.60420417       1.10451118      -0.26379210
H       -1.11589585       0.35087943       1.26259814
H       -1.09801933      -1.74150078       0.20776325
H       -1.65668863      -1.03541191      -1.30521138
H        2.57673576       0.42453286       0.35541895
H        1.41301405       0.28270975       1.79267518
12
Frame=4 idx=004920 GeodesicLength=0.2072938915076888 rxn_smarts="[O:1]=[C:2]1[C:3]([H:7])([H:8])[C:4]([H:9])([H:10])[O:5][C:6]1([H:11])[H:12]>>[O:1]1[C:2](=[C:6]([H:11])[H:12])[C:3]([H:7])([H:8])[C:4]([H:9])([H:10])[O:5]1"
O        0.79902927       1.08077939      -1.29497507
C        0.51617158       0.85016318      -0.09304743
C       -0.89113767       0.43089932       0.20068752
C       -0.87732812      -0.95354237      -0.52608162
O        0.38448419      -1.13993633      -1.02466726
C        1.55488484       0.35272125       0.71039833
H       -1.61156337       1.10232822      -0.26458837
H       -1.12820555       0.35471897       1.26095364
H       -1.09953973      -1.74141821       0.20933131
H       -1.64193906      -1.03466568      -1.30996178
H        2.57390319       0.41147373       0.34681421
H        1.42124043       0.28647854       1.78513653
12
Frame=5 idx=004920 GeodesicLength=0.2593201463972432 rxn_smarts="[O:1]=[C:2]1[C:3]([H:7])([H:8])[C:4]([H:9])([H:10])[O:5][C:6]1([H:11])[H:12]>>[O:1]1[C:2](=[C:6]([H:11])[H:12])[C:3]([H:7])([H:8])[C:4]([H:9])([H:10])[O:5]1"
O        0.79541027       1.08507795      -1.29284174
C        0.51183856       0.86046702      -0.08698404
C       -0.89579515       0.43204032       0.20036633
C       -0.87425621      -0.95155292      -0.51991020
O        0.39888692      -1.12812463      -1.00586305
C        1.55099872       0.33219788       0.69928528
H       -1.61865697       1.10022520      -0.26589485
H       -1.14068141       0.35898311       1.25898874
H       -1.10040740      -1.74122708       0.21136671
H       -1.62739180      -1.03425713      -1.31387382
H        2.57082175       0.39875780       0.33860756
H        1.42923271       0.28741246       1.77675308
12
Frame=6 idx=004920 GeodesicLength=0.3113902525945997 rxn_smarts="[O:1]=[C:2]1[C:3]([H:7])([H:8])[C:4]([H:9])([H:10])[O:5][C:6]1([H:11])[H:12]>>[O:1]1[C:2](=[C:6]([H:11])[H:12])[C:3]([H:7])([H:8])[C:4]([H:9])([H:10])[O:5]1"
O        0.79203268       1.08921800      -1.29063383
C        0.50777069       0.87028618      -0.08090669
C       -0.90027382       0.43310415       0.19995704
C       -0.87130231      -0.94960804      -0.51379967
O        0.41266632      -1.11624429      -0.98783778
C        1.54699051       0.31308187       0.68858303
H       -1.62540823       1.09816174      -0.26735027
H       -1.15316986       0.36313881       1.25682309
H       -1.10089282      -1.74116183       0.21338512
H       -1.61329981      -1.03392260      -1.31726199
H        2.56764974       0.38591598       0.33067869
H        1.43723691       0.28803002       1.76836326
12
Frame=7 idx=004920 GeodesicLength=0.3635211792926998 rxn_smarts="[O:1]=[C:2]1[C:3]([H:7])([H:8])[C:4]([H:9])([H:10])[O:5][C:6]1([H:11])[H:12]>>[O:1]1[C:2](=[C:6]([H:11])[H:12])[C:3]([H:7])([H:8])[C:4]([H:9])([H:10])[O:5]1"
O        0.78888679       1.09323335      -1.28834926
C        0.50394681       0.87969998      -0.07480706
C       -0.90459208       0.43411722       0.19947141
C       -0.86844284      -0.94770801      -0.50773597
O        0.42590957      -1.10432013      -0.97054169
C        1.54283701       0.29522828       0.67830242
H       -1.63185868       1.09614126      -0.26895026
H       -1.16568371       0.36722385       1.25446476
H       -1.10101255      -1.74119022       0.21542308
H       -1.59962261      -1.03368967      -1.32018242
H        2.56436003       0.37296946       0.32296606
H        1.44527227       0.28829463       1.75993894
12
Frame=8 idx=004920 GeodesicLength=0.41546060640699856 rxn_smarts="[O:1]=[C:2]1[C:3]([H:7])([H:8])[C:4]([H:9])([H:10])[O:5][C:6]1([H:11])[H:12]>>[O:1]1[C:2](=[C:6]([H:11])[H:12])[C:3]([H:7])([H:8])[C:4]([H:9])([H:10])[O:5]1"
O        0.78601489       1.09714049      -1.28596353
C        0.50032452       0.88872142      -0.06867814
C       -0.90875711       0.43507650       0.19889185
C       -0.86566481      -0.94584651      -0.50167351
O        0.43852253      -1.09232958      -0.95394826
C        1.53860852       0.27876986       0.66843652
H       -1.63801350       1.09414295      -0.27076234
H       -1.17823798       0.37123975       1.25190574
H       -1.10069154      -1.74133025       0.21747892
H       -1.58630782      -1.03352327      -1.32254005
H        2.56097192       0.35986958       0.31546467
H        1.45323039       0.28806905       1.75138813
12
Frame=9 idx=004920 GeodesicLength=0.46768982707852236 rxn_smarts="[O:1]=[C:2]1[C:3]([H:7])([H:8])[C:4]([H:9])([H:10])[O:5][C:6]1([H:11])[H:12]>>[O:1]1[C:2](=[C:6]([H:11])[H:12])[C:3]([H:7])([H:8])[C:4]([H:9])([H:10])[O:5]1"
O        0.78329364       1.10090655      -1.28349273
C        0.49690302       0.89734806      -0.06252846
C       -0.91278115       0.43597013       0.19826409
C       -0.86298561      -0.94400678      -0.49568306
O        0.45072366      -1.08033254      -0.93801158
C        1.53429056       0.26303372       0.65891516
H       -1.64389513       1.09218348      -0.27262538
H       -1.19080002       0.37515528       1.24914470
H       -1.10012968      -1.74151056       0.21952633
H       -1.57338361      -1.03340540      -1.32455739
H        2.55752173       0.34683433       0.30813213
H        1.46124258       0.28782375       1.74291620
12
Frame=10 idx=004920 GeodesicLength=0.5199687286923221 rxn_smarts="[O:1]=[C:2]1[C:3]([H:7])([H:8])[C:4]([H:9])([H:10])[O:5][C:6]1([H:11])[H:12]>>[O:1]1[C:2](=[C:6]([H:11])[H:12])[C:3]([H:7])([H:8])[C:4]([H:9])([H:10])[O:5]1"
O        0.78082472       1.10456233      -1.28089307
C        0.49371717       0.90555558      -0.05629037
C       -0.91667159       0.43675323       0.19762793
C       -0.86047818      -0.94224168      -0.48982807
O        0.46245047      -1.06840825      -0.92283783
C        1.52989100       0.24796549       0.64976651
H       -1.64949695       1.09026436      -0.27450190
H       -1.20338386       0.37887739       1.24626033
H       -1.09945480      -1.74183103       0.22148821
H       -1.56093442      -1.03331482      -1.32635304
H        2.55410193       0.33378795       0.30094711
H        1.46943451       0.28802945       1.73461419
12
Frame=11 idx=004920 GeodesicLength=0.5718618048644227 rxn_smarts="[O:1]=[C:2]1[C:3]([H:7])([H:8])[C:4]([H:9])([H:10])[O:5][C:6]1([H:11])[H:12]>>[O:1]1[C:2](=[C:6]([H:11])[H:12])[C:3]([H:7])([H:8])[C:4]([H:9])([H:10])[O:5]1"
O        0.77857069       1.10812623      -1.27823172
C        0.49060546       0.91343096      -0.05008412
C       -0.92041781       0.43748803       0.19685663
C       -0.85798990      -0.94046208      -0.48390155
O        0.47353426      -1.05627361      -0.90833967
C        1.52559185       0.23425252       0.64101312
H       -1.65482687       1.08830341      -0.27666608
H       -1.21599121       0.38258092       1.24311567
H       -1.09817856      -1.74221767       0.22352954
H       -1.54879032      -1.03325298      -1.32745228
H        2.55050793       0.32050997       0.29399426
H        1.47738447       0.28751431       1.72616620
12
Frame=12 idx=004920 GeodesicLength=0.623847511423325 rxn_smarts="[O:1]=[C:2]1[C:3]([H:7])([H:8])[C:4]([H:9])([H:10])[O:5][C:6]1([H:11])[H:12]>>[O:1]1[C:2](=[C:6]([H:11])[H:12])[C:3]([H:7])([H:8])[C:4]([H:9])([H:10])[O:5]1"
O        0.77654196       1.11160325      -1.27545314
C        0.48770843       0.92094399      -0.04379860
C       -0.92405699       0.43813416       0.19607970
C       -0.85567028      -0.93875278      -0.47809898
O        0.48420862      -1.04423160      -0.89452841
C        1.52122822       0.22094096       0.63259778
H       -1.65991886       1.08639785      -0.27883526
H       -1.22863543       0.38611999       1.23983993
H       -1.09683238      -1.74271070       0.22550028
H       -1.53709339      -1.03323955      -1.32837314
H        2.54698695       0.30735946       0.28716936
H        1.48553316       0.28743497       1.71790046
12
Frame=13 idx=004920 GeodesicLength=0.6759410862931807 rxn_smarts="[O:1]=[C:2]1[C:3]([H:7])([H:8])[C:4]([H:9])([H:10])[O:5][C:6]1([H:11])[H:12]>>[O:1]1[C:2](=[C:6]([H:11])[H:12])[C:3]([H:7])([H:8])[C:4]([H:9])([H:10])[O:5]1"
O        0.77467143       1.11501427      -1.27258246
C        0.48496781       0.92815607      -0.03747378
C       -0.92757739       0.43872663       0.19525699
C       -0.85344337      -0.93707055      -0.47233569
O        0.49450211      -1.03221455      -0.88128917
C        1.51683423       0.20817200       0.62447503
H       -1.66478505       1.08452278      -0.28109848
H       -1.24127273       0.38956673       1.23637640
H       -1.09527190      -1.74323355       0.22749651
H       -1.52575231      -1.03327321      -1.32899346
H        2.54342568       0.29432880       0.28049235
H        1.49370149       0.28730460       1.70967575
12
Frame=14 idx=004920 GeodesicLength=0.7280506091566622 rxn_smarts="[O:1]=[C:2]1[C:3]([H:7])([H:8])[C:4]([H:9])([H:10])[O:5][C:6]1([H:11])[H:12]>>[O:1]1[C:2](=[C:6]([H:11])[H:12])[C:3]([H:7])([H:8])[C:4]([H:9])([H:10])[O:5]1"
O        0.77298491       1.11836711      -1.26962412
C        0.48236646       0.93508356      -0.03110038
C       -0.93099396       0.43926590       0.19439267
C       -0.85131982      -0.93542597      -0.46660963
O        0.50440809      -1.02023641      -0.86861278
C        1.51245442       0.19595246       0.61663192
H       -1.66942847       1.08267671      -0.28346405
H       -1.25393012       0.39292639       1.23274394
H       -1.09353028      -1.74381517       0.22951903
H       -1.51476344      -1.03334674      -1.32932068
H        2.53986564       0.28144119       0.27396168
H        1.50188656       0.28711097       1.70148242
12
Frame=15 idx=004920 GeodesicLength=0.7801587613422659 rxn_smarts="[O:1]=[C:2]1[C:3]([H:7])([H:8])[C:4]([H:9])([H:10])[O:5][C:6]1([H:11])[H:12]>>[O:1]1[C:2](=[C:6]([H:11])[H:12])[C:3]([H:7])([H:8])[C:4]([H:9])([H:10])[O:5]1"
O        0.77147709       1.12166377      -1.26658190
C        0.47989881       0.94173287      -0.02468544
C       -0.93430872       0.43975050       0.19348821
C       -0.84929979      -0.93381655      -0.46092203
O        0.51393639      -1.00829199      -0.85649275
C        1.50809318       0.18423000       0.60906270
H       -1.67385636       1.08085810      -0.28592371
H       -1.26659278       0.39619563       1.22894223
H       -1.09161376      -1.74444659       0.23156328
H       -1.50413232      -1.03346278      -1.32936369
H        2.53631220       0.26870637       0.26758283
H        1.51008606       0.28688067       1.69333027
12
Frame=16 idx=004920 GeodesicLength=0.8322544758928745 rxn_smarts="[O:1]=[C:2]1[C:3]([H:7])([H:8])[C:4]([H:9])([H:10])[O:5][C:6]1([H:11])[H:12]>>[O:1]1[C:2](=[C:6]([H:11])[H:12])[C:3]([H:7])([H:8])[C:4]([H:9])([H:10])[O:5]1"
O        0.77014214       1.12490818      -1.26346007
C        0.47755826       0.94811405      -0.01823224
C       -0.93752441       0.44018162       0.19254620
C       -0.84738168      -0.93224150      -0.45527219
O        0.52310386      -0.99638479      -0.84491608
C        1.50375510       0.17295833       0.60175391
H       -1.67807517       1.07906809      -0.28847086
H       -1.27924912       0.39937567       1.22497392
H       -1.08953344      -1.74512184       0.23363088
H       -1.49385848      -1.03362179      -1.32913482
H        2.53277106       0.25614158       0.26135764
H        1.51829187       0.28662240       1.68522371
