12
Frame=0 idx=009143 GeodesicLength=0.0 rxn_smarts="[C:1]([c:2]1[c:3]([H:11])[o:4][c:5](=[O:6])[n:7]1[H:12])([H:8])([H:9])[H:10]>>[C:1]([c:2]1[c:3]([H:11])[o:4][c:5]([O:6][H:12])[n:7]1)([H:8])([H:9])[H:10]"
C       -1.63183067      -0.30153495      -0.73930072
C       -0.33426898       0.09471578      -0.13974932
C        0.14341308       1.31418445       0.17217355
O        1.42734667       1.19321023       0.72441110
C        1.64853648      -0.10469096       0.71147020
O        2.61826818      -0.83068058       1.07648018
N        0.65883363      -0.81371642       0.21747278
H       -1.47404306      -0.83353592      -1.67907201
H       -2.17746430      -0.96723059      -0.06826864
H       -2.24914833       0.57388608      -0.93590154
H       -0.24976619       2.31102735       0.08879882
H        1.62012346      -1.63563444       0.57148561
12
Frame=1 idx=009143 GeodesicLength=0.03343043006549811 rxn_smarts="[C:1]([c:2]1[c:3]([H:11])[o:4][c:5](=[O:6])[n:7]1[H:12])([H:8])([H:9])[H:10]>>[C:1]([c:2]1[c:3]([H:11])[o:4][c:5]([O:6][H:12])[n:7]1)([H:8])([H:9])[H:10]"
C       -1.63086421      -0.30162800      -0.73931124
C       -0.33386573       0.09705657      -0.14009027
C        0.14655487       1.31673715       0.16470667
O        1.43168222       1.19555552       0.71103430
C        1.62862909      -0.10678897       0.75823342
O        2.62224110      -0.82846868       1.06340759
N        0.65410959      -0.81313103       0.22697642
H       -1.47229072      -0.83688609      -1.67713786
H       -2.17756508      -0.96485750      -0.06664066
H       -2.24799426       0.57322350      -0.93912231
H       -0.25038011       2.31273142       0.08897054
H        1.62974323      -1.64354389       0.54897340
12
Frame=2 idx=009143 GeodesicLength=0.0670870419950142 rxn_smarts="[C:1]([c:2]1[c:3]([H:11])[o:4][c:5](=[O:6])[n:7]1[H:12])([H:8])([H:9])[H:10]>>[C:1]([c:2]1[c:3]([H:11])[o:4][c:5]([O:6][H:12])[n:7]1)([H:8])([H:9])[H:10]"
C       -1.62971774      -0.30173925      -0.73973158
C       -0.33455184       0.09899269      -0.13787866
C        0.14816358       1.31865526       0.16128380
O        1.43540410       1.19658042       0.69930064
C        1.61590526      -0.10756328       0.78857404
O        2.62509191      -0.82517085       1.05113216
N        0.64757192      -0.81297576       0.24052769
H       -1.46840278      -0.83976363      -1.67554325
H       -2.17892451      -0.96283806      -0.06694564
H       -2.24616702       0.57268074      -0.94358121
H       -0.25089549       2.31418776       0.09051603
H        1.63652261      -1.65104604       0.53234598
12
Frame=3 idx=009143 GeodesicLength=0.10083460911282183 rxn_smarts="[C:1]([c:2]1[c:3]([H:11])[o:4][c:5](=[O:6])[n:7]1[H:12])([H:8])([H:9])[H:10]>>[C:1]([c:2]1[c:3]([H:11])[o:4][c:5]([O:6][H:12])[n:7]1)([H:8])([H:9])[H:10]"
C       -1.62848445      -0.30190272      -0.74017537
C       -0.33543633       0.10086301      -0.13507076
C        0.14910443       1.32042265       0.15947132
O        1.43865452       1.19730763       0.68853871
C        1.60687363      -0.10744328       0.81106553
O        2.62685661      -0.82200128       1.04051629
N        0.64118360      -0.81270899       0.25384689
H       -1.46403991      -0.84177369      -1.67442308
H       -2.18004871      -0.96171090      -0.06798356
H       -2.24456907       0.57201071      -0.94738853
H       -0.25138166       2.31564930       0.09228086
H        1.64128734      -1.65871244       0.51932169
12
Frame=4 idx=009143 GeodesicLength=0.13463255524621162 rxn_smarts="[C:1]([c:2]1[c:3]([H:11])[o:4][c:5](=[O:6])[n:7]1[H:12])([H:8])([H:9])[H:10]>>[C:1]([c:2]1[c:3]([H:11])[o:4][c:5]([O:6][H:12])[n:7]1)([H:8])([H:9])[H:10]"
C       -1.62722221      -0.30210996      -0.74048641
C       -0.33612407       0.10277119      -0.13262482
C        0.14997726       1.32219092       0.15781133
O        1.44131145       1.19787779       0.67905232
C        1.59953218      -0.10685009       0.82998244
O        2.62768567      -0.81904035       1.03147359
N        0.63554594      -0.81220119       0.26549592
H       -1.46000171      -0.84312023      -1.67360699
H       -2.18049148      -0.96130151      -0.06903764
H       -2.24336632       0.57119990      -0.95010407
H       -0.25173989       2.31714614       0.09378191
H        1.64489319      -1.66656260       0.50826240
12
Frame=5 idx=009143 GeodesicLength=0.16835629457779716 rxn_smarts="[C:1]([c:2]1[c:3]([H:11])[o:4][c:5](=[O:6])[n:7]1[H:12])([H:8])([H:9])[H:10]>>[C:1]([c:2]1[c:3]([H:11])[o:4][c:5]([O:6][H:12])[n:7]1)([H:8])([H:9])[H:10]"
C       -1.62598517      -0.30234523      -0.74066923
C       -0.33663909       0.10471525      -0.13050860
C        0.15084003       1.32396846       0.15619491
O        1.44346700       1.19835770       0.67068632
C        1.59323397      -0.10594849       0.84654358
O        2.62778243      -0.81627020       1.02381952
N        0.63054779      -0.81151548       0.27581860
H       -1.45631218      -0.84401707      -1.67300070
H       -2.18044484      -0.96138183      -0.06998801
H       -2.24253135       0.57029392      -0.95198415
H       -0.25189853       2.31869734       0.09485548
H        1.64793995      -1.67455438       0.49823228
12
Frame=6 idx=009143 GeodesicLength=0.20210554965421418 rxn_smarts="[C:1]([c:2]1[c:3]([H:11])[o:4][c:5](=[O:6])[n:7]1[H:12])([H:8])([H:9])[H:10]>>[C:1]([c:2]1[c:3]([H:11])[o:4][c:5]([O:6][H:12])[n:7]1)([H:8])([H:9])[H:10]"
C       -1.62477009      -0.30260733      -0.74072815
C       -0.33698630       0.10668751      -0.12872342
C        0.15178958       1.32576472       0.15438343
O        1.44525815       1.19876709       0.66318060
C        1.58759176      -0.10480370       0.86165935
O        2.62721804      -0.81368645       1.01747972
N        0.62600666      -0.81069707       0.28516280
H       -1.45295760      -0.84475267      -1.67242934
H       -2.18006588      -0.96167836      -0.07071048
H       -2.24190774       0.56931833      -0.95334731
H       -0.25194785       2.32026259       0.09568971
H        1.65077125      -1.68257466       0.48838307
12
Frame=7 idx=009143 GeodesicLength=0.23586556738001951 rxn_smarts="[C:1]([c:2]1[c:3]([H:11])[o:4][c:5](=[O:6])[n:7]1[H:12])([H:8])([H:9])[H:10]>>[C:1]([c:2]1[c:3]([H:11])[o:4][c:5]([O:6][H:12])[n:7]1)([H:8])([H:9])[H:10]"
C       -1.62357153      -0.30289414      -0.74068669
C       -0.33721251       0.10867265      -0.12716793
C        0.15282156       1.32756857       0.15239108
O        1.44684135       1.19912076       0.65617148
C        1.58236784      -0.10347958       0.87583428
O        2.62608957      -0.81126820       1.01226736
N        0.62176731      -0.80979016       0.29387166
H       -1.44984298      -0.84545457      -1.67182979
H       -2.17948525      -0.96206661      -0.07121756
H       -2.24139858       0.56829625      -0.95441366
H       -0.25193325       2.32182868       0.09642748
H        1.65355648      -1.69053365       0.47835229
12
Frame=8 idx=009143 GeodesicLength=0.26964104175035 rxn_smarts="[C:1]([c:2]1[c:3]([H:11])[o:4][c:5](=[O:6])[n:7]1[H:12])([H:8])([H:9])[H:10]>>[C:1]([c:2]1[c:3]([H:11])[o:4][c:5]([O:6][H:12])[n:7]1)([H:8])([H:9])[H:10]"
C       -1.62239878      -0.30320780      -0.74052682
C       -0.33735745       0.11066056      -0.12574759
C        0.15389548       1.32936553       0.15033295
O        1.44816775       1.19940880       0.64980922
C        1.57740134      -0.10202084       0.88941359
O        2.62450024      -0.80900666       1.00797209
N        0.61778803      -0.80880807       0.30204862
H       -1.44693143      -0.84610419      -1.67118449
H       -2.17874460      -0.96256035      -0.07153089
H       -2.24100198       0.56722489      -0.95518125
H       -0.25171364       2.32342643       0.09670233
H        1.65639504      -1.69837829       0.46789224
12
Frame=9 idx=009143 GeodesicLength=0.30352612822873887 rxn_smarts="[C:1]([c:2]1[c:3]([H:11])[o:4][c:5](=[O:6])[n:7]1[H:12])([H:8])([H:9])[H:10]>>[C:1]([c:2]1[c:3]([H:11])[o:4][c:5]([O:6][H:12])[n:7]1)([H:8])([H:9])[H:10]"
C       -1.62124840      -0.30354904      -0.74029436
C       -0.33749575       0.11263552      -0.12433272
C        0.15498959       1.33114748       0.14824011
O        1.44938065       1.19964209       0.64376540
C        1.57268993      -0.10041919       0.90251170
O        2.62257782      -0.80688203       1.00438723
N        0.61387860      -0.80779355       0.31003450
H       -1.44410168      -0.84680185      -1.67046771
H       -2.17798798      -0.96307080      -0.07172548
H       -2.24062540       0.56612481      -0.95587006
H       -0.25137364       2.32504030       0.09678668
H        1.65931626      -1.70607374       0.45696470
12
Frame=10 idx=009143 GeodesicLength=0.3372141239054748 rxn_smarts="[C:1]([c:2]1[c:3]([H:11])[o:4][c:5](=[O:6])[n:7]1[H:12])([H:8])([H:9])[H:10]>>[C:1]([c:2]1[c:3]([H:11])[o:4][c:5]([O:6][H:12])[n:7]1)([H:8])([H:9])[H:10]"
C       -1.62000549      -0.30393950      -0.74004654
C       -0.33768957       0.11461318      -0.12261311
C        0.15603806       1.33294634       0.14631537
O        1.45061556       1.19987165       0.63761697
C        1.56829744      -0.09859902       0.91504331
O        2.62038351      -0.80495009       1.00081377
N        0.60990189      -0.80667686       0.31850979
H       -1.44095286      -0.84767595      -1.66961540
H       -2.17731285      -0.96352835      -0.07194420
H       -2.24008394       0.56495680      -0.95684088
H       -0.25110512       2.32663750       0.09704402
H        1.66191337      -1.71365571       0.44571689
12
Frame=11 idx=009143 GeodesicLength=0.3709917718079352 rxn_smarts="[C:1]([c:2]1[c:3]([H:11])[o:4][c:5](=[O:6])[n:7]1[H:12])([H:8])([H:9])[H:10]>>[C:1]([c:2]1[c:3]([H:11])[o:4][c:5]([O:6][H:12])[n:7]1)([H:8])([H:9])[H:10]"
C       -1.61878333      -0.30433129      -0.73970187
C       -0.33775859       0.11659672      -0.12120050
C        0.15720823       1.33473981       0.14406202
O        1.45170917       1.20004701       0.63180428
C        1.56396419      -0.09667825       0.92719652
O        2.61779373      -0.80313025       0.99822201
N        0.60620805      -0.80551903       0.32622034
H       -1.43810555      -0.84849558      -1.66873275
H       -2.17641456      -0.96403863      -0.07194190
H       -2.23964699       0.56377865      -0.95746845
H       -0.25080126       2.32821547       0.09724897
H        1.66462693      -1.72118463       0.43429133
12
Frame=12 idx=009143 GeodesicLength=0.404777279164277 rxn_smarts="[C:1]([c:2]1[c:3]([H:11])[o:4][c:5](=[O:6])[n:7]1[H:12])([H:8])([H:9])[H:10]>>[C:1]([c:2]1[c:3]([H:11])[o:4][c:5]([O:6][H:12])[n:7]1)([H:8])([H:9])[H:10]"
C       -1.61757587      -0.30474826      -0.73931425
C       -0.33780839       0.11858229      -0.11979967
C        0.15842649       1.33653648       0.14172488
O        1.45277567       1.20019746       0.62610939
C        1.55981000      -0.09460463       0.93903224
O        2.61491340      -0.80145516       0.99613137
N        0.60265004      -0.80429902       0.33372475
H       -1.43531226      -0.84931193      -1.66783912
H       -2.17547462      -0.96460891      -0.07186634
H       -2.23926962       0.56255760      -0.95800071
H       -0.25045412       2.32979001       0.09743623
H        1.66731928      -1.72863593       0.42266123
12
Frame=13 idx=009143 GeodesicLength=0.4385759634659332 rxn_smarts="[C:1]([c:2]1[c:3]([H:11])[o:4][c:5](=[O:6])[n:7]1[H:12])([H:8])([H:9])[H:10]>>[C:1]([c:2]1[c:3]([H:11])[o:4][c:5]([O:6][H:12])[n:7]1)([H:8])([H:9])[H:10]"
C       -1.61635744      -0.30518925      -0.73887839
C       -0.33785731       0.12056719      -0.11835901
C        0.15967505       1.33833113       0.13933156
O        1.45380882       1.20031810       0.62050934
C        1.55578169      -0.09238761       0.95060505
O        2.61177504      -0.79991647       0.99444242
N        0.59916510      -0.80302819       0.34113389
H       -1.43250853      -0.85016131      -1.66688971
H       -2.17450259      -0.96520619      -0.07172818
H       -2.23889334       0.56130014      -0.95849228
H       -0.25006541       2.33136091       0.09758781
H        1.66997890      -1.73598844       0.41073751
12
Frame=14 idx=009143 GeodesicLength=0.47237894232994493 rxn_smarts="[C:1]([c:2]1[c:3]([H:11])[o:4][c:5](=[O:6])[n:7]1[H:12])([H:8])([H:9])[H:10]>>[C:1]([c:2]1[c:3]([H:11])[o:4][c:5]([O:6][H:12])[n:7]1)([H:8])([H:9])[H:10]"
C       -1.61514485      -0.30565553      -0.73836853
C       -0.33789466       0.12254589      -0.11690565
C        0.16096234       1.34011258       0.13688224
O        1.45476577       1.20039315       0.61514700
C        1.55180254      -0.09006369       0.96203581
O        2.60834594      -0.79852946       0.99326708
N        0.59577311      -0.80171983       0.34838894
H       -1.42975083      -0.85104930      -1.66586264
H       -2.17349723      -0.96582215      -0.07147646
H       -2.23853492       0.56000725      -0.95890126
H       -0.24955474       2.33294040       0.09749920
H        1.67272755      -1.74315932       0.39829429
12
Frame=15 idx=009143 GeodesicLength=0.5063004356648234 rxn_smarts="[C:1]([c:2]1[c:3]([H:11])[o:4][c:5](=[O:6])[n:7]1[H:12])([H:8])([H:9])[H:10]>>[C:1]([c:2]1[c:3]([H:11])[o:4][c:5]([O:6][H:12])[n:7]1)([H:8])([H:9])[H:10]"
C       -1.61398186      -0.30617559      -0.73781386
C       -0.33800440       0.12450762      -0.11528422
C        0.16227152       1.34189349       0.13451579
O        1.45574539       1.20045944       0.60998070
C        1.54795462      -0.08759658       0.97337658
O        2.60473368      -0.79726664       0.99243313
N        0.59239944      -0.80038610       0.35564832
H       -1.42697951      -0.85193597      -1.66484902
H       -2.17257027      -0.96656975      -0.07122299
H       -2.23824284       0.55864970      -0.95924912
H       -0.24882353       2.33458313       0.09708751
H        1.67549776      -1.75016274       0.38537720
12
Frame=16 idx=009143 GeodesicLength=0.5400052586080482 rxn_smarts="[C:1]([c:2]1[c:3]([H:11])[o:4][c:5](=[O:6])[n:7]1[H:12])([H:8])([H:9])[H:10]>>[C:1]([c:2]1[c:3]([H:11])[o:4][c:5]([O:6][H:12])[n:7]1)([H:8])([H:9])[H:10]"
C       -1.61270152      -0.30667497      -0.73713583
C       -0.33808869       0.12648133      -0.11358545
C        0.16355808       1.34362653       0.13205121
O        1.45651789       1.20040435       0.60491381
C        1.54402449      -0.08508639       0.98452087
O        2.60073002      -0.79620576       0.99202134
N        0.58909838      -0.79900044       0.36287900
H       -1.42407873      -0.85283859      -1.66360213
H       -2.17146017      -0.96723724      -0.07085025
H       -2.23783650       0.55729295      -0.95953289
H       -0.24809615       2.33616987       0.09644460
H        1.67833290      -1.75693163       0.37187573
