15
Frame=0 idx=011795 GeodesicLength=0.0 rxn_smarts="[C:1]([N:2](/[C:3](=[N:4]\[H:12])[C:5](=[O:6])[C:7]([H:13])([H:14])[H:15])[H:11])([H:8])([H:9])[H:10]>>[C:1]([N:2]=[C:3]=[N:4][C:5](=[O:6])[C:7]([H:13])([H:14])[H:15])([H:8])([H:9])[H:10].[H:11][H:12]"
C       -1.86545031      -0.57141636      -0.74100232
N       -1.18327976       0.45608167       0.00376965
C       -0.11903655       0.30833945       0.70656699
N        0.43926230       0.79640387       1.70314109
C        1.04265081      -0.66644307       0.16046523
O        0.88356567      -1.83092101       0.29133299
C        2.12982345       0.04454138      -0.57621944
H       -2.22571131      -0.16929386      -1.68836845
H       -2.72562045      -0.93751055      -0.17381716
H       -1.22428855      -1.43558606      -0.94398158
H       -1.47117397       1.63175586       1.45338927
H       -0.87090125       1.70598588       2.00937704
H        2.83672971       0.42491739       0.16295169
H        2.62907389      -0.65237688      -1.24649643
H        1.72435638       0.89552225      -1.12110862
15
Frame=1 idx=011795 GeodesicLength=0.15511037756210264 rxn_smarts="[C:1]([N:2](/[C:3](=[N:4]\[H:12])[C:5](=[O:6])[C:7]([H:13])([H:14])[H:15])[H:11])([H:8])([H:9])[H:10]>>[C:1]([N:2]=[C:3]=[N:4][C:5](=[O:6])[C:7]([H:13])([H:14])[H:15])([H:8])([H:9])[H:10].[H:11][H:12]"
C       -1.90540951      -0.56733203      -0.74286268
N       -1.22527791       0.43343346       0.03171799
C       -0.11279056       0.35542362       0.65781793
N        0.47548880       0.87052417       1.62350587
C        1.06514187      -0.63464335       0.15256347
O        0.90337413      -1.79609416       0.31644034
C        2.17580326       0.04137733      -0.58260273
H       -2.19048549      -0.18307444      -1.72238384
H       -2.81591970      -0.86974516      -0.21759687
H       -1.30839917      -1.47358139      -0.88649401
H       -1.53347430       1.53702711       1.53816664
H       -0.87641712       1.65022861       2.05755099
H        2.87536654       0.43619379       0.15609005
H        2.68112442      -0.68026267      -1.22135371
H        1.79187474       0.88052510      -1.16055943
15
Frame=2 idx=011795 GeodesicLength=0.30773810741075114 rxn_smarts="[C:1]([N:2](/[C:3](=[N:4]\[H:12])[C:5](=[O:6])[C:7]([H:13])([H:14])[H:15])[H:11])([H:8])([H:9])[H:10]>>[C:1]([N:2]=[C:3]=[N:4][C:5](=[O:6])[C:7]([H:13])([H:14])[H:15])([H:8])([H:9])[H:10].[H:11][H:12]"
C       -1.94947670      -0.56520592      -0.74402896
N       -1.26856690       0.40493425       0.06165134
C       -0.11210784       0.40684574       0.59809708
N        0.50167706       0.94732134       1.53436144
C        1.08478176      -0.59908591       0.14250249
O        0.91863830      -1.75636297       0.33954837
C        2.22276677       0.04034944      -0.58433716
H       -2.16099850      -0.20148146      -1.74934399
H       -2.90334848      -0.80302755      -0.26372821
H       -1.40070681      -1.50817448      -0.83129482
H       -1.57716379       1.43327219       1.62342202
H       -0.86719940       1.59042220       2.10132338
H        2.91111378       0.45057112       0.15663722
H        2.73625354      -0.70601662      -1.18707943
H        1.86433722       0.86563864      -1.19773077
15
Frame=3 idx=011795 GeodesicLength=0.45792031498432456 rxn_smarts="[C:1]([N:2](/[C:3](=[N:4]\[H:12])[C:5](=[O:6])[C:7]([H:13])([H:14])[H:15])[H:11])([H:8])([H:9])[H:10]>>[C:1]([N:2]=[C:3]=[N:4][C:5](=[O:6])[C:7]([H:13])([H:14])[H:15])([H:8])([H:9])[H:10].[H:11][H:12]"
C       -1.99718231      -0.56370575      -0.74466934
N       -1.30860893       0.37128585       0.09031328
C       -0.11826680       0.45828069       0.52913311
N        0.51735854       1.02575102       1.43536730
C        1.10208606      -0.56073138       0.13161824
O        0.93065909      -1.71293716       0.36076367
C        2.26955940       0.04222529      -0.58050607
H       -2.13768597      -0.22517999      -1.77065675
H       -2.98738078      -0.73169544      -0.31003579
H       -1.50317356      -1.53979526      -0.77740817
H       -1.60041130       1.31589981       1.70840380
H       -0.84197061       1.52786319       2.13692929
H        2.94233605       0.47030395       0.16468858
H        2.79368206      -0.72793212      -1.14262418
H        1.93899906       0.85036729      -1.23131698
15
Frame=4 idx=011795 GeodesicLength=0.6068485914780002 rxn_smarts="[C:1]([N:2](/[C:3](=[N:4]\[H:12])[C:5](=[O:6])[C:7]([H:13])([H:14])[H:15])[H:11])([H:8])([H:9])[H:10]>>[C:1]([N:2]=[C:3]=[N:4][C:5](=[O:6])[C:7]([H:13])([H:14])[H:15])([H:8])([H:9])[H:10].[H:11][H:12]"
C       -2.04998585      -0.56372358      -0.74288270
N       -1.34206570       0.33263222       0.11411083
C       -0.13106002       0.50064447       0.45565305
N        0.52280583       1.09422917       1.33304123
C        1.11831260      -0.52336477       0.11741275
O        0.94216430      -1.67148080       0.37087816
C        2.31661501       0.04955844      -0.56908354
H       -2.12625450      -0.25765838      -1.78538630
H       -3.06747891      -0.65335797      -0.34952018
H       -1.61939003      -1.56985364      -0.72399222
H       -1.60111397       1.19610195       1.78222204
H       -0.80147333       1.47016572       2.15692017
H        2.96844883       0.49444341       0.18487355
H        2.85472896      -0.73939528      -1.09023471
H        2.01574678       0.84105904      -1.25401214
15
Frame=5 idx=011795 GeodesicLength=0.7549602237664742 rxn_smarts="[C:1]([N:2](/[C:3](=[N:4]\[H:12])[C:5](=[O:6])[C:7]([H:13])([H:14])[H:15])[H:11])([H:8])([H:9])[H:10]>>[C:1]([N:2]=[C:3]=[N:4][C:5](=[O:6])[C:7]([H:13])([H:14])[H:15])([H:8])([H:9])[H:10].[H:11][H:12]"
C       -2.10693544      -0.56452149      -0.73851212
N       -1.36814137       0.29031251       0.13170860
C       -0.14855187       0.53143667       0.38077039
N        0.52037362       1.15083792       1.23004389
C        1.13479126      -0.48844052       0.10016596
O        0.95488333      -1.63427909       0.36893221
C        2.36369971       0.06230113      -0.55092353
H       -2.12625003      -0.30068076      -1.79476268
H       -3.14207645      -0.56533204      -0.38238087
H       -1.75007541      -1.59705733      -0.66817777
H       -1.58296945       1.07646119       1.84311372
H       -0.75048043       1.41790053       2.16195359
H        2.98947630       0.52279408       0.21566678
H        2.91887868      -0.74011621      -1.03185429
H        2.09337756       0.83838341      -1.26574389
15
Frame=6 idx=011795 GeodesicLength=0.9022900505655378 rxn_smarts="[C:1]([N:2](/[C:3](=[N:4]\[H:12])[C:5](=[O:6])[C:7]([H:13])([H:14])[H:15])[H:11])([H:8])([H:9])[H:10]>>[C:1]([N:2]=[C:3]=[N:4][C:5](=[O:6])[C:7]([H:13])([H:14])[H:15])([H:8])([H:9])[H:10].[H:11][H:12]"
C       -2.16724576      -0.56578499      -0.73141079
N       -1.38730282       0.24369292       0.14384697
C       -0.16874590       0.54971303       0.30629535
N        0.51239663       1.19442198       1.12826929
C        1.15260390      -0.45697710       0.07980151
O        0.97049916      -1.60290447       0.35448868
C        2.41080156       0.08002936      -0.52696095
H       -2.13803870      -0.35413201      -1.79885213
H       -3.20895660      -0.46802429      -0.40917147
H       -1.89483774      -1.61922200      -0.60914678
H       -1.55084413       0.96086850       1.88990725
H       -0.69314312       1.37157588       2.15328470
H        3.00564043       0.55434103       0.25568226
H        2.98567581      -0.73053784      -0.96928727
H        2.17149727       0.84294000      -1.26674662
15
Frame=7 idx=011795 GeodesicLength=1.0486725752490258 rxn_smarts="[C:1]([N:2](/[C:3](=[N:4]\[H:12])[C:5](=[O:6])[C:7]([H:13])([H:14])[H:15])[H:11])([H:8])([H:9])[H:10]>>[C:1]([N:2]=[C:3]=[N:4][C:5](=[O:6])[C:7]([H:13])([H:14])[H:15])([H:8])([H:9])[H:10].[H:11][H:12]"
C       -2.23005711      -0.56682862      -0.72176649
N       -1.40006987       0.19096123       0.15176917
C       -0.19022106       0.55550733       0.23278614
N        0.50043156       1.22597711       1.02758401
C        1.17260813      -0.42931977       0.05697626
O        0.99079891      -1.57766022       0.32963090
C        2.45765873       0.10197903      -0.49820554
H       -2.16174016      -0.41620208      -1.79751192
H       -3.26564978      -0.36203692      -0.43144914
H       -2.05284152      -1.63336571      -0.54714407
H       -1.50859379       0.84861669       1.92431205
H       -0.63302085       1.33174136       2.13200421
H        3.01682606       0.58894329       0.30275961
H        3.05459411      -0.71204705      -0.90309832
H        2.24927663       0.85373432      -1.25864685
15
Frame=8 idx=011795 GeodesicLength=1.1940133350988031 rxn_smarts="[C:1]([N:2](/[C:3](=[N:4]\[H:12])[C:5](=[O:6])[C:7]([H:13])([H:14])[H:15])[H:11])([H:8])([H:9])[H:10]>>[C:1]([N:2]=[C:3]=[N:4][C:5](=[O:6])[C:7]([H:13])([H:14])[H:15])([H:8])([H:9])[H:10].[H:11][H:12]"
C       -2.29488417      -0.56696715      -0.70949236
N       -1.40649845       0.13015416       0.15561989
C       -0.21188835       0.54861388       0.15985026
N        0.48530731       1.24618624       0.92705136
C        1.19555275      -0.40566494       0.03192144
O        1.01770433      -1.55841783       0.29649232
C        2.50421038       0.12768652      -0.46523081
H       -2.19899980      -0.48506426      -1.79040487
H       -3.30949936      -0.24809123      -0.44947986
H       -2.22320376      -1.63614739      -0.48194966
H       -1.45960534       0.73925233       1.94691797
H       -0.57280856       1.29725844       2.09903916
H        3.02273155       0.62654875       0.35550928
H        3.12549036      -0.68546674      -0.83327057
H        2.32639111       0.87011923      -1.24257353
15
Frame=9 idx=011795 GeodesicLength=1.3386595379726305 rxn_smarts="[C:1]([N:2](/[C:3](=[N:4]\[H:12])[C:5](=[O:6])[C:7]([H:13])([H:14])[H:15])[H:11])([H:8])([H:9])[H:10]>>[C:1]([N:2]=[C:3]=[N:4][C:5](=[O:6])[C:7]([H:13])([H:14])[H:15])([H:8])([H:9])[H:10].[H:11][H:12]"
C       -2.36174742      -0.56506128      -0.69428137
N       -1.40594073       0.05745520       0.15460969
C       -0.23268400       0.52737022       0.08623626
N        0.46715624       1.25528332       0.82433337
C        1.22265102      -0.38665310       0.00528564
O        1.05416563      -1.54520276       0.25890546
C        2.55068633       0.15669416      -0.42798835
H       -2.25535036      -0.55399041      -1.77702695
H       -3.33798672      -0.12909170      -0.45868453
H       -2.40312305      -1.62421894      -0.41693388
H       -1.40666394       0.63166297       1.95747633
H       -0.51571395       1.26849849       2.05298086
H        3.02269888       0.66806656       0.41285973
H        3.19914498      -0.65138355      -0.75802579
H        2.40270708       0.89057082      -1.21974648
15
Frame=10 idx=011795 GeodesicLength=1.4822621259676554 rxn_smarts="[C:1]([N:2](/[C:3](=[N:4]\[H:12])[C:5](=[O:6])[C:7]([H:13])([H:14])[H:15])[H:11])([H:8])([H:9])[H:10]>>[C:1]([N:2]=[C:3]=[N:4][C:5](=[O:6])[C:7]([H:13])([H:14])[H:15])([H:8])([H:9])[H:10].[H:11][H:12]"
C       -2.42934330      -0.56028359      -0.67534191
N       -1.39881996      -0.02642331       0.14577726
C       -0.25177173       0.49187961       0.01055421
N        0.44621144       1.25276714       0.71868278
C        1.25379708      -0.37205636      -0.02363232
O        1.10029559      -1.53736598       0.21708126
C        2.59628283       0.18919140      -0.38671244
H       -2.33036628      -0.62495031      -1.75680922
H       -3.34774604      -0.00401890      -0.46189566
H       -2.59054078      -1.59258276      -0.34469822
H       -1.35171799       0.52244089       1.95594248
H       -0.46384001       1.24209405       1.99439301
H        3.01545050       0.71287054       0.47429387
H        3.27430249      -0.60948410      -0.67752027
H        2.47780615       0.91592168      -1.19011483
15
Frame=11 idx=011795 GeodesicLength=1.625186599580642 rxn_smarts="[C:1]([N:2](/[C:3](=[N:4]\[H:12])[C:5](=[O:6])[C:7]([H:13])([H:14])[H:15])[H:11])([H:8])([H:9])[H:10]>>[C:1]([N:2]=[C:3]=[N:4][C:5](=[O:6])[C:7]([H:13])([H:14])[H:15])([H:8])([H:9])[H:10].[H:11][H:12]"
C       -2.49634968      -0.55113430      -0.65191900
N       -1.38571441      -0.12195386       0.12563483
C       -0.26833164       0.44148514      -0.06979485
N        0.42221611       1.23876890       0.60720343
C        1.28887438      -0.36203342      -0.05429568
O        1.15626133      -1.53424265       0.17445212
C        2.63988696       0.22467801      -0.34079571
H       -2.42843315      -0.69073775      -1.72860383
H       -3.33664963       0.12221715      -0.45523497
H       -2.77690606      -1.53739359      -0.26478208
H       -1.29387721       0.40672992       1.94152626
H       -0.42063877       1.21799833       1.92061170
H        2.99885719       0.76121896       0.53924220
H        3.34974311      -0.56040183      -0.58915102
H        2.55106146       0.94480101      -1.15409339
15
Frame=12 idx=011795 GeodesicLength=1.7670566894828865 rxn_smarts="[C:1]([N:2](/[C:3](=[N:4]\[H:12])[C:5](=[O:6])[C:7]([H:13])([H:14])[H:15])[H:11])([H:8])([H:9])[H:10]>>[C:1]([N:2]=[C:3]=[N:4][C:5](=[O:6])[C:7]([H:13])([H:14])[H:15])([H:8])([H:9])[H:10].[H:11][H:12]"
C       -2.55942825      -0.53690848      -0.62350281
N       -1.36935641      -0.22408560       0.09147588
C       -0.28220894       0.37888569      -0.15606601
N        0.39582365       1.21390523       0.48994194
C        1.32557672      -0.35576174      -0.08687938
O        1.21795262      -1.53452896       0.13085212
C        2.67852096       0.26233155      -0.29030593
H       -2.54593488      -0.75061060      -1.69002051
H       -3.30371699       0.24516819      -0.44383055
H       -2.95060728      -1.45562927      -0.17139217
H       -1.23027292       0.28016784       1.91464310
H       -0.38801323       1.19453381       1.83224620
H        2.97032411       0.81081238       0.60698038
H        3.42086761      -0.50548601      -0.49297741
H        2.62047320       0.97720598      -1.11116487
15
Frame=13 idx=011795 GeodesicLength=1.90841956660303 rxn_smarts="[C:1]([N:2](/[C:3](=[N:4]\[H:12])[C:5](=[O:6])[C:7]([H:13])([H:14])[H:15])[H:11])([H:8])([H:9])[H:10]>>[C:1]([N:2]=[C:3]=[N:4][C:5](=[O:6])[C:7]([H:13])([H:14])[H:15])([H:8])([H:9])[H:10].[H:11][H:12]"
C       -2.61514407      -0.51744093      -0.59000948
N       -1.35263551      -0.32804407       0.04282661
C       -0.29353068       0.30718879      -0.24873204
N        0.36812872       1.17945947       0.36726962
C        1.36145975      -0.35255210      -0.12124335
O        1.28102422      -1.53719026       0.08628819
C        2.70909473       0.30079708      -0.23541048
H       -2.67817309      -0.80049040      -1.63847162
H       -3.25110627       0.35877668      -0.43068282
H       -3.09802650      -1.34902572      -0.06396188
H       -1.15843624       0.14261746       1.87530100
H       -0.36680541       1.17131109       1.73033234
H        2.92748395       0.85917488       0.67645628
H        3.48295855      -0.44689498      -0.38893203
H        2.68370785       1.01231300      -1.06103033
15
Frame=14 idx=011795 GeodesicLength=2.0495021856119093 rxn_smarts="[C:1]([N:2](/[C:3](=[N:4]\[H:12])[C:5](=[O:6])[C:7]([H:13])([H:14])[H:15])[H:11])([H:8])([H:9])[H:10]>>[C:1]([N:2]=[C:3]=[N:4][C:5](=[O:6])[C:7]([H:13])([H:14])[H:15])([H:8])([H:9])[H:10].[H:11][H:12]"
C       -2.66010137      -0.49371804      -0.55201180
N       -1.33855908      -0.42774798      -0.01696636
C       -0.30316864       0.23150711      -0.34528516
N        0.34118484       1.13762520       0.24295464
C        1.39375313      -0.35122243      -0.15817257
O        1.34055247      -1.54124171       0.03740141
C        2.72864642       0.33842682      -0.17732583
H       -2.81490972      -0.84280918      -1.57082823
H       -3.18305810       0.45914527      -0.42520537
H       -3.20864266      -1.22145624       0.05690149
H       -1.08000646      -0.00106606       1.82525831
H       -0.35407596       1.14760829       1.62029178
H        2.86958166       0.90190064       0.74652079
H        3.53092998      -0.38748624      -0.28053679
H        2.73787351       1.05053457      -1.00299632
15
Frame=15 idx=011795 GeodesicLength=2.1924006202847934 rxn_smarts="[C:1]([N:2](/[C:3](=[N:4]\[H:12])[C:5](=[O:6])[C:7]([H:13])([H:14])[H:15])[H:11])([H:8])([H:9])[H:10]>>[C:1]([N:2]=[C:3]=[N:4][C:5](=[O:6])[C:7]([H:13])([H:14])[H:15])([H:8])([H:9])[H:10].[H:11][H:12]"
C       -2.69209041      -0.46622515      -0.51006765
N       -1.32768408      -0.52424968      -0.08544605
C       -0.31103537       0.15154831      -0.44467704
N        0.31558292       1.08923962       0.11641950
C        1.42238112      -0.35214387      -0.19583938
O        1.39667661      -1.54654407      -0.01110416
C        2.73601654       0.37430824      -0.11714455
H       -2.95142720      -0.86712403      -1.48772845
H       -3.10333274       0.54371869      -0.42021231
H       -3.27720121      -1.08182760       0.18230253
H       -0.99809417      -0.14684722       1.76449052
H       -0.35002228       1.12575340       1.50176983
H        2.79629321       0.93959575       0.81424863
H        3.56338296      -0.32850077      -0.16764115
H        2.78055410       1.08929839      -0.93937027
15
Frame=16 idx=011795 GeodesicLength=2.3367520198171827 rxn_smarts="[C:1]([N:2](/[C:3](=[N:4]\[H:12])[C:5](=[O:6])[C:7]([H:13])([H:14])[H:15])[H:11])([H:8])([H:9])[H:10]>>[C:1]([N:2]=[C:3]=[N:4][C:5](=[O:6])[C:7]([H:13])([H:14])[H:15])([H:8])([H:9])[H:10].[H:11][H:12]"
C       -2.71044884      -0.43652959      -0.46500012
N       -1.32151302      -0.61213720      -0.15723322
C       -0.31867687       0.07314808      -0.54359722
N        0.29319082       1.03793312      -0.00852675
C        1.44581333      -0.35350733      -0.23641797
O        1.44624653      -1.55197130      -0.06572284
C        2.73035847       0.40697752      -0.05564377
H       -3.07766375      -0.88351867      -1.38667667
H       -3.01818985       0.61275064      -0.42731963
H       -3.30296883      -0.93341438       0.31092273
H       -0.91520659      -0.29144373       1.69685117
H       -0.34877874       1.10738045       1.38059943
H        2.70876010       0.96732354       0.88032946
H        3.57796842      -0.27297984      -0.05429226
H        2.81110881       1.12998867      -0.86827235
