11
Frame=0 idx=005701 GeodesicLength=0.0 rxn_smarts="[C:1]([C@@:2]1([C:5]#[N:6])[C:3]([H:10])([H:11])[O:4]1)([H:7])([H:8])[H:9]>>[C:1]([C@@:2]([O+:4]=[C-:3][H:11])([C:5]#[N:6])[H:10])([H:7])([H:8])[H:9]"
C       -1.18981321      -0.22555699       0.02535446
C        0.25877436       0.19197940      -0.07937457
C        1.67391040      -0.99456395       0.24519807
O        1.02701526      -0.61396594      -0.94477547
C        0.46375088       1.61175501      -0.38217812
N        0.56804527       2.72919830      -0.61190992
H       -1.68527071      -0.03313428      -0.92616526
H       -1.24598329      -1.29094630       0.24371342
H       -1.70128880       0.33090574       0.81035705
H        0.81151882       0.09495980       0.95122961
H        1.01934107      -1.80063074       0.66855071
11
Frame=1 idx=005701 GeodesicLength=0.05563620544202976 rxn_smarts="[C:1]([C@@:2]1([C:5]#[N:6])[C:3]([H:10])([H:11])[O:4]1)([H:7])([H:8])[H:9]>>[C:1]([C@@:2]([O+:4]=[C-:3][H:11])([C:5]#[N:6])[H:10])([H:7])([H:8])[H:9]"
C       -1.19206160      -0.22434284       0.02271909
C        0.25774523       0.19121146      -0.07616905
C        1.67071485      -0.99591030       0.23775944
O        1.02336378      -0.61504082      -0.94647670
C        0.46080461       1.61055463      -0.38288915
N        0.56476027       2.72848025      -0.61072030
H       -1.68586910      -0.03098456      -0.92949402
H       -1.25212536      -1.28988173       0.23937591
H       -1.70481312       0.33240811       0.80670065
H        0.83004725       0.09353219       0.96120606
H        1.02743320      -1.80002639       0.67798807
11
Frame=2 idx=005701 GeodesicLength=0.111276630584863 rxn_smarts="[C:1]([C@@:2]1([C:5]#[N:6])[C:3]([H:10])([H:11])[O:4]1)([H:7])([H:8])[H:9]>>[C:1]([C@@:2]([O+:4]=[C-:3][H:11])([C:5]#[N:6])[H:10])([H:7])([H:8])[H:9]"
C       -1.19440102      -0.22314038       0.02002400
C        0.25661591       0.19040837      -0.07298547
C        1.66731032      -0.99731359       0.23046317
O        1.01967441      -0.61613259      -0.94814310
C        0.45781930       1.60932347      -0.38353789
N        0.56146900       2.72773264      -0.60944251
H       -1.68653291      -0.02881540      -0.93288586
H       -1.25837674      -1.28881643       0.23495906
H       -1.70840890       0.33388595       0.80300712
H        0.84915053       0.09217076       0.97104679
H        1.03568011      -1.79930281       0.68749469
11
Frame=3 idx=005701 GeodesicLength=0.1669094108403404 rxn_smarts="[C:1]([C@@:2]1([C:5]#[N:6])[C:3]([H:10])([H:11])[O:4]1)([H:7])([H:8])[H:9]>>[C:1]([C@@:2]([O+:4]=[C-:3][H:11])([C:5]#[N:6])[H:10])([H:7])([H:8])[H:9]"
C       -1.19683045      -0.22194379       0.01726581
C        0.25537952       0.18956755      -0.06981685
C        1.66368952      -0.99877642       0.22332191
O        1.01594270      -0.61723739      -0.94975834
C        0.45478379       1.60805340      -0.38411236
N        0.55815898       2.72693844      -0.60808046
H       -1.68725742      -0.02661457      -0.93634026
H       -1.26473260      -1.28773969       0.23045698
H       -1.71207631       0.33534055       0.79926456
H        0.86885518       0.09087109       0.98073429
H        1.04408709      -1.79845919       0.69706473
11
Frame=4 idx=005701 GeodesicLength=0.222536332946396 rxn_smarts="[C:1]([C@@:2]1([C:5]#[N:6])[C:3]([H:10])([H:11])[O:4]1)([H:7])([H:8])[H:9]>>[C:1]([C@@:2]([O+:4]=[C-:3][H:11])([C:5]#[N:6])[H:10])([H:7])([H:8])[H:9]"
C       -1.19935938      -0.22076068       0.01444391
C        0.25403205       0.18869029      -0.06666287
C        1.65984843      -1.00029721       0.21634629
O        1.01217655      -0.61835712      -0.95132568
C        0.45170323       1.60675367      -0.38460877
N        0.55484800       2.72611100      -0.60663104
H       -1.68804769      -0.02439458      -0.93986395
H       -1.27120514      -1.28666384       0.22586884
H       -1.71582702       0.33676445       0.79548185
H        0.88918681       0.08964649       0.99025428
H        1.05264416      -1.79749246       0.70669715
11
Frame=5 idx=005701 GeodesicLength=0.2781596373789807 rxn_smarts="[C:1]([C@@:2]1([C:5]#[N:6])[C:3]([H:10])([H:11])[O:4]1)([H:7])([H:8])[H:9]>>[C:1]([C@@:2]([O+:4]=[C-:3][H:11])([C:5]#[N:6])[H:10])([H:7])([H:8])[H:9]"
C       -1.20199185      -0.21958965       0.01155442
C        0.25256854       0.18777544      -0.06352144
C        1.65578221      -1.00187696       0.20954844
O        1.00837802      -0.61949038      -0.95283550
C        0.44857261       1.60542215      -0.38502114
N        0.55153246       2.72524659      -0.60508920
H       -1.68890463      -0.02215502      -0.94346242
H       -1.27779538      -1.28558546       0.22119496
H       -1.71966580       0.33815656       0.79165378
H        0.91017755       0.08850007       0.99958821
H        1.06134627      -1.79640336       0.71638989
11
Frame=6 idx=005701 GeodesicLength=0.33377691941571924 rxn_smarts="[C:1]([C@@:2]1([C:5]#[N:6])[C:3]([H:10])([H:11])[O:4]1)([H:7])([H:8])[H:9]>>[C:1]([C@@:2]([O+:4]=[C-:3][H:11])([C:5]#[N:6])[H:10])([H:7])([H:8])[H:9]"
C       -1.20473310      -0.21843088       0.00859486
C        0.25098288       0.18682101      -0.06038574
C        1.65148639      -1.00351991       0.20293593
O        1.00454235      -0.62064032      -0.95428292
C        0.44539115       1.60405672      -0.38534050
N        0.54820890       2.72434216      -0.60345009
H       -1.68982722      -0.01988945      -0.94713864
H       -1.28451265      -1.28450549       0.21642439
H       -1.72360336       0.33951587       0.78777423
H        0.93186320       0.08743253       1.00871403
H        1.07020147      -1.79518225       0.72615445
11
Frame=7 idx=005701 GeodesicLength=0.38938661650931405 rxn_smarts="[C:1]([C@@:2]1([C:5]#[N:6])[C:3]([H:10])([H:11])[O:4]1)([H:7])([H:8])[H:9]>>[C:1]([C@@:2]([O+:4]=[C-:3][H:11])([C:5]#[N:6])[H:10])([H:7])([H:8])[H:9]"
C       -1.20759096      -0.21728857       0.00556330
C        0.24926844       0.18582579      -0.05724758
C        1.64695698      -1.00521595       0.19652384
O        1.00067137      -0.62180335      -0.95565832
C        0.44215741       1.60266080      -0.38555193
N        0.54489005       2.72339567      -0.60172519
H       -1.69081882      -0.01759553      -0.95089707
H       -1.29136456      -1.28342996       0.21154878
H       -1.72765006       0.34083123       0.78384651
H        0.95427740       0.08644749       1.01761256
H        1.07920274      -1.79382762       0.73598510
11
Frame=8 idx=005701 GeodesicLength=0.4449880288041885 rxn_smarts="[C:1]([C@@:2]1([C:5]#[N:6])[C:3]([H:10])([H:11])[O:4]1)([H:7])([H:8])[H:9]>>[C:1]([C@@:2]([O+:4]=[C-:3][H:11])([C:5]#[N:6])[H:10])([H:7])([H:8])[H:9]"
C       -1.21056512      -0.21615536       0.00245339
C        0.24741966       0.18478586      -0.05410474
C        1.64218475      -1.00698238       0.19031709
O        0.99675847      -0.62298855      -0.95695146
C        0.43886330       1.60122333      -0.38565087
N        0.54154915       2.72239805      -0.59988822
H       -1.69187175      -0.01526518      -0.95474133
H       -1.29835080      -1.28234739       0.20656120
H       -1.73181042       0.34211389       0.77985222
H        0.97746390       0.08554425       1.02624955
H        1.08835885      -1.79232653       0.74590318
11
Frame=9 idx=005701 GeodesicLength=0.5005872575168646 rxn_smarts="[C:1]([C@@:2]1([C:5]#[N:6])[C:3]([H:10])([H:11])[O:4]1)([H:7])([H:8])[H:9]>>[C:1]([C@@:2]([O+:4]=[C-:3][H:11])([C:5]#[N:6])[H:10])([H:7])([H:8])[H:9]"
C       -1.21366823      -0.21503783      -0.00073644
C        0.24542992       0.18369980      -0.05094712
C        1.63716838      -1.00881200       0.18432996
O        0.99280510      -0.62419478      -0.95815963
C        0.43551456       1.59975161      -0.38562380
N        0.53819954       2.72135767      -0.59794136
H       -1.69299056      -0.01290491      -0.95868262
H       -1.30549027      -1.28126855       0.20145738
H       -1.73610335       0.34335747       0.77579258
H        1.00146913       0.08472893       1.03460036
H        1.09766576      -1.79067741       0.75591071
11
Frame=10 idx=005701 GeodesicLength=0.5561818480953598 rxn_smarts="[C:1]([C@@:2]1([C:5]#[N:6])[C:3]([H:10])([H:11])[O:4]1)([H:7])([H:8])[H:9]>>[C:1]([C@@:2]([O+:4]=[C-:3][H:11])([C:5]#[N:6])[H:10])([H:7])([H:8])[H:9]"
C       -1.21690564      -0.21393467      -0.00401087
C        0.24329142       0.18256478      -0.04776790
C        1.63190086      -1.01070726       0.17857587
O        0.98880885      -0.62542461      -0.95927086
C        0.43210635       1.59824146      -0.38545850
N        0.53483570       2.72026818      -0.59587545
H       -1.69417335      -0.01050951      -0.96272604
H       -1.31278852      -1.28019078       0.19622848
H       -1.74053899       0.34456141       0.77165868
H        1.02633823       0.08400147       1.04262911
H        1.10712510      -1.78887047       0.76601748
11
Frame=11 idx=005701 GeodesicLength=0.6117786429763439 rxn_smarts="[C:1]([C@@:2]1([C:5]#[N:6])[C:3]([H:10])([H:11])[O:4]1)([H:7])([H:8])[H:9]>>[C:1]([C@@:2]([O+:4]=[C-:3][H:11])([C:5]#[N:6])[H:10])([H:7])([H:8])[H:9]"
C       -1.22028774      -0.21284980      -0.00737407
C        0.24099729       0.18137897      -0.04456067
C        1.62637630      -1.01266940       0.17306724
O        0.98476964      -0.62668240      -0.96028026
C        0.42864093       1.59669461      -0.38514432
N        0.53146255       2.71913429      -0.59367810
H       -1.69542241      -0.00808174      -0.96688118
H       -1.32026046      -1.27912050       0.19086605
H       -1.74513371       0.34572162       0.76744772
H        1.05212305       0.08336922       1.05029972
H        1.11673457      -1.78689487       0.77623786
11
Frame=12 idx=005701 GeodesicLength=0.667352346667336 rxn_smarts="[C:1]([C@@:2]1([C:5]#[N:6])[C:3]([H:10])([H:11])[O:4]1)([H:7])([H:8])[H:9]>>[C:1]([C@@:2]([O+:4]=[C-:3][H:11])([C:5]#[N:6])[H:10])([H:7])([H:8])[H:9]"
C       -1.22381627      -0.21177693      -0.01083049
C        0.23853400       0.18013755      -0.04131194
C        1.62058810      -1.01469365       0.16782837
O        0.98068252      -0.62796695      -0.96116145
C        0.42510500       1.59510272      -0.38465944
N        0.52806818       2.71793761      -0.59134882
H       -1.69672862      -0.00560997      -0.97114977
H       -1.32790332      -1.27804624       0.18536311
H       -1.74989522       0.34684279       0.76314066
H        1.07886547       0.08281828       1.05756100
H        1.12650017      -1.78474520       0.78656877
11
Frame=13 idx=005701 GeodesicLength=0.7229263917488913 rxn_smarts="[C:1]([C@@:2]1([C:5]#[N:6])[C:3]([H:10])([H:11])[O:4]1)([H:7])([H:8])[H:9]>>[C:1]([C@@:2]([O+:4]=[C-:3][H:11])([C:5]#[N:6])[H:10])([H:7])([H:8])[H:9]"
C       -1.22749790      -0.21071637      -0.01438773
C        0.23589766       0.17883617      -0.03801328
C        1.61452216      -1.01679537       0.16287009
O        0.97654005      -0.62928868      -0.96190540
C        0.42150154       1.59346067      -0.38399135
N        0.52463210       2.71667709      -0.58887208
H       -1.69809170      -0.00307235      -0.97553869
H       -1.33573286      -1.27697225       0.17968487
H       -1.75483508       0.34791256       0.75873598
H        1.10664223       0.08235587       1.06436289
H        1.13642180      -1.78239735       0.79705469
11
Frame=14 idx=005701 GeodesicLength=0.7785036192717519 rxn_smarts="[C:1]([C@@:2]1([C:5]#[N:6])[C:3]([H:10])([H:11])[O:4]1)([H:7])([H:8])[H:9]>>[C:1]([C@@:2]([O+:4]=[C-:3][H:11])([C:5]#[N:6])[H:10])([H:7])([H:8])[H:9]"
C       -1.23135034      -0.20967447      -0.01804964
C        0.23307655       0.17747225      -0.03465299
C        1.60817837      -1.01896545       0.15821199
O        0.97234536      -0.63065173      -0.96250516
C        0.41783448       1.59177401      -0.38312240
N        0.52117324       2.71536102      -0.58623317
H       -1.69951552      -0.00048345      -0.98006371
H       -1.34377227      -1.27590750       0.17383220
H       -1.75998315       0.34893258       0.75422645
H        1.13551165       0.08198512       1.07065422
H        1.14650161      -1.77984239       0.80770221
11
Frame=15 idx=005701 GeodesicLength=0.8340800977440457 rxn_smarts="[C:1]([C@@:2]1([C:5]#[N:6])[C:3]([H:10])([H:11])[O:4]1)([H:7])([H:8])[H:9]>>[C:1]([C@@:2]([O+:4]=[C-:3][H:11])([C:5]#[N:6])[H:10])([H:7])([H:8])[H:9]"
C       -1.23538098      -0.20864940      -0.02182433
C        0.23005725       0.17604075      -0.03122167
C        1.60154582      -1.02120356       0.15387591
O        0.96809175      -0.63206106      -0.96294130
C        0.41409544       1.59003503      -0.38203694
N        0.51768736       2.71398107      -0.58340406
H       -1.70099539       0.00215777      -0.98473538
H       -1.35202840      -1.27484625       0.16779958
H       -1.76535387       0.34990693       0.74959171
H        1.16553606       0.08169931       1.07636544
H        1.15674496      -1.77706058       0.81853105
11
Frame=16 idx=005701 GeodesicLength=0.8896560566307877 rxn_smarts="[C:1]([C@@:2]1([C:5]#[N:6])[C:3]([H:10])([H:11])[O:4]1)([H:7])([H:8])[H:9]>>[C:1]([C@@:2]([O+:4]=[C-:3][H:11])([C:5]#[N:6])[H:10])([H:7])([H:8])[H:9]"
C       -1.23960056      -0.20764206      -0.02571951
C        0.22682693       0.17453703      -0.02770850
C        1.59461465      -1.02350957       0.14988655
O        0.96377603      -0.63352400      -0.96319575
C        0.41028126       1.58823982      -0.38071692
N        0.51417306       2.71253449      -0.58035994
H       -1.70252919       0.00485481      -0.98956500
H       -1.36051472      -1.27378937       0.16157291
H       -1.77096640       0.35083341       0.74481882
H        1.19678568       0.08149465       1.08142038
H        1.16715325      -1.77402921       0.82956696
