15
Frame=0 idx=009014 GeodesicLength=0.0 rxn_smarts="[C:1]([C@@:2]12[O:3][C@@:4]3([H:11])[C:5]([H:12])([H:13])[C@:6]1([H:14])[C@@:7]23[H:15])([H:8])([H:9])[H:10]>>[C:1]([C@:2]1([H:14])[O:3][C@@:4]2([H:11])[C:5]([H:12])([H:13])[C:6][C@@:7]12[H:15])([H:8])([H:9])[H:10]"
C        2.12439562       0.14567041      -0.12050457
C        0.63427594       0.01068985      -0.18489689
O       -0.09321694       0.85667849      -1.04241349
C       -1.20935085       0.78082987      -0.12986546
C       -1.81296307      -0.62196492      -0.26765522
C       -0.68152257      -1.24597418       0.56540945
C       -0.31068503       0.17372597       0.97757983
H        2.39124017       1.14290352       0.23038129
H        2.52698622      -0.59545370       0.57048339
H        2.56545939      -0.01359771      -1.10494266
H       -1.80439574       1.69164755      -0.12798652
H       -2.67830611      -0.70760804       0.39690119
H       -2.06530303      -1.00869384      -1.25600706
H        0.42525868      -1.13855690      -0.46222658
H       -0.01187263       0.52970362       1.95574334
15
Frame=1 idx=009014 GeodesicLength=0.05621415443997737 rxn_smarts="[C:1]([C@@:2]12[O:3][C@@:4]3([H:11])[C:5]([H:12])([H:13])[C@:6]1([H:14])[C@@:7]23[H:15])([H:8])([H:9])[H:10]>>[C:1]([C@:2]1([H:14])[O:3][C@@:4]2([H:11])[C:5]([H:12])([H:13])[C:6][C@@:7]12[H:15])([H:8])([H:9])[H:10]"
C        2.12354912       0.15034726      -0.11930213
C        0.63465764       0.00295177      -0.18681525
O       -0.09206939       0.85176145      -1.04477946
C       -1.20652989       0.78140043      -0.13059261
C       -1.81750756      -0.61858146      -0.26756865
C       -0.68297325      -1.24357824       0.55744127
C       -0.30958254       0.17172162       0.97704636
H        2.38377780       1.15052571       0.22821232
H        2.53102473      -0.58542574       0.57462589
H        2.56763211      -0.00892662      -1.10245890
H       -1.79830921       1.69430578      -0.12657322
H       -2.68089208      -0.70296363       0.39988678
H       -2.07465445      -1.00259908      -1.25576235
H        0.43152107      -1.16422769      -0.45973489
H       -0.00964410       0.52328843       1.95637484
15
Frame=2 idx=009014 GeodesicLength=0.11240248745303692 rxn_smarts="[C:1]([C@@:2]12[O:3][C@@:4]3([H:11])[C:5]([H:12])([H:13])[C@:6]1([H:14])[C@@:7]23[H:15])([H:8])([H:9])[H:10]>>[C:1]([C@:2]1([H:14])[O:3][C@@:4]2([H:11])[C:5]([H:12])([H:13])[C:6][C@@:7]12[H:15])([H:8])([H:9])[H:10]"
C        2.12261791       0.15498294      -0.11820199
C        0.63503310      -0.00458474      -0.18871646
O       -0.09096095       0.84707315      -1.04707186
C       -1.20375064       0.78202688      -0.13129544
C       -1.82193301      -0.61516497      -0.26755999
C       -0.68430261      -1.24110702       0.54935998
C       -0.30851503       0.16977197       0.97652751
H        2.37636939       1.15800734       0.22594334
H        2.53487309      -0.57545436       0.57862475
H        2.56961919      -0.00434965      -1.10010354
H       -1.79233958       1.69694893      -0.12509735
H       -2.68336200      -0.69845478       0.40274788
H       -2.08376421      -0.99641008      -1.25562126
H        0.43788662      -1.19013997      -0.45656642
H       -0.00747127       0.51685436       1.95703084
15
Frame=3 idx=009014 GeodesicLength=0.1685766422194963 rxn_smarts="[C:1]([C@@:2]12[O:3][C@@:4]3([H:11])[C:5]([H:12])([H:13])[C@:6]1([H:14])[C@@:7]23[H:15])([H:8])([H:9])[H:10]>>[C:1]([C@:2]1([H:14])[O:3][C@@:4]2([H:11])[C:5]([H:12])([H:13])[C:6][C@@:7]12[H:15])([H:8])([H:9])[H:10]"
C        2.12160647       0.15957770      -0.11720788
C        0.63540098      -0.01191234      -0.19060817
O       -0.08989420       0.84262759      -1.04928987
C       -1.20101696       0.78271180      -0.13197205
C       -1.82624023      -0.61171643      -0.26763407
C       -0.68550911      -1.23855942       0.54115755
C       -0.30748262       0.16787483       0.97601973
H        2.36902260       1.16534989       0.22357451
H        2.53853462      -0.56554439       0.58247473
H        2.57142475       0.00013089      -1.09788100
H       -1.78649481       1.69957795      -0.12354908
H       -2.68571692      -0.69408830       0.40547992
H       -2.09263369      -0.99012422      -1.25559086
H        0.44435093      -1.21630307      -0.45268017
H       -0.00535181       0.51039751       1.95770670
15
Frame=4 idx=009014 GeodesicLength=0.22473942979829278 rxn_smarts="[C:1]([C@@:2]12[O:3][C@@:4]3([H:11])[C:5]([H:12])([H:13])[C@:6]1([H:14])[C@@:7]23[H:15])([H:8])([H:9])[H:10]>>[C:1]([C@:2]1([H:14])[O:3][C@@:4]2([H:11])[C:5]([H:12])([H:13])[C:6][C@@:7]12[H:15])([H:8])([H:9])[H:10]"
C        2.12051895       0.16413128      -0.11632379
C        0.63575948      -0.01902475      -0.19249900
O       -0.08887164       0.83843949      -1.05143237
C       -1.19833281       0.78345788      -0.13262039
C       -1.83043007      -0.60823668      -0.26779577
C       -0.68659128      -1.23593445       0.53282578
C       -0.30648525       0.16602790       0.97551917
H        2.36174479       1.17255437       0.22110630
H        2.54201253      -0.55570108       0.58617015
H        2.57305295       0.00451305      -1.09579598
H       -1.78078309       1.70219377      -0.12191821
H       -2.68795820      -0.68987101       0.40807803
H       -2.10126387      -0.98373940      -1.25567834
H        0.45091053      -1.24272394      -0.44803303
H       -0.00328301       0.50391358       1.95839744
15
Frame=5 idx=009014 GeodesicLength=0.2808958325127869 rxn_smarts="[C:1]([C@@:2]12[O:3][C@@:4]3([H:11])[C:5]([H:12])([H:13])[C@:6]1([H:14])[C@@:7]23[H:15])([H:8])([H:9])[H:10]>>[C:1]([C@:2]1([H:14])[O:3][C@@:4]2([H:11])[C:5]([H:12])([H:13])[C:6][C@@:7]12[H:15])([H:8])([H:9])[H:10]"
C        2.11935936       0.16864391      -0.11555455
C        0.63610694      -0.02591574      -0.19439831
O       -0.08789564       0.83452405      -1.05349839
C       -1.19570210       0.78426778      -0.13323845
C       -1.83450319      -0.60472654      -0.26805093
C       -0.68754677      -1.23323190       0.52435466
C       -0.30552263       0.16422858       0.97502151
H        2.35454314       1.17962239       0.21853909
H        2.54531014      -0.54592985       0.58970457
H        2.57450765       0.00879566      -1.09385378
H       -1.77521245       1.70479728      -0.12019393
H       -2.69008606      -0.68581055       0.41053703
H       -2.10965635      -0.97725150      -1.25589191
H        0.45755984      -1.26941068      -0.44257438
H       -0.00126187       0.49739711       1.95909775
15
Frame=6 idx=009014 GeodesicLength=0.3370542566729013 rxn_smarts="[C:1]([C@@:2]12[O:3][C@@:4]3([H:11])[C:5]([H:12])([H:13])[C@:6]1([H:14])[C@@:7]23[H:15])([H:8])([H:9])[H:10]>>[C:1]([C@:2]1([H:14])[O:3][C@@:4]2([H:11])[C:5]([H:12])([H:13])[C:6][C@@:7]12[H:15])([H:8])([H:9])[H:10]"
C        2.11813246       0.17311502      -0.11490517
C        0.63644164      -0.03257707      -0.19631559
O       -0.08696906       0.83089829      -1.05548655
C       -1.19312917       0.78514461      -0.13382398
C       -1.83846008      -0.60118657      -0.26840528
C       -0.68837297      -1.23045102       0.51573411
C       -0.30459461       0.16247456       0.97452236
H        2.34742598       1.18655435       0.21587306
H        2.54843054      -0.53623699       0.59307133
H        2.57579312       0.01297731      -1.09206048
H       -1.76979219       1.70738927      -0.11836483
H       -2.69210131      -0.68191525       0.41285121
H       -2.11781117      -0.97065842      -1.25624007
H        0.46429220      -1.29637033      -0.43625277
H        0.00071462       0.49084223       1.95980265
15
Frame=7 idx=009014 GeodesicLength=0.3932131765249929 rxn_smarts="[C:1]([C@@:2]12[O:3][C@@:4]3([H:11])[C:5]([H:12])([H:13])[C@:6]1([H:14])[C@@:7]23[H:15])([H:8])([H:9])[H:10]>>[C:1]([C@:2]1([H:14])[O:3][C@@:4]2([H:11])[C:5]([H:12])([H:13])[C:6][C@@:7]12[H:15])([H:8])([H:9])[H:10]"
C        2.11684218       0.17754545      -0.11438044
C        0.63676223      -0.03900382      -0.19826182
O       -0.08609389       0.82757765      -1.05739588
C       -1.19061750       0.78609048      -0.13437477
C       -1.84230105      -0.59761824      -0.26886495
C       -0.68906850      -1.22759132       0.50695366
C       -0.30370016       0.16076143       0.97401665
H        2.34040002       1.19335187       0.21310970
H        2.55137770      -0.52662845       0.59626213
H        2.57691343       0.01705883      -1.09042199
H       -1.76452968       1.70996984      -0.11641907
H       -2.69400456      -0.67819233       0.41501403
H       -2.12572994      -0.96395558      -1.25673078
H        0.47109952      -1.32360820      -0.42901193
H        0.00265021       0.48424238       1.96050547
15
Frame=8 idx=009014 GeodesicLength=0.44937825145579563 rxn_smarts="[C:1]([C@@:2]12[O:3][C@@:4]3([H:11])[C:5]([H:12])([H:13])[C@:6]1([H:14])[C@@:7]23[H:15])([H:8])([H:9])[H:10]>>[C:1]([C@:2]1([H:14])[O:3][C@@:4]2([H:11])[C:5]([H:12])([H:13])[C:6][C@@:7]12[H:15])([H:8])([H:9])[H:10]"
C        2.11549301       0.18193434      -0.11398650
C        0.63706698      -0.04518758      -0.20024765
O       -0.08527285       0.82458058      -1.05922473
C       -1.18817168       0.78710832      -0.13488841
C       -1.84602581      -0.59402278      -0.26943650
C       -0.68962942      -1.22465137       0.49800178
C       -0.30283895       0.15908635       0.97349955
H        2.33347370       1.20001463       0.21024995
H        2.55415463      -0.51711253       0.59926804
H        2.57787279       0.02103987      -1.08894488
H       -1.75943498       1.71253913      -0.11434451
H       -2.69579525      -0.67465190       0.41701888
H       -2.13341260      -0.95713954      -1.25737329
H        0.47797235      -1.35112846      -0.42079261
H        0.00454809       0.47759096       1.96120088
15
Frame=9 idx=009014 GeodesicLength=0.505538177430567 rxn_smarts="[C:1]([C@@:2]12[O:3][C@@:4]3([H:11])[C:5]([H:12])([H:13])[C@:6]1([H:14])[C@@:7]23[H:15])([H:8])([H:9])[H:10]>>[C:1]([C@:2]1([H:14])[O:3][C@@:4]2([H:11])[C:5]([H:12])([H:13])[C:6][C@@:7]12[H:15])([H:8])([H:9])[H:10]"
C        2.11408948       0.18628267      -0.11372933
C        0.63735477      -0.05112300      -0.20228623
O       -0.08450775       0.82192440      -1.06097239
C       -1.18579493       0.78820050      -0.13536331
C       -1.84963509      -0.59040054      -0.27012792
C       -0.69005122      -1.22163490       0.48886389
C       -0.30200933       0.15744454       0.97296408
H        2.32665369       1.20654428       0.20729516
H        2.55676556      -0.50769578       0.60207899
H        2.57867616       0.02492235      -1.08763614
H       -1.75451528       1.71509730      -0.11212810
H       -2.69747221      -0.67130350       0.41885971
H       -2.14086197      -0.95020453      -1.25817779
H        0.48489548      -1.37893115      -0.41152208
H        0.00641264       0.47087736       1.96188145
15
Frame=10 idx=009014 GeodesicLength=0.5617097617787158 rxn_smarts="[C:1]([C@@:2]12[O:3][C@@:4]3([H:11])[C:5]([H:12])([H:13])[C@:6]1([H:14])[C@@:7]23[H:15])([H:8])([H:9])[H:10]>>[C:1]([C@:2]1([H:14])[O:3][C@@:4]2([H:11])[C:5]([H:12])([H:13])[C:6][C@@:7]12[H:15])([H:8])([H:9])[H:10]"
C        2.11263616       0.19058935      -0.11361600
C        0.63762397      -0.05679929      -0.20438900
O       -0.08380175       0.81963105      -1.06263582
C       -1.18349270       0.78937008      -0.13579597
C       -1.85312699      -0.58675371      -0.27094637
C       -0.69032930      -1.21853830       0.47952676
C       -0.30121077       0.15583287       0.97240552
H        2.31995085       1.21293871       0.20424761
H        2.55921312      -0.49838980       0.60468348
H        2.57932614       0.02870697      -1.08650489
H       -1.74978302       1.71764327      -0.10975581
H       -2.69903440      -0.66815887       0.42052730
H       -2.14807441      -0.94314791      -1.25915442
H        0.49185580      -1.40702008      -0.40113338
H        0.00824729       0.46409566       1.96254099
15
Frame=11 idx=009014 GeodesicLength=0.6178819518984652 rxn_smarts="[C:1]([C@@:2]12[O:3][C@@:4]3([H:11])[C:5]([H:12])([H:13])[C@:6]1([H:14])[C@@:7]23[H:15])([H:8])([H:9])[H:10]>>[C:1]([C@:2]1([H:14])[O:3][C@@:4]2([H:11])[C:5]([H:12])([H:13])[C:6][C@@:7]12[H:15])([H:8])([H:9])[H:10]"
C        2.11113784       0.19485372      -0.11365381
C        0.63787332      -0.06221049      -0.20656999
O       -0.08315676       0.81771985      -1.06421326
C       -1.18126894       0.79061893      -0.13618418
C       -1.85650086      -0.58308405      -0.27189997
C       -0.69045921      -1.21536219       0.46997557
C       -0.30044152       0.15424598       0.97181702
H        2.31337332       1.21919771       0.20111029
H        2.56150134      -0.48920436       0.60706997
H        2.57982643       0.03239712      -1.08555971
H       -1.74524733       1.72017573      -0.10721348
H       -2.70048000      -0.66522945       0.42201386
H       -2.15505078      -0.93596398      -1.26031363
H        0.49883652      -1.43539044      -0.38955026
H        0.01005663       0.45723591       1.96317157
15
Frame=12 idx=009014 GeodesicLength=0.6740593068101448 rxn_smarts="[C:1]([C@@:2]12[O:3][C@@:4]3([H:11])[C:5]([H:12])([H:13])[C@:6]1([H:14])[C@@:7]23[H:15])([H:8])([H:9])[H:10]>>[C:1]([C@:2]1([H:14])[O:3][C@@:4]2([H:11])[C:5]([H:12])([H:13])[C:6][C@@:7]12[H:15])([H:8])([H:9])[H:10]"
C        2.10959955       0.19907476      -0.11385057
C        0.63810166      -0.06734581      -0.20884285
O       -0.08257547       0.81621433      -1.06570152
C       -1.17912883       0.79194974      -0.13652495
C       -1.85975437      -0.57939401      -0.27299738
C       -0.69043408      -1.21210581       0.46019480
C       -0.29970026       0.15267981       0.97119207
H        2.30693207       1.22531900       0.19788710
H        2.56363331      -0.48015368       0.60922313
H        2.58018067       0.03599576      -1.08481065
H       -1.74092076       1.72269265      -0.10448609
H       -2.70180626      -0.66252925       0.42330963
H       -2.16178822      -0.92864903      -1.26166680
H        0.50581614      -1.46403793      -0.37669160
H        0.01184485       0.45028947       1.96376569
15
Frame=13 idx=009014 GeodesicLength=0.7302414747318393 rxn_smarts="[C:1]([C@@:2]12[O:3][C@@:4]3([H:11])[C:5]([H:12])([H:13])[C@:6]1([H:14])[C@@:7]23[H:15])([H:8])([H:9])[H:10]>>[C:1]([C@:2]1([H:14])[O:3][C@@:4]2([H:11])[C:5]([H:12])([H:13])[C:6][C@@:7]12[H:15])([H:8])([H:9])[H:10]"
C        2.10802660       0.20325144      -0.11421513
C        0.63830813      -0.07219498      -0.21122261
O       -0.08206031       0.81513874      -1.06709733
C       -1.17707747       0.79336476      -0.13681532
C       -1.86288504      -0.57568599      -0.27424862
C       -0.69024481      -1.20877021       0.45016409
C       -0.29898510       0.15112946       0.97052334
H        2.30063825       1.23130045       0.19458213
H        2.56561259      -0.47125229       0.61112731
H        2.58039145       0.03950685      -1.08426971
H       -1.73681574       1.72519122      -0.10155745
H       -2.70300864      -0.66007396       0.42440487
H       -2.16828518      -0.92119656      -1.26322648
H        0.51276915      -1.49295415      -0.36246368
H        0.01361612       0.44324521       1.96431459
15
Frame=14 idx=009014 GeodesicLength=0.786417109277071 rxn_smarts="[C:1]([C@@:2]12[O:3][C@@:4]3([H:11])[C:5]([H:12])([H:13])[C@:6]1([H:14])[C@@:7]23[H:15])([H:8])([H:9])[H:10]>>[C:1]([C@:2]1([H:14])[O:3][C@@:4]2([H:11])[C:5]([H:12])([H:13])[C:6][C@@:7]12[H:15])([H:8])([H:9])[H:10]"
C        2.10642503       0.20738325      -0.11475574
C        0.63849262      -0.07674912      -0.21372512
O       -0.08161293       0.81451586      -1.06839780
C       -1.17511901       0.79486519      -0.13705292
C       -1.86589039      -0.57196314      -0.27566318
C       -0.68988252      -1.20535669       0.43986517
C       -0.29829348       0.14958854       0.96980256
H        2.29450258       1.23714018       0.19120093
H        2.56744391      -0.46251552       0.61276598
H        2.58046336       0.04293666      -1.08394778
H       -1.73294329       1.72766755      -0.09841184
H       -2.70408265      -0.65787940       0.42529010
H       -2.17454072      -0.91360152      -1.26500441
H        0.51966202      -1.52212272      -0.34677515
H        0.01537549       0.43609087       1.96480921
15
Frame=15 idx=009014 GeodesicLength=0.8425739446195226 rxn_smarts="[C:1]([C@@:2]12[O:3][C@@:4]3([H:11])[C:5]([H:12])([H:13])[C@:6]1([H:14])[C@@:7]23[H:15])([H:8])([H:9])[H:10]>>[C:1]([C@:2]1([H:14])[O:3][C@@:4]2([H:11])[C:5]([H:12])([H:13])[C:6][C@@:7]12[H:15])([H:8])([H:9])[H:10]"
C        2.10480119       0.21146909      -0.11548097
C        0.63865529      -0.08099838      -0.21636621
O       -0.08123498       0.81436910      -1.06959941
C       -1.17325789       0.79645166      -0.13723533
C       -1.86876697      -0.56822972      -0.27725063
C       -0.68933656      -1.20186603       0.42927899
C       -0.29762273       0.14805084       0.96902159
H        2.28853746       1.24283504       0.18775005
H        2.56913198      -0.45396032       0.61412176
H        2.58040067       0.04629178      -1.08385619
H       -1.72931534       1.73011670      -0.09503347
H       -2.70502263      -0.65596335       0.42595545
H       -2.18055328      -0.90585942      -1.26701230
H        0.52645585      -1.55152145      -0.32953410
H        0.01712794       0.42881444       1.96524079
15
Frame=16 idx=009014 GeodesicLength=0.8987019554474113 rxn_smarts="[C:1]([C@@:2]12[O:3][C@@:4]3([H:11])[C:5]([H:12])([H:13])[C@:6]1([H:14])[C@@:7]23[H:15])([H:8])([H:9])[H:10]>>[C:1]([C@:2]1([H:14])[O:3][C@@:4]2([H:11])[C:5]([H:12])([H:13])[C:6][C@@:7]12[H:15])([H:8])([H:9])[H:10]"
C        2.10316244       0.21550766      -0.11640056
C        0.63879695      -0.08493118      -0.21916283
O       -0.08092804       0.81472449      -1.07069766
C       -1.17149876       0.79812457      -0.13735971
C       -1.87151005      -0.56449064      -0.27902215
C       -0.68859422      -1.19829962       0.41838365
C       -0.29696960       0.14650948       0.96817163
H        2.28275636       1.24838179       0.18423632
H        2.57068186      -0.44560606       0.61517457
H        2.58020741       0.04957985      -1.08400843
H       -1.72594521       1.73253245      -0.09140464
H       -2.70582071      -0.65434664       0.42638938
H       -2.18631980      -0.89796480      -1.26926367
H        0.53310251      -1.58112351      -0.31063579
H        0.01887887       0.42140215       1.96559989
