10
Frame=0 idx=009364 GeodesicLength=0.0 rxn_smarts="[C:1](#[C:2][c:3]1[c:4]([H:9])[o:5][n:6][c:7]1[H:10])[H:8]>>[C:1]1([H:8])=[C:4]([H:9])[O:5][N:6]=[C:7]([H:10])[C:3]#[C:2]1"
C        1.60723619       0.78270423      -0.13788302
C        1.16666873      -0.36413217       0.12608213
C        0.00701653      -0.89710160       0.67812952
C       -0.07251194       0.65028876       0.45376565
O       -1.03733226       0.88708887      -0.47478229
N       -1.60134765      -0.33843275      -0.91536115
C       -1.00507844      -1.28761361      -0.30667276
H        2.31419110       1.57787895      -0.23519734
H       -0.05715293       1.28946561       1.32825076
H       -1.32168934      -2.30014630      -0.51633149
10
Frame=1 idx=009364 GeodesicLength=0.12375443883956452 rxn_smarts="[C:1](#[C:2][c:3]1[c:4]([H:9])[o:5][n:6][c:7]1[H:10])[H:8]>>[C:1]1([H:8])=[C:4]([H:9])[O:5][N:6]=[C:7]([H:10])[C:3]#[C:2]1"
C        1.62510631       0.79227846      -0.12401859
C        1.18795095      -0.36363005       0.11552807
C        0.02788978      -0.90524737       0.63479490
C       -0.07947590       0.66267506       0.44120427
O       -1.06344841       0.87908998      -0.46954584
N       -1.65118433      -0.34744207      -0.87087686
C       -1.01896817      -1.29793199      -0.30184794
H        2.36018984       1.56473963      -0.19459127
H       -0.07265249       1.32866287       1.29626425
H       -1.31540759      -2.31319451      -0.52691100
10
Frame=2 idx=009364 GeodesicLength=0.24739689728171982 rxn_smarts="[C:1](#[C:2][c:3]1[c:4]([H:9])[o:5][n:6][c:7]1[H:10])[H:8]>>[C:1]1([H:8])=[C:4]([H:9])[O:5][N:6]=[C:7]([H:10])[C:3]#[C:2]1"
C        1.64412191       0.80241713      -0.10756513
C        1.21056627      -0.36285463       0.10339611
C        0.04958325      -0.91305393       0.58684254
C       -0.08635646       0.67512480       0.42725393
O       -1.08957829       0.86989718      -0.46490889
N       -1.70139203      -0.35763812      -0.82109493
C       -1.03247130      -1.30884170      -0.29691847
H        2.40550253       1.55143362      -0.15059133
H       -0.08840244       1.36900156       1.26070655
H       -1.31157345      -2.32548592      -0.53712037
10
Frame=3 idx=009364 GeodesicLength=0.37087900421293474 rxn_smarts="[C:1](#[C:2][c:3]1[c:4]([H:9])[o:5][n:6][c:7]1[H:10])[H:8]>>[C:1]1([H:8])=[C:4]([H:9])[O:5][N:6]=[C:7]([H:10])[C:3]#[C:2]1"
C        1.66437908       0.81323177      -0.08820864
C        1.23477324      -0.36162969       0.08877034
C        0.07247487      -0.92052072       0.53271196
C       -0.09302795       0.68756032       0.41152675
O       -1.11569343       0.85937935      -0.46104639
N       -1.75112628      -0.36904386      -0.76587559
C       -1.04554523      -1.32030937      -0.29204103
H        2.44981664       1.53856747      -0.10185750
H       -0.10438680       1.40997079       1.22128105
H       -1.31166414      -2.33720607      -0.54526094
10
Frame=4 idx=009364 GeodesicLength=0.49415562693677295 rxn_smarts="[C:1](#[C:2][c:3]1[c:4]([H:9])[o:5][n:6][c:7]1[H:10])[H:8]>>[C:1]1([H:8])=[C:4]([H:9])[O:5][N:6]=[C:7]([H:10])[C:3]#[C:2]1"
C        1.68585789       0.82464046      -0.06548602
C        1.26073051      -0.35976906       0.07088275
C        0.09672312      -0.92746090       0.47053771
C       -0.09942596       0.69998675       0.39370571
O       -1.14196610       0.84754024      -0.45783256
N       -1.79931039      -0.38157530      -0.70537115
C       -1.05825122      -1.33220940      -0.28717780
H        2.49276768       1.52640607      -0.04740598
H       -0.12053454       1.45111057       1.17784412
H       -1.31659099      -2.34866944      -0.54969677
10
Frame=5 idx=009364 GeodesicLength=0.6171764066924385 rxn_smarts="[C:1](#[C:2][c:3]1[c:4]([H:9])[o:5][n:6][c:7]1[H:10])[H:8]>>[C:1]1([H:8])=[C:4]([H:9])[O:5][N:6]=[C:7]([H:10])[C:3]#[C:2]1"
C        1.70834411       0.83629569      -0.03876812
C        1.28847443      -0.35709347       0.04941604
C        0.12218249      -0.93341660       0.39805150
C       -0.10560045       0.71250667       0.37358355
O       -1.16883191       0.83454329      -0.45473488
N       -1.84479631      -0.39510228      -0.63996411
C       -1.07057697      -1.34435988      -0.28220045
H        2.53400359       1.51469124       0.01323410
H       -0.13672011       1.49216734       1.13033400
H       -1.32647888      -2.36023201      -0.54895162
10
Frame=6 idx=009364 GeodesicLength=0.7398347192841987 rxn_smarts="[C:1](#[C:2][c:3]1[c:4]([H:9])[o:5][n:6][c:7]1[H:10])[H:8]>>[C:1]1([H:8])=[C:4]([H:9])[O:5][N:6]=[C:7]([H:10])[C:3]#[C:2]1"
C        1.73148709       0.84782607      -0.00754038
C        1.31802119      -0.35323315       0.02348269
C        0.14873602      -0.93753522       0.31133577
C       -0.11162509       0.72526682       0.35074664
O       -1.19696013       0.82077774      -0.45097156
N       -1.88636069      -0.40952150      -0.57060111
C       -1.08226664      -1.35652828      -0.27716599
H        2.57318163       1.50280425       0.08163467
H       -0.15274983       1.53266275       1.07885680
H       -1.34146356      -2.37251948      -0.53977754
10
Frame=7 idx=009364 GeodesicLength=0.8618591672139528 rxn_smarts="[C:1](#[C:2][c:3]1[c:4]([H:9])[o:5][n:6][c:7]1[H:10])[H:8]>>[C:1]1([H:8])=[C:4]([H:9])[O:5][N:6]=[C:7]([H:10])[C:3]#[C:2]1"
C        1.75481445       0.85856864       0.02920198
C        1.34932144      -0.34766154      -0.00817340
C        0.17608268      -0.93806729       0.20320330
C       -0.11765204       0.73848368       0.32450525
O       -1.22726730       0.80712269      -0.44551129
N       -1.92281374      -0.42467040      -0.49896047
C       -1.09226335      -1.36815310      -0.27369388
H        2.60976169       1.48947953       0.16030775
H       -0.16851376       1.57153306       1.02420926
H       -1.36147008      -2.38663527      -0.51508849
10
Frame=8 idx=009364 GeodesicLength=0.9823100583659836 rxn_smarts="[C:1](#[C:2][c:3]1[c:4]([H:9])[o:5][n:6][c:7]1[H:10])[H:8]>>[C:1]1([H:8])=[C:4]([H:9])[O:5][N:6]=[C:7]([H:10])[C:3]#[C:2]1"
C        1.77728637       0.86574364       0.07274496
C        1.38088705      -0.34112621      -0.04409031
C        0.20208024      -0.93087195       0.06455143
C       -0.12432143       0.75329847       0.29363463
O       -1.26185298       0.79474137      -0.43641098
N       -1.95363578      -0.44089831      -0.42527041
C       -1.09930694      -1.37831623      -0.27157412
H        2.64295855       1.47072466       0.25037856
H       -0.18363491       1.60927600       0.96635486
H       -1.38046016      -2.40257143      -0.47031863
10
Frame=9 idx=009364 GeodesicLength=1.0984814562788507 rxn_smarts="[C:1](#[C:2][c:3]1[c:4]([H:9])[o:5][n:6][c:7]1[H:10])[H:8]>>[C:1]1([H:8])=[C:4]([H:9])[O:5][N:6]=[C:7]([H:10])[C:3]#[C:2]1"
C        1.79659263       0.86297471       0.12443015
C        1.40697861      -0.33757788      -0.07820654
C        0.22119181      -0.90750174      -0.11038671
C       -0.13346748       0.77386075       0.25523626
O       -1.30602476       0.78432542      -0.41859363
N       -1.97845770      -0.46076466      -0.34458603
C       -1.09914325      -1.38568654      -0.26882564
H        2.67246494       1.43701313       0.35035838
H       -0.19696144       1.65180811       0.90081016
H       -1.38317336      -2.41845129      -0.41023640
10
Frame=10 idx=009364 GeodesicLength=1.208225041001909 rxn_smarts="[C:1](#[C:2][c:3]1[c:4]([H:9])[o:5][n:6][c:7]1[H:10])[H:8]>>[C:1]1([H:8])=[C:4]([H:9])[O:5][N:6]=[C:7]([H:10])[C:3]#[C:2]1"
C        1.80859951       0.84032051       0.18433294
C        1.41632191      -0.34192979      -0.11599117
C        0.22587665      -0.85945341      -0.30853709
C       -0.14716063       0.80789940       0.20392567
O       -1.36482952       0.77510809      -0.38408447
N       -1.99330833      -0.48847530      -0.24522797
C       -1.08368252      -1.38818777      -0.26527048
H        2.69442608       1.37435022       0.46445956
H       -0.20615418       1.71219627       0.81470944
H       -1.35008897      -2.43182822      -0.34831642
10
Frame=11 idx=009364 GeodesicLength=1.3176446721328374 rxn_smarts="[C:1](#[C:2][c:3]1[c:4]([H:9])[o:5][n:6][c:7]1[H:10])[H:8]>>[C:1]1([H:8])=[C:4]([H:9])[O:5][N:6]=[C:7]([H:10])[C:3]#[C:2]1"
C        1.80578028       0.79722075       0.25479616
C        1.40611468      -0.35198140      -0.15743886
C        0.21572040      -0.79480181      -0.48523380
C       -0.16750423       0.85398413       0.15237482
O       -1.42791430       0.76545217      -0.32994049
N       -1.99013434      -0.52292046      -0.13806090
C       -1.05331927      -1.38532125      -0.27515804
H        2.70780973       1.28399919       0.56824689
H       -0.21303811       1.79481591       0.70773645
H       -1.28351484      -2.44044723      -0.29732222
10
Frame=12 idx=009364 GeodesicLength=1.42947339126543 rxn_smarts="[C:1](#[C:2][c:3]1[c:4]([H:9])[o:5][n:6][c:7]1[H:10])[H:8]>>[C:1]1([H:8])=[C:4]([H:9])[O:5][N:6]=[C:7]([H:10])[C:3]#[C:2]1"
C        1.79021206       0.74265588       0.31908833
C        1.38812309      -0.36115237      -0.21002120
C        0.19756400      -0.72971919      -0.62276488
C       -0.19044314       0.90309094       0.10961496
O       -1.48178195       0.75481956      -0.26100108
N       -1.96893398      -0.55811686      -0.03138397
C       -1.01970517      -1.37927957      -0.29109236
H        2.70325340       1.18214872       0.66900476
H       -0.21579544       1.88909663       0.58135750
H       -1.20249286      -2.44354373      -0.26280205
10
Frame=13 idx=009364 GeodesicLength=1.5429432478639136 rxn_smarts="[C:1](#[C:2][c:3]1[c:4]([H:9])[o:5][n:6][c:7]1[H:10])[H:8]>>[C:1]1([H:8])=[C:4]([H:9])[O:5][N:6]=[C:7]([H:10])[C:3]#[C:2]1"
C        1.76720020       0.68588526       0.37281290
C        1.37008197      -0.36865301      -0.26078146
C        0.17787271      -0.67003371      -0.72614554
C       -0.21437145       0.94821247       0.08536548
O       -1.52066215       0.74608162      -0.19068798
N       -1.93946466      -0.58825435       0.05090428
C       -0.98927678      -1.37032219      -0.31119796
H        2.68921580       1.08237060       0.75040896
H       -0.22183992       1.97465999       0.45971637
H       -1.11875572      -2.43994668      -0.23039504
10
Frame=14 idx=009364 GeodesicLength=1.6576928671138402 rxn_smarts="[C:1](#[C:2][c:3]1[c:4]([H:9])[o:5][n:6][c:7]1[H:10])[H:8]>>[C:1]1([H:8])=[C:4]([H:9])[O:5][N:6]=[C:7]([H:10])[C:3]#[C:2]1"
C        1.74340496       0.63317277       0.41106795
C        1.35352525      -0.37671455      -0.30407546
C        0.15901522      -0.61595800      -0.80471034
C       -0.23793856       0.98936130       0.07637810
O       -1.54792183       0.73898469      -0.12480673
N       -1.90785209      -0.61302958       0.11397706
C       -0.96208316      -1.35983597      -0.32921095
H        2.67044059       0.98744858       0.81804335
H       -0.23304912       2.04716910       0.34587164
H       -1.03754126      -2.43059834      -0.20253461
10
Frame=15 idx=009364 GeodesicLength=1.7732567389714236 rxn_smarts="[C:1](#[C:2][c:3]1[c:4]([H:9])[o:5][n:6][c:7]1[H:10])[H:8]>>[C:1]1([H:8])=[C:4]([H:9])[O:5][N:6]=[C:7]([H:10])[C:3]#[C:2]1"
C        1.72075404       0.58461165       0.43908145
C        1.33895364      -0.38559088      -0.34119840
C        0.14200156      -0.56661133      -0.86616497
C       -0.26059536       1.02854577       0.07631923
O       -1.56720445       0.73337960      -0.06715517
N       -1.87639928      -0.63271852       0.16318345
C       -0.93651915      -1.34835396      -0.34300542
H        2.65049442       0.89711052       0.87394735
H       -0.25090156       2.10636548       0.24272242
H       -0.96058387      -2.41673835      -0.17772993
10
Frame=16 idx=009364 GeodesicLength=1.8893439731819137 rxn_smarts="[C:1](#[C:2][c:3]1[c:4]([H:9])[o:5][n:6][c:7]1[H:10])[H:8]>>[C:1]1([H:8])=[C:4]([H:9])[O:5][N:6]=[C:7]([H:10])[C:3]#[C:2]1"
C        1.69951405       0.53959692       0.46010722
C        1.32627462      -0.39508874      -0.37408212
C        0.12697993      -0.52102268      -0.91579850
C       -0.28225784       1.06736980       0.08071472
O       -1.58106130       0.72882653      -0.01619253
N       -1.84452166      -0.64845010       0.20519735
C       -0.91164902      -1.33618246      -0.35308750
H        2.62959295       0.80962319       0.92252898
H       -0.27467906       2.15513548       0.14711157
H       -0.88819266      -2.39980793      -0.15649919
