14
Frame=0 idx=011117 GeodesicLength=0.0 rxn_smarts="[C:1]1([H:8])([H:9])[C@:2]2([H:10])[C@@:3]3([H:11])[C@:4]2([H:12])[N:5]2[C@:6]1([H:13])[C@@:7]32[H:14]>>[C:1]1([H:8])([H:9])[C@:2]2([H:10])[C:3]([H:11])=[C:7]([H:14])[N:5]3[C@:4]2([H:12])[C@@:6]13[H:13]"
C        1.10563455      -0.30905633      -0.63905979
C       -0.22525176      -1.00418548      -0.26442346
C       -1.34567514      -0.03118282      -0.53423632
C       -0.30310031      -0.68042192       1.16882191
N       -0.16368404       0.76064774       1.19876780
C        0.96595267       0.85035472       0.31226120
C       -0.97128948       1.13516539       0.10183376
H        1.23081023       0.00323393      -1.68214238
H        1.92559003      -0.97954790      -0.37566403
H       -0.36862881      -2.03456248      -0.56992850
H       -2.13559705      -0.17098411      -1.25775520
H       -0.06312601      -1.29318491       2.02895712
H        1.71650571       1.61701045       0.47146344
H       -1.36814055       2.13671368       0.04110449
14
Frame=1 idx=011117 GeodesicLength=0.04852077994525961 rxn_smarts="[C:1]1([H:8])([H:9])[C@:2]2([H:10])[C@@:3]3([H:11])[C@:4]2([H:12])[N:5]2[C@:6]1([H:13])[C@@:7]32[H:14]>>[C:1]1([H:8])([H:9])[C@:2]2([H:10])[C:3]([H:11])=[C:7]([H:14])[N:5]3[C@:4]2([H:12])[C@@:6]13[H:13]"
C        1.10768398      -0.30632456      -0.64414776
C       -0.21964568      -1.00566516      -0.27107526
C       -1.34704975      -0.03728808      -0.52285723
C       -0.29791181      -0.67284815       1.16192329
N       -0.17023095       0.76899806       1.20340242
C        0.96489537       0.84160567       0.32006971
C       -0.96201045       1.14020980       0.09111435
H        1.22661057       0.01336415      -1.68540095
H        1.93211584      -0.97364756      -0.38678109
H       -0.36164064      -2.03709515      -0.57330465
H       -2.14791822      -0.18416836      -1.23288355
H       -0.08165201      -1.28810758       2.02630460
H        1.72019948       1.60136504       0.48961213
H       -1.36344574       2.13960187       0.02402400
14
Frame=2 idx=011117 GeodesicLength=0.09704914287940536 rxn_smarts="[C:1]1([H:8])([H:9])[C@:2]2([H:10])[C@@:3]3([H:11])[C@:4]2([H:12])[N:5]2[C@:6]1([H:13])[C@@:7]32[H:14]>>[C:1]1([H:8])([H:9])[C@:2]2([H:10])[C:3]([H:11])=[C:7]([H:14])[N:5]3[C@:4]2([H:12])[C@@:6]13[H:13]"
C        1.10973396      -0.30363172      -0.64915380
C       -0.21413215      -1.00710773      -0.27766138
C       -1.34813554      -0.04320013      -0.51144393
C       -0.29263791      -0.66534464       1.15516228
N       -0.17660353       0.77721972       1.20788058
C        0.96369099       0.83293279       0.32757215
C       -0.95282648       1.14492282       0.08069893
H        1.22249436       0.02319763      -1.68855637
H        1.93861995      -0.96764138      -0.39764300
H       -0.35479845      -2.03955023      -0.57667167
H       -2.15958004      -0.19685603      -1.20795671
H       -0.10047733      -1.28295747       2.02332559
H        1.72346883       1.58590218       0.50715985
H       -1.35881666       2.14211418       0.00728750
14
Frame=3 idx=011117 GeodesicLength=0.14557456778826353 rxn_smarts="[C:1]1([H:8])([H:9])[C@:2]2([H:10])[C@@:3]3([H:11])[C@:4]2([H:12])[N:5]2[C@:6]1([H:13])[C@@:7]32[H:14]>>[C:1]1([H:8])([H:9])[C@:2]2([H:10])[C:3]([H:11])=[C:7]([H:14])[N:5]3[C@:4]2([H:12])[C@@:6]13[H:13]"
C        1.11177571      -0.30099733      -0.65406871
C       -0.20872390      -1.00851969      -0.28416859
C       -1.34894502      -0.04892313      -0.50000579
C       -0.28730186      -0.65792162       1.14855675
N       -0.18278890       0.78530671       1.21222473
C        0.96234236       0.82434539       0.33476411
C       -0.94375468       1.14932340       0.07061368
H        1.21845611       0.03270001      -1.69161387
H        1.94508813      -0.96155518      -0.40822369
H       -0.34812289      -2.04193808      -0.58001528
H       -2.17052776      -0.20901603      -1.18310188
H       -0.11951518      -1.27773030       2.02000922
H        1.72631572       1.57066122       0.52406951
H       -1.35429786       2.14426463      -0.00904020
14
Frame=4 idx=011117 GeodesicLength=0.1940843566197234 rxn_smarts="[C:1]1([H:8])([H:9])[C@:2]2([H:10])[C@@:3]3([H:11])[C@:4]2([H:12])[N:5]2[C@:6]1([H:13])[C@@:7]32[H:14]>>[C:1]1([H:8])([H:9])[C@:2]2([H:10])[C:3]([H:11])=[C:7]([H:14])[N:5]3[C@:4]2([H:12])[C@@:6]13[H:13]"
C        1.11379963      -0.29843819      -0.65888010
C       -0.20343538      -1.00990317      -0.29058470
C       -1.34949302      -0.05446083      -0.48855184
C       -0.28193047      -0.65058527       1.14211613
N       -0.18877924       0.79325158       1.21645054
C        0.96085387       0.81584785       0.34164650
C       -0.93480859       1.15342526       0.06087412
H        1.21449053       0.04184274      -1.69457039
H        1.95150394      -0.95541194      -0.41849587
H       -0.34163670      -2.04426032      -0.58332079
H       -2.18072254      -0.22062093      -1.15843563
H       -0.13866125      -1.27241558       2.01634015
H        1.72874824       1.55567111       0.54031797
H       -1.34992903       2.14605771      -0.02490610
14
Frame=5 idx=011117 GeodesicLength=0.2425991175199437 rxn_smarts="[C:1]1([H:8])([H:9])[C@:2]2([H:10])[C@@:3]3([H:11])[C@:4]2([H:12])[N:5]2[C@:6]1([H:13])[C@@:7]32[H:14]>>[C:1]1([H:8])([H:9])[C@:2]2([H:10])[C:3]([H:11])=[C:7]([H:14])[N:5]3[C@:4]2([H:12])[C@@:6]13[H:13]"
C        1.11581103      -0.29594693      -0.66358913
C       -0.19825844      -1.01125266      -0.29692026
C       -1.34978202      -0.05981681      -0.47711539
C       -0.27654587      -0.64333676       1.13583050
N       -0.19458379       0.80105655       1.22055923
C        0.95923334       0.80744694       0.34823024
C       -0.92598960       1.15725389       0.05146344
H        1.21060811       0.05064468      -1.69742924
H        1.95787394      -0.94920876      -0.42846311
H       -0.33531743      -2.04651214      -0.58660702
H       -2.19027504      -0.23174992      -1.13388306
H       -0.15789976      -1.26699954       2.01229961
H        1.73081559       1.54089431       0.55598563
H       -1.34569005       2.14752715      -0.04036146
14
Frame=6 idx=011117 GeodesicLength=0.2911319162260667 rxn_smarts="[C:1]1([H:8])([H:9])[C@:2]2([H:10])[C@@:3]3([H:11])[C@:4]2([H:12])[N:5]2[C@:6]1([H:13])[C@@:7]32[H:14]>>[C:1]1([H:8])([H:9])[C@:2]2([H:10])[C:3]([H:11])=[C:7]([H:14])[N:5]3[C@:4]2([H:12])[C@@:6]13[H:13]"
C        1.11780669      -0.29351325      -0.66819927
C       -0.19319263      -1.01256544      -0.30318670
C       -1.34981779      -0.06500094      -0.46572306
C       -0.27116883      -0.63617954       1.12968562
N       -0.20021292       0.80872397       1.22455298
C        0.95749013       0.79915368       0.35452840
C       -0.91730052       1.16082796       0.04235991
H        1.20680983       0.05913155      -1.70019485
H        1.96419474      -0.94293888      -0.43813499
H       -0.32915464      -2.04869351      -0.58989091
H       -2.19926614      -0.24247133      -1.10937500
H       -0.17720330      -1.26147673       2.00788800
H        1.73256612       1.52630129       0.57116060
H       -1.34155074       2.14870116      -0.05547073
14
Frame=7 idx=011117 GeodesicLength=0.3396959392211224 rxn_smarts="[C:1]1([H:8])([H:9])[C@:2]2([H:10])[C@@:3]3([H:11])[C@:4]2([H:12])[N:5]2[C@:6]1([H:13])[C@@:7]32[H:14]>>[C:1]1([H:8])([H:9])[C@:2]2([H:10])[C:3]([H:11])=[C:7]([H:14])[N:5]3[C@:4]2([H:12])[C@@:6]13[H:13]"
C        1.11979155      -0.29113045      -0.67270746
C       -0.18823330      -1.01383541      -0.30939236
C       -1.34960801      -0.07001252      -0.45440833
C       -0.26583004      -0.62910922       1.12367478
N       -0.20568605       0.81625527       1.22843003
C        0.95562801       0.79096874       0.36055645
C       -0.90873671       1.16416850       0.03353939
H        1.20311146       0.06732496      -1.70286587
H        1.97047038      -0.93659815      -0.44750890
H       -0.32313306      -2.05079741      -0.59318372
H       -2.20779504      -0.25284248      -1.08483038
H       -0.19652358      -1.25584839       2.00307935
H        1.73402938       1.51185268       0.58591217
H       -1.33748499       2.14960388      -0.07029513
14
Frame=8 idx=011117 GeodesicLength=0.3882754332465432 rxn_smarts="[C:1]1([H:8])([H:9])[C@:2]2([H:10])[C@@:3]3([H:11])[C@:4]2([H:12])[N:5]2[C@:6]1([H:13])[C@@:7]32[H:14]>>[C:1]1([H:8])([H:9])[C@:2]2([H:10])[C:3]([H:11])=[C:7]([H:14])[N:5]3[C@:4]2([H:12])[C@@:6]13[H:13]"
C        1.12175383      -0.28881752      -0.67710558
C       -0.18339708      -1.01506907      -0.31552866
C       -1.34917436      -0.07485755      -0.44317498
C       -0.26055274      -0.62213336       1.11780522
N       -0.21100299       0.82365136       1.23220756
C        0.95365030       0.78289128       0.36632384
C       -0.90031030       1.16729484       0.02500836
H        1.19949979       0.07520183      -1.70544186
H        1.97668430      -0.93021870      -0.45656643
H       -0.31727917      -2.05283366      -0.59647457
H       -2.21580470      -0.26282863      -1.06038391
H       -0.21573616      -1.25010794       1.99789175
H        1.73520575       1.49757731       0.60022120
H       -1.33353647       2.15024982      -0.08478193
14
Frame=9 idx=011117 GeodesicLength=0.43686466104867355 rxn_smarts="[C:1]1([H:8])([H:9])[C@:2]2([H:10])[C@@:3]3([H:11])[C@:4]2([H:12])[N:5]2[C@:6]1([H:13])[C@@:7]32[H:14]>>[C:1]1([H:8])([H:9])[C@:2]2([H:10])[C:3]([H:11])=[C:7]([H:14])[N:5]3[C@:4]2([H:12])[C@@:6]13[H:13]"
C        1.12368315      -0.28658850      -0.68138402
C       -0.17869824      -1.01626799      -0.32158654
C       -1.34853576      -0.07953890      -0.43202646
C       -0.25536584      -0.61525441       1.11208284
N       -0.21616966       0.83090988       1.23589865
C        0.95155394       0.77491282       0.37183845
C       -0.89202502       1.17022101       0.01677090
H        1.19596991       0.08274553      -1.70791792
H        1.98281513      -0.92382394      -0.46529121
H       -0.31161431      -2.05480326      -0.59974880
H       -2.22325064      -0.27239842      -1.03615783
H       -0.23471337      -1.24424368       1.99233898
H        1.73608800       1.48348612       0.61406705
H       -1.32973730       2.15064373      -0.09888409
14
Frame=10 idx=011117 GeodesicLength=0.48547085284449487 rxn_smarts="[C:1]1([H:8])([H:9])[C@:2]2([H:10])[C@@:3]3([H:11])[C@:4]2([H:12])[N:5]2[C@:6]1([H:13])[C@@:7]32[H:14]>>[C:1]1([H:8])([H:9])[C@:2]2([H:10])[C:3]([H:11])=[C:7]([H:14])[N:5]3[C@:4]2([H:12])[C@@:6]13[H:13]"
C        1.12558054      -0.28443575      -0.68554558
C       -0.17413382      -1.01742980      -0.32757662
C       -1.34770235      -0.08405998      -0.42098846
C       -0.25028768      -0.60846695       1.10649542
N       -0.22120309       0.83804005       1.23950069
C        0.94934652       0.76703949       0.37711644
C       -0.88387773       1.17296941       0.00879727
H        1.19252515       0.08997922      -1.71029840
H        1.98886753      -0.91741141      -0.47369216
H       -0.30612671      -2.05670615      -0.60302161
H       -2.23021271      -0.28160342      -1.01208787
H       -0.25341877      -1.23827050       1.98643697
H        1.73671551       1.46954395       0.62752621
H       -1.32607240       2.15081182      -0.11266231
14
Frame=11 idx=011117 GeodesicLength=0.5341058683534998 rxn_smarts="[C:1]1([H:8])([H:9])[C@:2]2([H:10])[C@@:3]3([H:11])[C@:4]2([H:12])[N:5]2[C@:6]1([H:13])[C@@:7]32[H:14]>>[C:1]1([H:8])([H:9])[C@:2]2([H:10])[C:3]([H:11])=[C:7]([H:14])[N:5]3[C@:4]2([H:12])[C@@:6]13[H:13]"
C        1.12744501      -0.28234981      -0.68959388
C       -0.16970181      -1.01855167      -0.33350995
C       -1.34668528      -0.08842722      -0.41008226
C       -0.24533653      -0.60177088       1.10103013
N       -0.22612144       0.84504856       1.24301252
C        0.94703150       0.75927162       0.38217491
C       -0.87586429       1.17555471       0.00106151
H        1.18916793       0.09693277      -1.71258585
H        1.99484052      -0.91097678      -0.48178348
H       -0.30080447      -2.05854071      -0.60630586
H       -2.23676021      -0.29049231      -0.98811084
H       -0.27181445      -1.23218472       1.98019806
H        1.73711488       1.45571230       0.64067381
H       -1.32251136       2.15077414      -0.12617884
14
Frame=12 idx=011117 GeodesicLength=0.5827890355721467 rxn_smarts="[C:1]1([H:8])([H:9])[C@:2]2([H:10])[C@@:3]3([H:11])[C@:4]2([H:12])[N:5]2[C@:6]1([H:13])[C@@:7]32[H:14]>>[C:1]1([H:8])([H:9])[C@:2]2([H:10])[C:3]([H:11])=[C:7]([H:14])[N:5]3[C@:4]2([H:12])[C@@:6]13[H:13]"
C        1.12928438      -0.28032229      -0.69353183
C       -0.16539442      -1.01962635      -0.33940378
C       -1.34548693      -0.09263752      -0.39934338
C       -0.24052859      -0.59515892       1.09566647
N       -0.23094505       0.85193801       1.24642188
C        0.94460951       0.75160533       0.38702320
C       -0.86797399       1.17799864      -0.00646669
H        1.18591544       0.10362695      -1.71477847
H        2.00074360      -0.90451398      -0.48957398
H       -0.29563119      -2.06030041      -0.60962109
H       -2.24297727      -0.29912089      -0.96412877
H       -0.28988402      -1.22599514       1.97364647
H        1.73729998       1.44194966       0.65357184
H       -1.31903147       2.15055692      -0.13948186
14
Frame=13 idx=011117 GeodesicLength=0.6314977875713712 rxn_smarts="[C:1]1([H:8])([H:9])[C@:2]2([H:10])[C@@:3]3([H:11])[C@:4]2([H:12])[N:5]2[C@:6]1([H:13])[C@@:7]32[H:14]>>[C:1]1([H:8])([H:9])[C@:2]2([H:10])[C:3]([H:11])=[C:7]([H:14])[N:5]3[C@:4]2([H:12])[C@@:6]13[H:13]"
C        1.13108438      -0.27836796      -0.69735295
C       -0.16122811      -1.02066154      -0.34524418
C       -1.34413604      -0.09670016      -0.38875399
C       -0.23587913      -0.58863469       1.09041808
N       -0.23567359       0.85871453       1.24975039
C        0.94208292       0.74403980       0.39167306
C       -0.86021562       1.18030909      -0.01377935
H        1.18274841       0.11004709      -1.71687964
H        2.00655810      -0.89804570      -0.49705028
H       -0.29063434      -2.06199357      -0.61295087
H       -2.24879518      -0.30743676      -0.94029630
H       -0.30751381      -1.21971342       1.96681071
H        1.73727077       1.42828397       0.66618988
H       -1.31566877       2.15015932      -0.15253456
14
Frame=14 idx=011117 GeodesicLength=0.680221490109578 rxn_smarts="[C:1]1([H:8])([H:9])[C@:2]2([H:10])[C@@:3]3([H:11])[C@:4]2([H:12])[N:5]2[C@:6]1([H:13])[C@@:7]32[H:14]>>[C:1]1([H:8])([H:9])[C@:2]2([H:10])[C:3]([H:11])=[C:7]([H:14])[N:5]3[C@:4]2([H:12])[C@@:6]13[H:13]"
C        1.13283674      -0.27649735      -0.70105277
C       -0.15721458      -1.02166066      -0.35102706
C       -1.34265024      -0.10061796      -0.37831232
C       -0.23140225      -0.58219781       1.08528536
N       -0.24031243       0.86537923       1.25300835
C        0.93945093       0.73656976       0.39613307
C       -0.85258914       1.18250028      -0.02087618
H        1.17965987       0.11618189      -1.71888860
H        2.01226957      -0.89159161      -0.50420420
H       -0.28583364      -2.06362552      -0.61628706
H       -2.25417966      -0.31541439      -0.91672674
H       -0.32460967      -1.21335650       1.95974319
H        1.73701746       1.41473804       0.67850542
H       -1.31244297       2.14959261      -0.16530048
14
Frame=15 idx=011117 GeodesicLength=0.7289526977085375 rxn_smarts="[C:1]1([H:8])([H:9])[C@:2]2([H:10])[C@@:3]3([H:11])[C@:4]2([H:12])[N:5]2[C@:6]1([H:13])[C@@:7]32[H:14]>>[C:1]1([H:8])([H:9])[C@:2]2([H:10])[C:3]([H:11])=[C:7]([H:14])[N:5]3[C@:4]2([H:12])[C@@:6]13[H:13]"
C        1.13453273      -0.27472042      -0.70462438
C       -0.15336157      -1.02262464      -0.35674434
C       -1.34105013      -0.10439413      -0.36801049
C       -0.22710569      -0.57584670       1.08026995
N       -0.24486536       0.87193144       1.25620479
C        0.93671115       0.72918625       0.40041136
C       -0.84509734       1.18458248      -0.02775383
H        1.17663709       0.12202069      -1.72079992
H        2.01786736      -0.88516848      -0.51102514
H       -0.28123990      -2.06519497      -0.61961796
H       -2.25910606      -0.32302336      -0.89353433
H       -0.34108219      -1.20693878       1.95248222
H        1.73653066       1.40132606       0.69049283
H       -1.30937074       2.14886457      -0.17775075
14
Frame=16 idx=011117 GeodesicLength=0.7776957475546558 rxn_smarts="[C:1]1([H:8])([H:9])[C@:2]2([H:10])[C@@:3]3([H:11])[C@:4]2([H:12])[N:5]2[C@:6]1([H:13])[C@@:7]32[H:14]>>[C:1]1([H:8])([H:9])[C@:2]2([H:10])[C:3]([H:11])=[C:7]([H:14])[N:5]3[C@:4]2([H:12])[C@@:6]13[H:13]"
C        1.13618034      -0.27302637      -0.70807765
C       -0.14966115      -1.02355211      -0.36241148
C       -1.33933906      -0.10803255      -0.35786698
C       -0.22299259      -0.56957763       1.07535808
N       -0.24934281       0.87838043       1.25933712
C        0.93387336       0.72189400       0.40451943
C       -0.83772856       1.18656906      -0.03443841
H        1.17369237       0.12759180      -1.72262419
H        2.02336097      -0.87876883      -0.51753411
H       -0.27684077      -2.06670463      -0.62295960
H       -2.26364393      -0.33031482      -0.87063369
H       -0.35696415      -1.20047866       1.94506010
H        1.73583526       1.38802881       0.70220618
H       -1.30642928       2.14799152      -0.18993480
