15
Frame=0 idx=011467 GeodesicLength=0.0 rxn_smarts="[C:1]([C@@:2]1([H:11])[N:3]([H:12])[C@:4]1([C:5]([H:13])([H:14])[H:15])[C:6]#[N:7])([H:8])([H:9])[H:10]>>[C:1]([C:4]([N:3]([C:2][H:11])[H:12])([C:5]([H:13])([H:14])[H:15])[C:6]#[N:7])([H:8])([H:9])[H:10]"
C        1.15461802      -0.77125024       0.36933456
C        1.37371781       0.70561930      -0.80712269
N        0.03353169       0.92284248      -1.32691783
C       -0.30275006       0.23284353      -0.11835787
C       -1.33604643      -0.85962248      -0.31246330
C       -0.59751589       1.09552182       1.01865434
N       -0.88639973       1.76110545       1.90928534
H        0.58140265      -1.11143155       1.24322684
H        1.29724990      -1.60372744      -0.30903524
H        2.10402353      -0.44289296       0.78440149
H        1.61541677       1.51620662      -0.08623638
H       -0.24514185       1.89523276      -1.24747936
H       -1.02206585      -1.52624849      -1.11279282
H       -1.49632273      -1.42763557       0.60436467
H       -2.27371788      -0.38656329      -0.60886179
15
Frame=1 idx=011467 GeodesicLength=0.06233033373026967 rxn_smarts="[C:1]([C@@:2]1([H:11])[N:3]([H:12])[C@:4]1([C:5]([H:13])([H:14])[H:15])[C:6]#[N:7])([H:8])([H:9])[H:10]>>[C:1]([C:4]([N:3]([C:2][H:11])[H:12])([C:5]([H:13])([H:14])[H:15])[C:6]#[N:7])([H:8])([H:9])[H:10]"
C        1.16168633      -0.77671743       0.37337885
C        1.36804484       0.69927080      -0.81256686
N        0.03144394       0.92839412      -1.31653982
C       -0.30258811       0.23281625      -0.10780302
C       -1.33719674      -0.85686039      -0.31201402
C       -0.60908646       1.09870912       1.02434596
N       -0.92062720       1.77102803       1.90222834
H        0.60202955      -1.12531556       1.25226444
H        1.29456033      -1.60500050      -0.31249392
H        2.11628930      -0.45644983       0.78367434
H        1.63483799       1.52026961      -0.11416347
H       -0.24460999       1.90161596      -1.23862086
H       -1.01668150      -1.51989481      -1.11278988
H       -1.50383324      -1.42751096       0.60200862
H       -2.27426903      -0.38435442      -0.61090869
15
Frame=2 idx=011467 GeodesicLength=0.12430392239511834 rxn_smarts="[C:1]([C@@:2]1([H:11])[N:3]([H:12])[C@:4]1([C:5]([H:13])([H:14])[H:15])[C:6]#[N:7])([H:8])([H:9])[H:10]>>[C:1]([C:4]([N:3]([C:2][H:11])[H:12])([C:5]([H:13])([H:14])[H:15])[C:6]#[N:7])([H:8])([H:9])[H:10]"
C        1.16871497      -0.78199079       0.37770992
C        1.36213764       0.69298402      -0.81777144
N        0.02934067       0.93405154      -1.30593780
C       -0.30253230       0.23288371      -0.09704822
C       -1.33834145      -0.85400720      -0.31167416
C       -0.62139659       1.10198571       1.02995871
N       -0.95421515       1.78023696       1.89542284
H        0.62294954      -1.13928571       1.26137488
H        1.29182423      -1.60609456      -0.31541881
H        2.12853475      -0.47002800       0.78309485
H        1.65438690       1.52408214      -0.14347010
H       -0.24397300       1.90813348      -1.22959146
H       -1.01110907      -1.51349225      -1.11271869
H       -1.51156399      -1.42731682       0.59942772
H       -2.27475715      -0.38214222      -0.61335825
15
Frame=3 idx=011467 GeodesicLength=0.1859289473757926 rxn_smarts="[C:1]([C@@:2]1([H:11])[N:3]([H:12])[C@:4]1([C:5]([H:13])([H:14])[H:15])[C:6]#[N:7])([H:8])([H:9])[H:10]>>[C:1]([C:4]([N:3]([C:2][H:11])[H:12])([C:5]([H:13])([H:14])[H:15])[C:6]#[N:7])([H:8])([H:9])[H:10]"
C        1.17570754      -0.78706762       0.38233739
C        1.35599762       0.68676746      -0.82270625
N        0.02723020       0.93981877      -1.29509212
C       -0.30258765       0.23304480      -0.08608613
C       -1.33947488      -0.85105731      -0.31144800
C       -0.63446101       1.10532782       1.03548144
N       -0.98718855       1.78879444       1.88890892
H        0.64417460      -1.15335770       1.27054036
H        1.28905437      -1.60699734      -0.31781167
H        2.14075553      -0.48362689       0.78267186
H        1.67403948       1.52757759      -0.17423120
H       -0.24322485       1.91478437      -1.22037021
H       -1.00534336      -1.50702869      -1.11257982
H       -1.51950529      -1.42705718       0.59660161
H       -2.27517377      -0.37992252      -0.61621616
15
Frame=4 idx=011467 GeodesicLength=0.2472308006728256 rxn_smarts="[C:1]([C@@:2]1([H:11])[N:3]([H:12])[C@:4]1([C:5]([H:13])([H:14])[H:15])[C:6]#[N:7])([H:8])([H:9])[H:10]>>[C:1]([C:4]([N:3]([C:2][H:11])[H:12])([C:5]([H:13])([H:14])[H:15])[C:6]#[N:7])([H:8])([H:9])[H:10]"
C        1.18266376      -0.79194570       0.38727586
C        1.34963449       0.68064230      -0.82734708
N        0.02512961       0.94570473      -1.28399815
C       -0.30276091       0.23330069      -0.07491278
C       -1.34059593      -0.84801603      -0.31134337
C       -0.64829750       1.10872513       1.04090710
N       -1.01954872       1.79675941       1.88276323
H        0.66570496      -1.16755167       1.27975362
H        1.28626229      -1.60770370      -0.31967724
H        2.15294272      -0.49723769       0.78242457
H        1.69376913       1.53070360      -0.20652851
H       -0.24235144       1.92158019      -1.21095426
H       -0.99938063      -1.50051078      -1.11238287
H       -1.52765830      -1.42674895       0.59351561
H       -2.27551352      -0.37770152      -0.61949573
15
Frame=5 idx=011467 GeodesicLength=0.30818624834349595 rxn_smarts="[C:1]([C@@:2]1([H:11])[N:3]([H:12])[C@:4]1([C:5]([H:13])([H:14])[H:15])[C:6]#[N:7])([H:8])([H:9])[H:10]>>[C:1]([C:4]([N:3]([C:2][H:11])[H:12])([C:5]([H:13])([H:14])[H:15])[C:6]#[N:7])([H:8])([H:9])[H:10]"
C        1.18958499      -0.79661057       0.39253875
C        1.34305575       0.67461554      -0.83166253
N        0.02305362       0.95170605      -1.27264206
C       -0.30305829       0.23365612      -0.06352861
C       -1.34169931      -0.84486828      -0.31136296
C       -0.66291502       1.11216877       1.04620255
N       -1.05132139       1.80411545       1.87705965
H        0.68754103      -1.18186922       1.28898911
H        1.28346750      -1.60818591      -0.32100824
H        2.16508358      -0.51084145       0.78237262
H        1.71354637       1.53336750      -0.24045242
H       -0.24134125       1.92850954      -1.20134015
H       -0.99321453      -1.49392220      -1.11211645
H       -1.53601551      -1.42637327       0.59015268
H       -2.27576754      -0.37546806      -0.62320195
15
Frame=6 idx=011467 GeodesicLength=0.36881303832206563 rxn_smarts="[C:1]([C@@:2]1([H:11])[N:3]([H:12])[C@:4]1([C:5]([H:13])([H:14])[H:15])[C:6]#[N:7])([H:8])([H:9])[H:10]>>[C:1]([C:4]([N:3]([C:2][H:11])[H:12])([C:5]([H:13])([H:14])[H:15])[C:6]#[N:7])([H:8])([H:9])[H:10]"
C        1.19646974      -0.80106437       0.39814306
C        1.33627414       0.66872475      -0.83561254
N        0.02101878       0.95783471      -1.26101479
C       -0.30349128       0.23410750      -0.05192676
C       -1.34278412      -0.84162836      -0.31152019
C       -0.67834025       1.11563531       1.05137078
N       -1.08245601       1.81097640       1.87185087
H        0.70968015      -1.19634031       1.29823984
H        1.28068313      -1.60843909      -0.32181728
H        2.17716822      -0.52443044       0.78254099
H        1.73331216       1.53551429      -0.27607163
H       -0.24019020       1.93558692      -1.19151474
H       -0.98683663      -1.48727488      -1.11180022
H       -1.54457788      -1.42596407       0.58648979
H       -2.27592993      -0.37323835      -0.62735717
15
Frame=7 idx=011467 GeodesicLength=0.429088097374903 rxn_smarts="[C:1]([C@@:2]1([H:11])[N:3]([H:12])[C@:4]1([C:5]([H:13])([H:14])[H:15])[C:6]#[N:7])([H:8])([H:9])[H:10]>>[C:1]([C:4]([N:3]([C:2][H:11])[H:12])([C:5]([H:13])([H:14])[H:15])[C:6]#[N:7])([H:8])([H:9])[H:10]"
C        1.20331725      -0.80529685       0.40410908
C        1.32929138       0.66298609      -0.83915036
N        0.01903828       0.96409087      -1.24910102
C       -0.30406749       0.23465760      -0.04010544
C       -1.34384030      -0.83828253      -0.31182085
C       -0.69457772       1.11910789       1.05638305
N       -1.11295036       1.81734568       1.86719481
H        0.73212178      -1.21098176       1.30747795
H        1.27792742      -1.60843142      -0.32209682
H        2.18917817      -0.53798912       0.78295976
H        1.75300529       1.53704946      -0.31348072
H       -0.23889290       1.94280370      -1.18147506
H       -0.98023649      -1.48054963      -1.11142686
H       -1.55333065      -1.42551017       0.58250520
H       -2.27598364      -0.37099982      -0.63197273
15
Frame=8 idx=011467 GeodesicLength=0.4891109397271513 rxn_smarts="[C:1]([C@@:2]1([H:11])[N:3]([H:12])[C@:4]1([C:5]([H:13])([H:14])[H:15])[C:6]#[N:7])([H:8])([H:9])[H:10]>>[C:1]([C:4]([N:3]([C:2][H:11])[H:12])([C:5]([H:13])([H:14])[H:15])[C:6]#[N:7])([H:8])([H:9])[H:10]"
C        1.21013805      -0.80932327       0.41045238
C        1.32214168       0.65744353      -0.84226509
N        0.01713704       0.97051978      -1.23689546
C       -0.30478332       0.23530978      -0.02803579
C       -1.34487762      -0.83485951      -0.31226457
C       -0.71160283       1.12258082       1.06130212
N       -1.14294233       1.82334984       1.86309577
H        0.75487927      -1.22585460       1.31671437
H        1.27520271      -1.60817985      -0.32188132
H        2.20113684      -0.55152215       0.78363954
H        1.77263128       1.53792755      -0.35280307
H       -0.23740514       1.95023010      -1.17118837
H       -0.97343227      -1.47377438      -1.11103030
H       -1.56228994      -1.42507470       0.57820682
H       -2.27593341      -0.36877294      -0.63704701
15
Frame=9 idx=011467 GeodesicLength=0.5487007649365829 rxn_smarts="[C:1]([C@@:2]1([H:11])[N:3]([H:12])[C@:4]1([C:5]([H:13])([H:14])[H:15])[C:6]#[N:7])([H:8])([H:9])[H:10]>>[C:1]([C:4]([N:3]([C:2][H:11])[H:12])([C:5]([H:13])([H:14])[H:15])[C:6]#[N:7])([H:8])([H:9])[H:10]"
C        1.21694315      -0.81311532       0.41717191
C        1.31481065       0.65207103      -0.84483202
N        0.01530798       0.97706471      -1.22427029
C       -0.30565237       0.23605908      -0.01570292
C       -1.34583860      -0.83126306      -0.31284289
C       -0.72947360       1.12598296       1.06602800
N       -1.17244192       1.82895154       1.85945556
H        0.77798105      -1.24090802       1.32584228
H        1.27255693      -1.60759722      -0.32114104
H        2.21303121      -0.56504365       0.78454308
H        1.79199247       1.53786791      -0.39413873
H       -0.23578299       1.95773931      -1.16052634
H       -0.96633408      -1.46681535      -1.11053172
H       -1.57138672      -1.42452612       0.57351175
H       -2.27571317      -0.36646780      -0.64256662
15
Frame=10 idx=011467 GeodesicLength=0.6080626676578601 rxn_smarts="[C:1]([C@@:2]1([H:11])[N:3]([H:12])[C@:4]1([C:5]([H:13])([H:14])[H:15])[C:6]#[N:7])([H:8])([H:9])[H:10]>>[C:1]([C:4]([N:3]([C:2][H:11])[H:12])([C:5]([H:13])([H:14])[H:15])[C:6]#[N:7])([H:8])([H:9])[H:10]"
C        1.22374027      -0.81669874       0.42430707
C        1.30733174       0.64693777      -0.84688593
N        0.01357860       0.98383079      -1.21126363
C       -0.30665950       0.23692018      -0.00306776
C       -1.34674561      -0.82755546      -0.31355698
C       -0.74811284       1.12933636       1.07068662
N       -1.20168026       1.83426074       1.85629770
H        0.80144716      -1.25624578       1.33492585
H        1.26996254      -1.60672921      -0.31990706
H        2.22489430      -0.57855787       0.78570567
H        1.81115326       1.53685959      -0.43768013
H       -0.23393006       1.96550224      -1.14948468
H       -0.95899743      -1.45974253      -1.11000121
H       -1.58064879      -1.42398916       0.56846785
H       -2.27533339      -0.36412892      -0.64854338
15
Frame=11 idx=011467 GeodesicLength=0.6671885027822597 rxn_smarts="[C:1]([C@@:2]1([H:11])[N:3]([H:12])[C@:4]1([C:5]([H:13])([H:14])[H:15])[C:6]#[N:7])([H:8])([H:9])[H:10]>>[C:1]([C:4]([N:3]([C:2][H:11])[H:12])([C:5]([H:13])([H:14])[H:15])[C:6]#[N:7])([H:8])([H:9])[H:10]"
C        1.23054876      -0.82006266       0.43187438
C        1.29972598       0.64205155      -0.84836304
N        0.01196902       0.99082941      -1.19779539
C       -0.30780422       0.23789983       0.00990505
C       -1.34757520      -0.82369885      -0.31439940
C       -0.76753102       1.13261762       1.07528173
N       -1.23081699       1.83927855       1.85356677
H        0.82530543      -1.27187483       1.34391942
H        1.26744762      -1.60554110      -0.31817331
H        2.23674689      -0.59207123       0.78710895
H        1.83000915       1.53469666      -0.48362595
H       -0.23181696       1.97351619      -1.13795237
H       -0.95138283      -1.45250322      -1.10941624
H       -1.59006474      -1.42342569       0.56304004
H       -2.27476090      -0.36171224      -0.65497064
15
Frame=12 idx=011467 GeodesicLength=0.7261173852983696 rxn_smarts="[C:1]([C@@:2]1([H:11])[N:3]([H:12])[C@:4]1([C:5]([H:13])([H:14])[H:15])[C:6]#[N:7])([H:8])([H:9])[H:10]>>[C:1]([C:4]([N:3]([C:2][H:11])[H:12])([C:5]([H:13])([H:14])[H:15])[C:6]#[N:7])([H:8])([H:9])[H:10]"
C        1.23739210      -0.82320785       0.43989569
C        1.29201203       0.63743743      -0.84921059
N        0.01049092       0.99811015      -1.18378503
C       -0.30908174       0.23901000       0.02326515
C       -1.34830642      -0.81966921      -0.31536095
C       -0.78771686       1.13580560       1.07986018
N       -1.26009317       1.84404352       1.85115071
H        0.84960441      -1.28782419       1.35279859
H        1.26503075      -1.60401773      -0.31593910
H        2.24862612      -0.60560147       0.78872938
H        1.84848334       1.53114474      -0.53220451
H       -0.22939837       1.98183917      -1.12579644
H       -0.94346490      -1.44505312      -1.10877424
H       -1.59961074      -1.42283688       0.55720465
H       -2.27396748      -0.35918016      -0.66183349
15
Frame=13 idx=011467 GeodesicLength=0.7849067003698574 rxn_smarts="[C:1]([C@@:2]1([H:11])[N:3]([H:12])[C@:4]1([C:5]([H:13])([H:14])[H:15])[C:6]#[N:7])([H:8])([H:9])[H:10]>>[C:1]([C:4]([N:3]([C:2][H:11])[H:12])([C:5]([H:13])([H:14])[H:15])[C:6]#[N:7])([H:8])([H:9])[H:10]"
C        1.24427492      -0.82613261       0.44844091
C        1.28421294       0.63317482      -0.84935394
N        0.00917587       1.00572712      -1.16919956
C       -0.31048231       0.24025561       0.03705350
C       -1.34892094      -0.81545756      -0.31645850
C       -0.80863944       1.13886828       1.08445701
N       -1.28957099       1.84853400       1.84904358
H        0.87436438      -1.30414030       1.36160088
H        1.26269230      -1.60212546      -0.31317651
H        2.26054623      -0.61916450       0.79061052
H        1.86639564       1.52604866      -0.58370193
H       -0.22661975       1.99052730      -1.11296636
H       -0.93523503      -1.43735481      -1.10810236
H       -1.60928375      -1.42225112       0.55093451
H       -2.27291008      -0.35650944      -0.66918174
15
Frame=14 idx=011467 GeodesicLength=0.8434264092145888 rxn_smarts="[C:1]([C@@:2]1([H:11])[N:3]([H:12])[C@:4]1([C:5]([H:13])([H:14])[H:15])[C:6]#[N:7])([H:8])([H:9])[H:10]>>[C:1]([C:4]([N:3]([C:2][H:11])[H:12])([C:5]([H:13])([H:14])[H:15])[C:6]#[N:7])([H:8])([H:9])[H:10]"
C        1.25120276      -0.82879012       0.45747605
C        1.27632754       0.62920762      -0.84871122
N        0.00804611       1.01367754      -1.15385729
C       -0.31200968       0.24165875       0.05132411
C       -1.34932706      -0.81096339      -0.31765439
C       -0.83035479       1.14177787       1.08908663
N       -1.31962922       1.85270464       1.84708522
H        0.89959394      -1.32076834       1.37016104
H        1.26052214      -1.59977421      -0.30990438
H        2.27246074      -0.63271055       0.79267046
H        1.88359921       1.51884457      -0.63840769
H       -0.22342121       1.99954894      -1.09918558
H       -0.92654510      -1.42928236      -1.10733261
H       -1.61899255      -1.42153010       0.54417570
H       -2.27147283      -0.35360087      -0.67692607
15
Frame=15 idx=011467 GeodesicLength=0.9018884628946983 rxn_smarts="[C:1]([C@@:2]1([H:11])[N:3]([H:12])[C@:4]1([C:5]([H:13])([H:14])[H:15])[C:6]#[N:7])([H:8])([H:9])[H:10]>>[C:1]([C:4]([N:3]([C:2][H:11])[H:12])([C:5]([H:13])([H:14])[H:15])[C:6]#[N:7])([H:8])([H:9])[H:10]"
C        1.25821432      -0.83119980       0.46714438
C        1.26843472       0.62573974      -0.84719462
N        0.00713160       1.02209837      -1.13780097
C       -0.31367269       0.24323340       0.06610142
C       -1.34959093      -0.80625755      -0.31902374
C       -0.85282977       1.14454372       1.09379552
N       -1.35012310       1.85656584       1.84543231
H        0.92533129      -1.33781908       1.37862605
H        1.25851681      -1.59698206      -0.30606524
H        2.28446258      -0.64621974       0.79508697
H        1.89990186       1.50943277      -0.69668628
H       -0.21974731       2.00909961      -1.08449727
H       -0.91747349      -1.42089923      -1.10656770
H       -1.62882897      -1.42083671       0.53688551
H       -2.26972690      -0.35049927      -0.68523634
15
Frame=16 idx=011467 GeodesicLength=0.9601084558225615 rxn_smarts="[C:1]([C@@:2]1([H:11])[N:3]([H:12])[C@:4]1([C:5]([H:13])([H:14])[H:15])[C:6]#[N:7])([H:8])([H:9])[H:10]>>[C:1]([C:4]([N:3]([C:2][H:11])[H:12])([C:5]([H:13])([H:14])[H:15])[C:6]#[N:7])([H:8])([H:9])[H:10]"
C        1.26526956      -0.83329937       0.47746439
C        1.26056280       0.62279869      -0.84460754
N        0.00650154       1.03094763      -1.12086884
C       -0.31547796       0.24498640       0.08143116
C       -1.34958432      -0.80123784      -0.32057801
C       -0.87614755       1.14711547       1.09856130
N       -1.38112434       1.86001995       1.84411516
H        0.95150733      -1.35519385       1.38688458
H        1.25673055      -1.59360820      -0.30165502
H        2.29643808      -0.65964208       0.79784574
H        1.91487272       1.49723611      -0.75895020
H       -0.21554733       2.01907997      -1.06869542
H       -0.90781561      -1.41206404      -1.10577739
H       -1.63870941      -1.42002942       0.52895064
H       -2.26747606      -0.34710941      -0.69412053
