12
Frame=0 idx=001077 GeodesicLength=0.0 rxn_smarts="[N:1]([c:2]1[c:3]([H:9])[c:4]([H:10])[c:5]([H:11])[n:6]1[H:12])([H:7])[H:8]>>[N+:1]([C:2]1=[C:3]=[C:4]([H:10])[C-:5]([H:11])[N:6]1[H:12])([H:7])([H:8])[H:9]"
N        1.86318703       0.44430458      -0.00348623
C        0.46610104       0.07178318      -0.02154837
C       -0.30594506       1.15957553      -0.24719843
C       -1.63191078       0.59875375      -0.17670070
C       -1.54252156      -0.74582238       0.08996164
N       -0.21362082      -1.09414745       0.20741876
H        2.45088807       0.08261226      -0.74925062
H        2.34213134       0.39092354       0.89129016
H        1.31623666       1.49426479      -0.22540364
H       -2.57094715       1.12003203      -0.29973714
H       -2.31011728      -1.49677333       0.21072817
H        0.13651848      -2.02550654       0.32392640
12
Frame=1 idx=001077 GeodesicLength=0.05671792117155707 rxn_smarts="[N:1]([c:2]1[c:3]([H:9])[c:4]([H:10])[c:5]([H:11])[n:6]1[H:12])([H:7])[H:8]>>[N+:1]([C:2]1=[C:3]=[C:4]([H:10])[C-:5]([H:11])[N:6]1[H:12])([H:7])([H:8])[H:9]"
N        1.86445417       0.43995046      -0.00291997
C        0.46673645       0.07208696       0.00451896
C       -0.30360000       1.15956620      -0.23473399
C       -1.62939717       0.59677858      -0.18350798
C       -1.54270468      -0.74788503       0.08217825
N       -0.21547969      -1.09400214       0.22169067
H        2.44179332       0.07014042      -0.75237220
H        2.35087416       0.40168167       0.88827541
H        1.30762940       1.50367690      -0.23729693
H       -2.56684297       1.12191688      -0.30197722
H       -2.31180613      -1.49672482       0.20591187
H        0.13834313      -2.02718609       0.31023315
12
Frame=2 idx=001077 GeodesicLength=0.11342000460761564 rxn_smarts="[N:1]([c:2]1[c:3]([H:9])[c:4]([H:10])[c:5]([H:11])[n:6]1[H:12])([H:7])[H:8]>>[N+:1]([C:2]1=[C:3]=[C:4]([H:10])[C-:5]([H:11])[N:6]1[H:12])([H:7])([H:8])[H:9]"
N        1.86548099       0.43499611      -0.00266604
C        0.46733164       0.07258519       0.03035151
C       -0.30139337       1.15994842      -0.22069393
C       -1.62674739       0.59526569      -0.18828211
C       -1.54264947      -0.74937579       0.07687171
N       -0.21715236      -1.09404163       0.23411245
H        2.43193514       0.05827788      -0.75655083
H        2.35982655       0.41083539       0.88432988
H        1.29846422       1.51317796      -0.24807799
H       -2.56252598       1.12308979      -0.30766101
H       -2.31311045      -1.49688219       0.19971368
H        0.14054046      -2.02787682       0.29855269
12
Frame=3 idx=001077 GeodesicLength=0.1700854139195657 rxn_smarts="[N:1]([c:2]1[c:3]([H:9])[c:4]([H:10])[c:5]([H:11])[n:6]1[H:12])([H:7])[H:8]>>[N+:1]([C:2]1=[C:3]=[C:4]([H:10])[C-:5]([H:11])[N:6]1[H:12])([H:7])([H:8])[H:9]"
N        1.86629931       0.42952801      -0.00252157
C        0.46798364       0.07303284       0.05508657
C       -0.29925657       1.16050097      -0.20603139
C       -1.62399422       0.59421715      -0.19095718
C       -1.54245181      -0.75032290       0.07396497
N       -0.21858452      -1.09424647       0.24490668
H        2.42189828       0.04715430      -0.76120704
H        2.36842872       0.41864782       0.88001979
H        1.28875909       1.52281941      -0.25792043
H       -2.55798842       1.12375247      -0.31628967
H       -2.31410206      -1.49711271       0.19312988
H        0.14300856      -2.02797089       0.28781937
12
Frame=4 idx=001077 GeodesicLength=0.22679527127203125 rxn_smarts="[N:1]([c:2]1[c:3]([H:9])[c:4]([H:10])[c:5]([H:11])[n:6]1[H:12])([H:7])[H:8]>>[N+:1]([C:2]1=[C:3]=[C:4]([H:10])[C-:5]([H:11])[N:6]1[H:12])([H:7])([H:8])[H:9]"
N        1.86697084       0.42361304      -0.00225497
C        0.46873192       0.07326048       0.07805861
C       -0.29713710       1.16100382      -0.19176350
C       -1.62115914       0.59343985      -0.19245819
C       -1.54213207      -0.75096035       0.07239736
N       -0.21979527      -1.09462112       0.25407531
H        2.41225230       0.03682806      -0.76573478
H        2.37618047       0.42542720       0.87594981
H        1.27854719       1.53265555      -0.26700198
H       -2.55323244       1.12422907      -0.32620464
H       -2.31487599      -1.49718635       0.18739150
H        0.14564929      -2.02768926       0.27754547
12
Frame=5 idx=001077 GeodesicLength=0.2834228543598394 rxn_smarts="[N:1]([c:2]1[c:3]([H:9])[c:4]([H:10])[c:5]([H:11])[n:6]1[H:12])([H:7])[H:8]>>[N+:1]([C:2]1=[C:3]=[C:4]([H:10])[C-:5]([H:11])[N:6]1[H:12])([H:7])([H:8])[H:9]"
N        1.86754443       0.41728746      -0.00204627
C        0.46960585       0.07325810       0.09961690
C       -0.29503651       1.16155036      -0.17717823
C       -1.61831503       0.59306160      -0.19191644
C       -1.54182609      -0.75114913       0.07297560
N       -0.22081046      -1.09507499       0.26237099
H        2.40273621       0.02725930      -0.77056355
H        2.38347658       0.43122149       0.87176055
H        1.26785531       1.54272870      -0.27536426
H       -2.54811881       1.12430648      -0.33870166
H       -2.31544736      -1.49734000       0.18149138
H        0.14833588      -2.02710936       0.26755498
12
Frame=6 idx=001077 GeodesicLength=0.3400625250444294 rxn_smarts="[N:1]([c:2]1[c:3]([H:9])[c:4]([H:10])[c:5]([H:11])[n:6]1[H:12])([H:7])[H:8]>>[N+:1]([C:2]1=[C:3]=[C:4]([H:10])[C-:5]([H:11])[N:6]1[H:12])([H:7])([H:8])[H:9]"
N        1.86804190       0.41053033      -0.00218495
C        0.47063122       0.07303848       0.12021451
C       -0.29300890       1.16232245      -0.16109619
C       -1.61546194       0.59306256      -0.18945399
C       -1.54155999      -0.75091002       0.07572206
N       -0.22167307      -1.09555293       0.27038443
H        2.39286943       0.01865147      -0.77645132
H        2.39083408       0.43569700       0.86692494
H        1.25658271       1.55325770      -0.28243745
H       -2.54241677       1.12379936      -0.35498373
H       -2.31582003      -1.49762432       0.17515339
H        0.15098135      -2.02627208       0.25820830
12
Frame=7 idx=001077 GeodesicLength=0.39665307562481805 rxn_smarts="[N:1]([c:2]1[c:3]([H:9])[c:4]([H:10])[c:5]([H:11])[n:6]1[H:12])([H:7])[H:8]>>[N+:1]([C:2]1=[C:3]=[C:4]([H:10])[C-:5]([H:11])[N:6]1[H:12])([H:7])([H:8])[H:9]"
N        1.86857085       0.40350581      -0.00163876
C        0.47173389       0.07250341       0.13856976
C       -0.29084914       1.16250468      -0.14835919
C       -1.61257233       0.59288364      -0.18811939
C       -1.54121425      -0.75082555       0.07742445
N       -0.22244131      -1.09613033       0.27717920
H        2.38451303       0.00994752      -0.78057841
H        2.39651167       0.44075140       0.86354956
H        1.24505728       1.56371419      -0.29057461
H       -2.53686330       1.12416610      -0.36621154
H       -2.31611361      -1.49774691       0.16924285
H        0.15366723      -2.02527398       0.24951606
12
Frame=8 idx=001077 GeodesicLength=0.45328880693929624 rxn_smarts="[N:1]([c:2]1[c:3]([H:9])[c:4]([H:10])[c:5]([H:11])[n:6]1[H:12])([H:7])[H:8]>>[N+:1]([C:2]1=[C:3]=[C:4]([H:10])[C-:5]([H:11])[N:6]1[H:12])([H:7])([H:8])[H:9]"
N        1.86915653       0.39615046      -0.00078702
C        0.47294084       0.07166827       0.15531841
C       -0.28864643       1.16249073      -0.13653399
C       -1.60982910       0.59296553      -0.18545198
C       -1.54088758      -0.75068226       0.07939919
N       -0.22308975      -1.09687547       0.28282496
H        2.37689546       0.00189922      -0.78430919
H        2.40139227       0.44535963       0.86079325
H        1.23316406       1.57450343      -0.29831854
H       -2.53095428       1.12430296      -0.37835231
H       -2.31645249      -1.49752159       0.16512694
H        0.15631048      -2.02426093       0.24029027
12
Frame=9 idx=001077 GeodesicLength=0.5098927406743584 rxn_smarts="[N:1]([c:2]1[c:3]([H:9])[c:4]([H:10])[c:5]([H:11])[n:6]1[H:12])([H:7])[H:8]>>[N+:1]([C:2]1=[C:3]=[C:4]([H:10])[C-:5]([H:11])[N:6]1[H:12])([H:7])([H:8])[H:9]"
N        1.86984074       0.38847224       0.00039083
C        0.47423472       0.07059299       0.17067744
C       -0.28638335       1.16226115      -0.12582279
C       -1.60705482       0.59299436      -0.18313582
C       -1.54051370      -0.75060014       0.08095414
N       -0.22365699      -1.09770658       0.28771009
H        2.37001038      -0.00578941      -0.78753796
H        2.40553907       0.44981120       0.85866005
H        1.22094921       1.58554153      -0.30605132
H       -2.52508373       1.12470431      -0.38916452
H       -2.31682109      -1.49709655       0.16192858
H        0.15893957      -2.02318509       0.23139128
12
Frame=10 idx=001077 GeodesicLength=0.5664828769708086 rxn_smarts="[N:1]([c:2]1[c:3]([H:9])[c:4]([H:10])[c:5]([H:11])[n:6]1[H:12])([H:7])[H:8]>>[N+:1]([C:2]1=[C:3]=[C:4]([H:10])[C-:5]([H:11])[N:6]1[H:12])([H:7])([H:8])[H:9]"
N        1.87061600       0.38042247       0.00170001
C        0.47562072       0.06933440       0.18507734
C       -0.28409219       1.16195662      -0.11540394
C       -1.60430505       0.59311902      -0.18034125
C       -1.54011808      -0.75048897       0.08260789
N       -0.22416404      -1.09857139       0.29223333
H        2.36346780      -0.01312098      -0.79074425
H        2.40933550       0.45398142       0.85672512
H        1.20834100       1.59688899      -0.31363103
H       -2.51905534       1.12511736      -0.40006051
H       -2.31715828      -1.49661127       0.15895021
H        0.16151196      -2.02202766       0.22288709
12
Frame=11 idx=001077 GeodesicLength=0.6230780021359816 rxn_smarts="[N:1]([c:2]1[c:3]([H:9])[c:4]([H:10])[c:5]([H:11])[n:6]1[H:12])([H:7])[H:8]>>[N+:1]([C:2]1=[C:3]=[C:4]([H:10])[C-:5]([H:11])[N:6]1[H:12])([H:7])([H:8])[H:9]"
N        1.87146670       0.37197873       0.00304722
C        0.47710053       0.06791424       0.19876302
C       -0.28179525       1.16163008      -0.10489650
C       -1.60156066       0.59330384      -0.17735393
C       -1.53973420      -0.75030381       0.08453461
N       -0.22463354      -1.09944760       0.29661243
H        2.35703160      -0.02006287      -0.79418172
H        2.41296370       0.45781921       0.85477469
H        1.19527134       1.60863005      -0.32087627
H       -2.51263791       1.12543081      -0.41126792
H       -2.31746739      -1.49609372       0.15593946
H        0.16399507      -2.02079895       0.21490491
12
Frame=12 idx=001077 GeodesicLength=0.6796677131903265 rxn_smarts="[N:1]([c:2]1[c:3]([H:9])[c:4]([H:10])[c:5]([H:11])[n:6]1[H:12])([H:7])[H:8]>>[N+:1]([C:2]1=[C:3]=[C:4]([H:10])[C-:5]([H:11])[N:6]1[H:12])([H:7])([H:8])[H:9]"
N        1.87231393       0.36309393       0.00399312
C        0.47871471       0.06632848       0.21230222
C       -0.27955887       1.16151375      -0.09252363
C       -1.59893667       0.59387391      -0.17224843
C       -1.53944569      -0.74983956       0.08800416
N       -0.22508223      -1.10033591       0.30118218
H        2.34988837      -0.02618007      -0.79894872
H        2.41706391       0.46071343       0.85196868
H        1.18151738       1.62108222      -0.32674947
H       -2.50499124       1.12481402      -0.42688365
H       -2.31772960      -1.49556268       0.15279994
H        0.16624600      -2.01950152       0.20710361
12
Frame=13 idx=001077 GeodesicLength=0.7362471476479926 rxn_smarts="[N:1]([c:2]1[c:3]([H:9])[c:4]([H:10])[c:5]([H:11])[n:6]1[H:12])([H:7])[H:8]>>[N+:1]([C:2]1=[C:3]=[C:4]([H:10])[C-:5]([H:11])[N:6]1[H:12])([H:7])([H:8])[H:9]"
N        1.87329453       0.35378533       0.00514653
C        0.48041834       0.06458735       0.22504866
C       -0.27725916       1.16126353      -0.08073472
C       -1.59633787       0.59449987      -0.16689323
C       -1.53919889      -0.74927935       0.09193907
N       -0.22549579      -1.10124425       0.30555152
H        2.34311929      -0.03212451      -0.80352285
H        2.42080829       0.46363581       0.84943020
H        1.16733279       1.63384382      -0.33276931
H       -2.49710008       1.12422006      -0.44208784
H       -2.31793296      -1.49502640       0.14947830
H        0.16835153      -2.01816126       0.19941366
12
Frame=14 idx=001077 GeodesicLength=0.7928388822367646 rxn_smarts="[N:1]([c:2]1[c:3]([H:9])[c:4]([H:10])[c:5]([H:11])[n:6]1[H:12])([H:7])[H:8]>>[N+:1]([C:2]1=[C:3]=[C:4]([H:10])[C-:5]([H:11])[N:6]1[H:12])([H:7])([H:8])[H:9]"
N        1.87442334       0.34401615       0.00649954
C        0.48220724       0.06272780       0.23708012
C       -0.27488526       1.16086342      -0.06968877
C       -1.59362046       0.59495708      -0.16259352
C       -1.53895382      -0.74870780       0.09577316
N       -0.22590752      -1.10212743       0.30989348
H        2.33669403      -0.03799801      -0.80790940
H        2.42423195       0.46667565       0.84710969
H        1.15272385       1.64694858      -0.33895559
H       -2.48919891       1.12395371      -0.45534758
H       -2.31806471      -1.49452188       0.14554192
H        0.17035027      -2.01678726       0.19259694
12
Frame=15 idx=001077 GeodesicLength=0.8494378091809441 rxn_smarts="[N:1]([c:2]1[c:3]([H:9])[c:4]([H:10])[c:5]([H:11])[n:6]1[H:12])([H:7])[H:8]>>[N+:1]([C:2]1=[C:3]=[C:4]([H:10])[C-:5]([H:11])[N:6]1[H:12])([H:7])([H:8])[H:9]"
N        1.87562213       0.33375047       0.00772938
C        0.48411671       0.06070133       0.24881293
C       -0.27251317       1.16050786      -0.05777043
C       -1.59086007       0.59549744      -0.15781454
C       -1.53880704      -0.74791504       0.10086920
N       -0.22631159      -1.10304798       0.31428477
H        2.32993318      -0.04323250      -0.81303310
H        2.42782975       0.46918534       0.84438276
H        1.13746473       1.66075051      -0.34413068
H       -2.48037376       1.12310085      -0.47086164
H       -2.31818192      -1.49389458       0.14183801
H        0.17208105      -2.01540369       0.18569335
12
Frame=16 idx=001077 GeodesicLength=0.9060397723599399 rxn_smarts="[N:1]([c:2]1[c:3]([H:9])[c:4]([H:10])[c:5]([H:11])[n:6]1[H:12])([H:7])[H:8]>>[N+:1]([C:2]1=[C:3]=[C:4]([H:10])[C-:5]([H:11])[N:6]1[H:12])([H:7])([H:8])[H:9]"
N        1.87698646       0.32297412       0.00915435
C        0.48612111       0.05850795       0.25987978
C       -0.27006510       1.16001333      -0.04628668
C       -1.58802092       0.59596228      -0.15350358
C       -1.53869291      -0.74709057       0.10607979
N       -0.22670581      -1.10402059       0.31844735
H        2.32343198      -0.04811380      -0.81814432
H        2.43118380       0.47162379       0.84182132
H        1.12171127       1.67508174      -0.34900341
H       -2.47125078       1.12223158      -0.48597020
H       -2.31834308      -1.49310916       0.13856422
H        0.17364397      -2.01406067       0.17896137
