17
Frame=0 idx=010918 GeodesicLength=0.0 rxn_smarts="[O:1]([C:2]([C@@:3]1([H:11])[C:4]([H:12])([H:13])[C:5]([H:14])([H:15])[C:6]([H:16])([H:17])[O:7]1)([H:9])[H:10])[H:8]>>[C:3]1([H:11])=[C:4]([H:13])[C:5]([H:14])([H:15])[C:6]([H:16])([H:17])[O:7]1.[O:1]([C:2]([H:9])([H:10])[H:12])[H:8]"
O        2.71593167      -0.22513053      -0.54454091
C        1.80946305      -0.75051240       0.37754868
C        0.05444358      -0.46648151      -0.76426938
C       -1.09428735      -0.91461511      -0.01651495
C       -1.87002388       0.33704798       0.33159263
C       -0.82339048       1.42340511       0.09830674
O        0.10955754       0.87456898      -0.86150994
H        2.41739659       0.66043868      -0.77208487
H        1.79122342      -0.19872134       1.33115511
H        2.05782813      -1.80098641       0.54719368
H        0.53854166      -0.99208789      -1.58208306
H        0.30729332      -0.96312986       0.43320014
H       -1.57329890      -1.84038271      -0.29998493
H       -2.23251833       0.37538020       1.36104125
H       -2.73417545       0.48412422      -0.32677233
H       -0.26719998       1.64765209       1.01316798
H       -1.20678461       2.34943048      -0.32544591
17
Frame=1 idx=010918 GeodesicLength=0.08842026396461233 rxn_smarts="[O:1]([C:2]([C@@:3]1([H:11])[C:4]([H:12])([H:13])[C:5]([H:14])([H:15])[C:6]([H:16])([H:17])[O:7]1)([H:9])[H:10])[H:8]>>[C:3]1([H:11])=[C:4]([H:13])[C:5]([H:14])([H:15])[C:6]([H:16])([H:17])[O:7]1.[O:1]([C:2]([H:9])([H:10])[H:12])[H:8]"
O        2.71723453      -0.22285688      -0.54471687
C        1.81391668      -0.75449960       0.37846450
C        0.05400361      -0.46620783      -0.76411884
C       -1.09342614      -0.91285473      -0.01501352
C       -1.87150917       0.33920274       0.32795715
C       -0.82468813       1.42611360       0.09745942
O        0.11034439       0.87808858      -0.85934228
H        2.40985234       0.65927959      -0.77425361
H        1.80307148      -0.20236873       1.33189376
H        2.07327020      -1.80265617       0.54595819
H        0.52460177      -0.98890250      -1.59150562
H        0.31158913      -0.97977807       0.46039598
H       -1.57674314      -1.83555998      -0.30230415
H       -2.23863832       0.37568408       1.35572587
H       -2.73257417       0.48440779      -0.33449905
H       -0.27200251       1.65092190       1.01448682
H       -1.20830254       2.35198622      -0.32658776
17
Frame=2 idx=010918 GeodesicLength=0.17660084308958296 rxn_smarts="[O:1]([C:2]([C@@:3]1([H:11])[C:4]([H:12])([H:13])[C:5]([H:14])([H:15])[C:6]([H:16])([H:17])[O:7]1)([H:9])[H:10])[H:8]>>[C:3]1([H:11])=[C:4]([H:13])[C:5]([H:14])([H:15])[C:6]([H:16])([H:17])[O:7]1.[O:1]([C:2]([H:9])([H:10])[H:12])[H:8]"
O        2.71835783      -0.22065255      -0.54460487
C        1.81793023      -0.75858199       0.37937821
C        0.05348080      -0.46572051      -0.76463787
C       -1.09215413      -0.91104609      -0.01349971
C       -1.87275831       0.34127987       0.32436785
C       -0.82594530       1.42888713       0.09646182
O        0.11111214       0.88184500      -0.85746834
H        2.40231335       0.65803184      -0.77605868
H        1.81454374      -0.20616732       1.33261626
H        2.08833703      -1.80429139       0.54469856
H        0.51044150      -0.98532007      -1.60143958
H        0.31587649      -0.99668287       0.48823309
H       -1.57970827      -1.83079714      -0.30426622
H       -2.24434811       0.37588757       1.35049417
H       -2.73084805       0.48445313      -0.34202556
H       -0.27663950       1.65431677       1.01554788
H       -1.20999143       2.35455862      -0.32779704
17
Frame=3 idx=010918 GeodesicLength=0.2646316891247802 rxn_smarts="[O:1]([C:2]([C@@:3]1([H:11])[C:4]([H:12])([H:13])[C:5]([H:14])([H:15])[C:6]([H:16])([H:17])[O:7]1)([H:9])[H:10])[H:8]>>[C:3]1([H:11])=[C:4]([H:13])[C:5]([H:14])([H:15])[C:6]([H:16])([H:17])[O:7]1.[O:1]([C:2]([H:9])([H:10])[H:12])[H:8]"
O        2.71928586      -0.21854777      -0.54419080
C        1.82145678      -0.76277209       0.38029130
C        0.05286727      -0.46498287      -0.76590080
C       -1.09041470      -0.90918401      -0.01196768
C       -1.87374996       0.34326548       0.32082959
C       -0.82716513       1.43173456       0.09530516
O        0.11186562       0.88587400      -0.85590658
H        2.39478822       0.65667772      -0.77749610
H        1.82561594      -0.21012716       1.33332235
H        2.10296704      -1.80590363       0.54342867
H        0.49605932      -0.98130259      -1.61195256
H        0.32015517      -1.01383027       0.51679863
H       -1.58214002      -1.82609969      -0.30584496
H       -2.24961674       0.37597056       1.34535717
H       -2.72898888       0.48422618      -0.34933727
H       -0.28110574       1.65785210       1.01633796
H       -1.21188005       2.35714948      -0.32907409
17
Frame=4 idx=010918 GeodesicLength=0.35259487892955965 rxn_smarts="[O:1]([C:2]([C@@:3]1([H:11])[C:4]([H:12])([H:13])[C:5]([H:14])([H:15])[C:6]([H:16])([H:17])[O:7]1)([H:9])[H:10])[H:8]>>[C:3]1([H:11])=[C:4]([H:13])[C:5]([H:14])([H:15])[C:6]([H:16])([H:17])[O:7]1.[O:1]([C:2]([H:9])([H:10])[H:12])[H:8]"
O        2.72000065      -0.21658123      -0.54346713
C        1.82444936      -0.76708110       0.38120632
C        0.05215418      -0.46395522      -0.76798086
C       -1.08814943      -0.90726172      -0.01041709
C       -1.87446364       0.34514442       0.31734502
C       -0.82835203       1.43466461       0.09398341
O        0.11261184       0.89021248      -0.85466933
H        2.38728603       0.65519190      -0.77857069
H        1.83627292      -0.21425215       1.33400913
H        2.11709624      -1.80750489       0.54216745
H        0.48144955      -0.97680516      -1.62311317
H        0.32442583      -1.03120151       0.54619558
H       -1.58397976      -1.82147430      -0.30701992
H       -2.25441600       0.37590838       1.34032305
H       -2.72698773       0.48369270      -0.35642341
H       -0.28540044       1.66154267       1.01684872
H       -1.21399756       2.35976012      -0.33041708
17
Frame=5 idx=010918 GeodesicLength=0.4405464661792325 rxn_smarts="[O:1]([C:2]([C@@:3]1([H:11])[C:4]([H:12])([H:13])[C:5]([H:14])([H:15])[C:6]([H:16])([H:17])[O:7]1)([H:9])[H:10])[H:8]>>[C:3]1([H:11])=[C:4]([H:13])[C:5]([H:14])([H:15])[C:6]([H:16])([H:17])[O:7]1.[O:1]([C:2]([H:9])([H:10])[H:12])[H:8]"
O        2.72048081      -0.21478861      -0.54242026
C        1.82685348      -0.77152209       0.38212617
C        0.05133113      -0.46259445      -0.77096226
C       -1.08529251      -0.90527165      -0.00884757
C       -1.87487326       0.34690042       0.31391967
C       -0.82950911       1.43768732       0.09248751
O        0.11335655       0.89490084      -0.85377629
H        2.37981274       0.65355370      -0.77927891
H        1.84648514      -0.21855251       1.33467583
H        2.13065192      -1.80910991       0.54093287
H        0.46660946      -0.97178528      -1.63499581
H        0.32869022      -1.04877711       0.57652348
H       -1.58516204      -1.81692888      -0.30776417
H       -2.25870615       0.37567509       1.33540452
H       -2.72483364       0.48281509      -0.36326525
H       -0.28951863       1.66540609       1.01706589
H       -1.21637612       2.36239193      -0.33182544
17
Frame=6 idx=010918 GeodesicLength=0.5285158507497515 rxn_smarts="[O:1]([C:2]([C@@:3]1([H:11])[C:4]([H:12])([H:13])[C:5]([H:14])([H:15])[C:6]([H:16])([H:17])[O:7]1)([H:9])[H:10])[H:8]>>[C:3]1([H:11])=[C:4]([H:13])[C:5]([H:14])([H:15])[C:6]([H:16])([H:17])[O:7]1.[O:1]([C:2]([H:9])([H:10])[H:12])[H:8]"
O        2.72070424      -0.21321273      -0.54104526
C        1.82861959      -0.77610540       0.38305674
C        0.05038847      -0.46085758      -0.77491952
C       -1.08178073      -0.90320597      -0.00726612
C       -1.87495443       0.34851606       0.31055788
C       -0.83064073       1.44081148       0.09081075
O        0.11410771       0.89997701      -0.85323946
H        2.37237436       0.65173561      -0.77962813
H        1.85623420      -0.22302989       1.33532007
H        2.14356339      -1.81073182       0.53975015
H        0.45152944      -0.96619701      -1.64767241
H        0.33294915      -1.06653376       0.60789316
H       -1.58562108      -1.81246662      -0.30806790
H       -2.26245009       0.37523934       1.33061369
H       -2.72251678       0.48155799      -0.36984558
H       -0.29345979       1.66945907       1.01698020
H       -1.21904692       2.36504421      -0.33329827
17
Frame=7 idx=010918 GeodesicLength=0.6165607223901389 rxn_smarts="[O:1]([C:2]([C@@:3]1([H:11])[C:4]([H:12])([H:13])[C:5]([H:14])([H:15])[C:6]([H:16])([H:17])[O:7]1)([H:9])[H:10])[H:8]>>[C:3]1([H:11])=[C:4]([H:13])[C:5]([H:14])([H:15])[C:6]([H:16])([H:17])[O:7]1.[O:1]([C:2]([H:9])([H:10])[H:12])[H:8]"
O        2.72063995      -0.21190635      -0.53933632
C        1.82968376      -0.78084472       0.38400333
C        0.04931222      -0.45869034      -0.77994372
C       -1.07753460      -0.90105308      -0.00568161
C       -1.87467620       0.34997072       0.30726390
C       -0.83175204       1.44404835       0.08894551
O        0.11487479       0.90548735      -0.85307267
H        2.36497471       0.64970469      -0.77962338
H        1.86549750      -0.22768921       1.33593809
H        2.15574509      -1.81238882       0.53864467
H        0.43620029      -0.95998555      -1.66122729
H        0.33720335      -1.08443988       0.64043958
H       -1.58527189      -1.80809330      -0.30791452
H       -2.26560195       0.37456392       1.32596313
H       -2.72002280       0.47987743      -0.37614525
H       -0.29722454       1.67372276       1.01658055
H       -1.22204765       2.36771603      -0.33483401
17
Frame=8 idx=010918 GeodesicLength=0.7046838066328912 rxn_smarts="[O:1]([C:2]([C@@:3]1([H:11])[C:4]([H:12])([H:13])[C:5]([H:14])([H:15])[C:6]([H:16])([H:17])[O:7]1)([H:9])[H:10])[H:8]>>[C:3]1([H:11])=[C:4]([H:13])[C:5]([H:14])([H:15])[C:6]([H:16])([H:17])[O:7]1.[O:1]([C:2]([H:9])([H:10])[H:12])[H:8]"
O        2.72025437      -0.21092407      -0.53729082
C        1.82998504      -0.78574904       0.38497619
C        0.04808830      -0.45604113      -0.78611813
C       -1.07247681      -0.89880107      -0.00411242
C       -1.87400634       0.35124294       0.30404372
C       -0.83284725       1.44740736       0.08688463
O        0.11566674       0.91147426      -0.85328913
H        2.35761355       0.64742556      -0.77927377
H        1.87425097      -0.23252846       1.33652794
H        2.16711060      -1.81409587       0.53765060
H        0.42060898      -0.95309742      -1.67573899
H        0.34145552      -1.10246282       0.67428767
H       -1.58403167      -1.80381071      -0.30730310
H       -2.26810861       0.37360751       1.32146898
H       -2.71733666       0.47773223      -0.38213816
H       -0.30081286       1.67821690       1.01585622
H       -1.22541387       2.37040382      -0.33643142
17
Frame=9 idx=010918 GeodesicLength=0.7929516614822796 rxn_smarts="[O:1]([C:2]([C@@:3]1([H:11])[C:4]([H:12])([H:13])[C:5]([H:14])([H:15])[C:6]([H:16])([H:17])[O:7]1)([H:9])[H:10])[H:8]>>[C:3]1([H:11])=[C:4]([H:13])[C:5]([H:14])([H:15])[C:6]([H:16])([H:17])[O:7]1.[O:1]([C:2]([H:9])([H:10])[H:12])[H:8]"
O        2.71950070      -0.21033383      -0.53489442
C        1.82943303      -0.79083268       0.38598708
C        0.04668981      -0.45283672      -0.79356308
C       -1.06649204      -0.89643085      -0.00257878
C       -1.87289505       0.35230289       0.30090864
C       -0.83393122       1.45090257       0.08461349
O        0.11649188       0.91799672      -0.85391307
H        2.35028645       0.64485237      -0.77857814
H        1.88244753      -0.23756375       1.33709119
H        2.17753271      -1.81587887       0.53680097
H        0.40474437      -0.94546115      -1.69131269
H        0.34571458      -1.12054853       0.70959757
H       -1.58177676      -1.79962064      -0.30622109
H       -2.26989027       0.37231485       1.31715771
H       -2.71443765       0.47506054      -0.38778445
H       -0.30421971       1.68297518       1.01478327
H       -1.22919835       2.37310190      -0.33809422
17
Frame=10 idx=010918 GeodesicLength=0.8812618789960079 rxn_smarts="[O:1]([C:2]([C@@:3]1([H:11])[C:4]([H:12])([H:13])[C:5]([H:14])([H:15])[C:6]([H:16])([H:17])[O:7]1)([H:9])[H:10])[H:8]>>[C:3]1([H:11])=[C:4]([H:13])[C:5]([H:14])([H:15])[C:6]([H:16])([H:17])[O:7]1.[O:1]([C:2]([H:9])([H:10])[H:12])[H:8]"
O        2.71834639      -0.21018363      -0.53215203
C        1.82798080      -0.79610314       0.38705304
C        0.04510904      -0.44903387      -0.80233335
C       -1.05952274      -0.89393092      -0.00111034
C       -1.87131456       0.35313291       0.29786413
C       -0.83500842       1.45454129       0.08212608
O        0.11735987       0.92508494      -0.85495101
H        2.34298773       0.64195819      -0.77754794
H        1.89007101      -0.24278722       1.33762891
H        2.18694727      -1.81775271       0.53613169
H        0.38858338      -0.93702779      -1.70800697
H        0.34998610      -1.13867080       0.74646394
H       -1.57843967      -1.79552670      -0.30468262
H       -2.27089423       0.37064668       1.31304569
H       -2.71131518       0.47183420      -0.39305770
H       -0.30744796       1.68801476       1.01335432
H       -1.23342884       2.37580381      -0.33982586
17
Frame=11 idx=010918 GeodesicLength=0.9695734906513714 rxn_smarts="[O:1]([C:2]([C@@:3]1([H:11])[C:4]([H:12])([H:13])[C:5]([H:14])([H:15])[C:6]([H:16])([H:17])[O:7]1)([H:9])[H:10])[H:8]>>[C:3]1([H:11])=[C:4]([H:13])[C:5]([H:14])([H:15])[C:6]([H:16])([H:17])[O:7]1.[O:1]([C:2]([H:9])([H:10])[H:12])[H:8]"
O        2.71674754      -0.21052990      -0.52905908
C        1.82556139      -0.80156853       0.38819615
C        0.04332691      -0.44457841      -0.81250650
C       -1.05148724      -0.89128570       0.00025437
C       -1.86922369       0.35370914       0.29492195
C       -0.83608125       1.45833189       0.07940993
O        0.11827700       0.93277737      -0.85642143
H        2.33570422       0.63870777      -0.77618783
H        1.89708595      -0.24819694       1.33814713
H        2.19526176      -1.81973598       0.53568546
H        0.37210310      -0.92774048      -1.72589630
H        0.35428665      -1.15678854       0.78500059
H       -1.57392922      -1.79152683      -0.30271076
H       -2.27104087       0.36855186       1.30916150
H       -2.70795529       0.46801378      -0.39791362
H       -0.31049430       1.69336003       1.01155059
H       -1.23814267       2.37849947      -0.34163215
17
Frame=12 idx=010918 GeodesicLength=1.0578478082306897 rxn_smarts="[O:1]([C:2]([C@@:3]1([H:11])[C:4]([H:12])([H:13])[C:5]([H:14])([H:15])[C:6]([H:16])([H:17])[O:7]1)([H:9])[H:10])[H:8]>>[C:3]1([H:11])=[C:4]([H:13])[C:5]([H:14])([H:15])[C:6]([H:16])([H:17])[O:7]1.[O:1]([C:2]([H:9])([H:10])[H:12])[H:8]"
O        2.71465582      -0.21143121      -0.52561180
C        1.82210522      -0.80723492       0.38944263
C        0.04132437      -0.43941231      -0.82415944
C       -1.04230117      -0.88847887       0.00147384
C       -1.86657675       0.35400645       0.29209463
C       -0.83715139       1.46228223       0.07645275
O        0.11925015       0.94111194      -0.85834250
H        2.32841806       0.63506526      -0.77450246
H        1.90345148      -0.25379202       1.33865506
H        2.20237779      -1.82184807       0.53550702
H        0.35527469      -0.91754033      -1.74505291
H        0.35863397      -1.17485791       0.82531361
H       -1.56814621      -1.78761809      -0.30033231
H       -2.27024317       0.36597651       1.30553568
H       -2.70434137       0.46355744      -0.40230523
H       -0.31335357       1.69903731       1.00935239
H       -1.24337795       2.38117660      -0.34352096
17
Frame=13 idx=010918 GeodesicLength=1.1460412602041514 rxn_smarts="[O:1]([C:2]([C@@:3]1([H:11])[C:4]([H:12])([H:13])[C:5]([H:14])([H:15])[C:6]([H:16])([H:17])[O:7]1)([H:9])[H:10])[H:8]>>[C:3]1([H:11])=[C:4]([H:13])[C:5]([H:14])([H:15])[C:6]([H:16])([H:17])[O:7]1.[O:1]([C:2]([H:9])([H:10])[H:12])[H:8]"
O        2.71202019      -0.21294318      -0.52181126
C        1.81755227      -0.81310500       0.39082406
C        0.03907874      -0.43348677      -0.83734733
C       -1.03189186      -0.88549133       0.00248957
C       -1.86333147       0.35400234       0.28939395
C       -0.83821992       1.46639705       0.07324370
O        0.12028307       0.95011577      -0.86072952
H        2.32110263       0.63099445      -0.77250104
H        1.90913462      -0.25956324       1.33916446
H        2.20821284      -1.82410400       0.53564485
H        0.33807048      -0.90637352      -1.76552907
H        0.36305453      -1.19283471       0.86749191
H       -1.56100782      -1.78379734      -0.29759239
H       -2.26841301       0.36286721       1.30219823
H       -2.70045932       0.45843466      -0.40618405
H       -0.31602159       1.70506731       1.00674258
H       -1.24916439       2.38382032      -0.34549864
17
Frame=14 idx=010918 GeodesicLength=1.2341153340957816 rxn_smarts="[O:1]([C:2]([C@@:3]1([H:11])[C:4]([H:12])([H:13])[C:5]([H:14])([H:15])[C:6]([H:16])([H:17])[O:7]1)([H:9])[H:10])[H:8]>>[C:3]1([H:11])=[C:4]([H:13])[C:5]([H:14])([H:15])[C:6]([H:16])([H:17])[O:7]1.[O:1]([C:2]([H:9])([H:10])[H:12])[H:8]"
O        2.70879227      -0.21511115      -0.51765680
C        1.81185068      -0.81917605       0.39237755
C        0.03657229      -0.42676009      -0.85211240
C       -1.02019963      -0.88230847       0.00324053
C       -1.85944515       0.35367664       0.28683428
C       -0.83928421       1.47067821       0.06977028
O        0.12137786       0.95980732      -0.86360159
H        2.31372643       0.62646725      -0.77018956
H        1.91409427      -0.26549968       1.33969282
H        2.21268923      -1.82651540       0.53615274
H        0.32045293      -0.89419705      -1.78736624
H        0.36758189      -1.21067962       0.91159405
H       -1.55244068      -1.78005586      -0.29455300
H       -2.26545575       0.35917185       1.29918583
H       -2.69629755       0.45262157      -0.40949502
H       -0.31848852       1.71146808       1.00370144
H       -1.25552636       2.38641245      -0.34757490
17
Frame=15 idx=010918 GeodesicLength=1.322055436745536 rxn_smarts="[O:1]([C:2]([C@@:3]1([H:11])[C:4]([H:12])([H:13])[C:5]([H:14])([H:15])[C:6]([H:16])([H:17])[O:7]1)([H:9])[H:10])[H:8]>>[C:3]1([H:11])=[C:4]([H:13])[C:5]([H:14])([H:15])[C:6]([H:16])([H:17])[O:7]1.[O:1]([C:2]([H:9])([H:10])[H:12])[H:8]"
O        2.70492268      -0.21797197      -0.51314907
C        1.80495865      -0.82544229       0.39414468
C        0.03378601      -0.41920053      -0.86847705
C       -1.00718080      -0.87891558       0.00365727
C       -1.85487899       0.35301299       0.28442867
C       -0.84033954       1.47512411       0.06602161
O        0.12253285       0.97019415      -0.86697682
H        2.30624902       0.62146109      -0.76757428
H        1.91829232      -0.27158733       1.34026269
H        2.21574813      -1.82908927       0.53708181
H        0.30238564      -0.88097844      -1.81058552
H        0.37225897      -1.22835626       0.95765177
H       -1.54238889      -1.77638519      -0.29128625
H       -2.26127865       0.35484462       1.29653234
H       -2.69184640       0.44610496      -0.41218529
H       -0.32074246       1.71825142       1.00021109
H       -1.26247856       2.38893353      -0.34975765
17
Frame=16 idx=010918 GeodesicLength=1.4098798355609203 rxn_smarts="[O:1]([C:2]([C@@:3]1([H:11])[C:4]([H:12])([H:13])[C:5]([H:14])([H:15])[C:6]([H:16])([H:17])[O:7]1)([H:9])[H:10])[H:8]>>[C:3]1([H:11])=[C:4]([H:13])[C:5]([H:14])([H:15])[C:6]([H:16])([H:17])[O:7]1.[O:1]([C:2]([H:9])([H:10])[H:12])[H:8]"
O        2.70036595      -0.22155039      -0.50829007
C        1.79684923      -0.83189291       0.39617202
C        0.03070218      -0.41078929      -0.88643950
C       -0.99281180      -0.87530075       0.00366330
C       -1.84959853       0.35199937       0.28218878
C       -0.84137857       1.47972880       0.06198781
O        0.12374298       0.98127008      -0.87087277
H        2.29862350       0.61596003      -0.76466293
H        1.92169334      -0.27780653       1.34090126
H        2.21734898      -1.83182697       0.53848569
H        0.28382295      -0.86669464      -1.83518308
H        0.37714017      -1.24583661       1.00566523
H       -1.53081703      -1.77277351      -0.28788223
H       -2.25579210       0.34984594       1.29427000
H       -2.68709819       0.43888347      -0.41420380
H       -0.32276876       1.72542202       0.99625515
H       -1.27002429       2.39136188      -0.35205485
