13
Frame=0 idx=003379 GeodesicLength=0.0 rxn_smarts="[C:1]([C@@:2]1([H:10])[N:3]([H:11])[C@:4]1([C:5]#[C:6][H:13])[H:12])([H:7])([H:8])[H:9]>>[C:1]([C@@:2]1([H:10])[N:3]([H:11])/[C:4]1=[C:5](\[C:6][H:13])[H:12])([H:7])([H:8])[H:9]"
C       -1.63523185      -0.97212857       0.30170084
C       -0.96814045       0.20198635      -0.35868497
N       -0.44757063       1.34821212       0.43862467
C        0.43554325       0.46545530      -0.08426737
C        1.77072061       0.19056878      -0.22832343
C        2.96990158      -0.12312955       0.16989719
H       -1.10800414      -1.26484182       1.21092550
H       -2.67114545      -0.73551553       0.55245167
H       -1.63789366      -1.82784160      -0.37482982
H       -1.40739999       0.53926992      -1.29251697
H       -0.54280553       1.38951928       1.44809897
H        1.45038630       0.63928995      -1.28961545
H        3.79163992       0.14915533      -0.49346082
13
Frame=1 idx=003379 GeodesicLength=0.05371942703149683 rxn_smarts="[C:1]([C@@:2]1([H:10])[N:3]([H:11])[C@:4]1([C:5]#[C:6][H:13])[H:12])([H:7])([H:8])[H:9]>>[C:1]([C@@:2]1([H:10])[N:3]([H:11])/[C:4]1=[C:5](\[C:6][H:13])[H:12])([H:7])([H:8])[H:9]"
C       -1.62671335      -0.97172852       0.30129899
C       -0.97843115       0.21169671      -0.36107780
N       -0.44499022       1.35083122       0.43532979
C        0.43088527       0.47775190      -0.11812779
C        1.76090725       0.16869651      -0.24316996
C        2.95412911      -0.09707162       0.20157757
H       -1.07963887      -1.27080209       1.19662165
H       -2.65824975      -0.74178446       0.57525116
H       -1.64025170      -1.82108243      -0.38312746
H       -1.43595002       0.55391611      -1.28425956
H       -0.51670274       1.37774224       1.44709248
H        1.43990220       0.62446380      -1.31603186
H        3.79510398       0.13737063      -0.45137721
13
Frame=2 idx=003379 GeodesicLength=0.10787464311079353 rxn_smarts="[C:1]([C@@:2]1([H:10])[N:3]([H:11])[C@:4]1([C:5]#[C:6][H:13])[H:12])([H:7])([H:8])[H:9]>>[C:1]([C@@:2]1([H:10])[N:3]([H:11])/[C:4]1=[C:5](\[C:6][H:13])[H:12])([H:7])([H:8])[H:9]"
C       -1.61679336      -0.97151492       0.30088746
C       -0.98789274       0.22135583      -0.36316486
N       -0.44274344       1.35409721       0.43184851
C        0.42618041       0.49154634      -0.15147605
C        1.75081780       0.15047045      -0.25673252
C        2.93487965      -0.07615301       0.22954814
H       -1.05023700      -1.27614465       1.18213299
H       -2.64368023      -0.74898250       0.59752221
H       -1.64064543      -1.81469734      -0.39092334
H       -1.46372322       0.56790502      -1.27541311
H       -0.49138675       1.36701711       1.44512183
H        1.42860625       0.61100995      -1.34235672
H        3.79661806       0.12409051      -0.40699452
13
Frame=3 idx=003379 GeodesicLength=0.16240886160323809 rxn_smarts="[C:1]([C@@:2]1([H:10])[N:3]([H:11])[C@:4]1([C:5]#[C:6][H:13])[H:12])([H:7])([H:8])[H:9]>>[C:1]([C@@:2]1([H:10])[N:3]([H:11])/[C:4]1=[C:5](\[C:6][H:13])[H:12])([H:7])([H:8])[H:9]"
C       -1.60572884      -0.97145690       0.30042543
C       -0.99652900       0.23083000      -0.36496445
N       -0.44081009       1.35781270       0.42823981
C        0.42141183       0.50648207      -0.18411150
C        1.74043840       0.13550759      -0.26909830
C        2.91313955      -0.05884939       0.25487371
H       -1.02021887      -1.28085560       1.16751094
H       -2.62769726      -0.75693871       0.61914025
H       -1.63935313      -1.80865355      -0.39828103
H       -1.49054183       0.58110368      -1.26605263
H       -0.46697420       1.35724597       1.44230330
H        1.41653040       0.59911607      -1.36839606
H        3.79633302       0.10865606      -0.36158946
13
Frame=4 idx=003379 GeodesicLength=0.21730844784415654 rxn_smarts="[C:1]([C@@:2]1([H:10])[N:3]([H:11])[C@:4]1([C:5]#[C:6][H:13])[H:12])([H:7])([H:8])[H:9]>>[C:1]([C@@:2]1([H:10])[N:3]([H:11])/[C:4]1=[C:5](\[C:6][H:13])[H:12])([H:7])([H:8])[H:9]"
C       -1.59280299      -0.97210697       0.29965599
C       -1.00441319       0.24013672      -0.36648367
N       -0.44061719       1.36259510       0.42479734
C        0.41624072       0.52380280      -0.21525111
C        1.72993435       0.12634301      -0.27941813
C        2.89030548      -0.03750352       0.27927231
H       -0.98893549      -1.28494570       1.15284916
H       -2.60996686      -0.76705954       0.63931994
H       -1.63460231      -1.80359667      -0.40551634
H       -1.51641801       0.59306259      -1.25646720
H       -0.44529799       1.34910344       1.43900313
H        1.40344090       0.59138269      -1.39319346
H        3.79313259       0.07878605      -0.31856796
13
Frame=5 idx=003379 GeodesicLength=0.2724403551620507 rxn_smarts="[C:1]([C@@:2]1([H:10])[N:3]([H:11])[C@:4]1([C:5]#[C:6][H:13])[H:12])([H:7])([H:8])[H:9]>>[C:1]([C@@:2]1([H:10])[N:3]([H:11])/[C:4]1=[C:5](\[C:6][H:13])[H:12])([H:7])([H:8])[H:9]"
C       -1.58017586      -0.97210566       0.29905751
C       -1.01147907       0.24897293      -0.36770509
N       -0.43862470       1.36653524       0.42095367
C        0.41150757       0.53944766      -0.24625864
C        1.71920029       0.11572895      -0.29052522
C        2.86575359      -0.02536538       0.30004240
H       -0.95844831      -1.28862757       1.13785414
H       -2.59176037      -0.77542641       0.65963869
H       -1.63125267      -1.79796008      -0.41204869
H       -1.54125695       0.60477760      -1.24597503
H       -0.42195993       1.34067540       1.43456506
H        1.38949186       0.58230548      -1.41870294
H        3.78900454       0.06104183      -0.27089586
13
Frame=6 idx=003379 GeodesicLength=0.32811844995373707 rxn_smarts="[C:1]([C@@:2]1([H:10])[N:3]([H:11])[C@:4]1([C:5]#[C:6][H:13])[H:12])([H:7])([H:8])[H:9]>>[C:1]([C@@:2]1([H:10])[N:3]([H:11])/[C:4]1=[C:5](\[C:6][H:13])[H:12])([H:7])([H:8])[H:9]"
C       -1.56723305      -0.97236500       0.29847151
C       -1.01785577       0.25742238      -0.36880797
N       -0.43641094       1.37072934       0.41700303
C        0.40691887       0.55530179      -0.27640312
C        1.70855022       0.10710836      -0.30117987
C        2.84052456      -0.01461560       0.31958308
H       -0.92821491      -1.29209202       1.12304134
H       -2.57296561      -0.78414296       0.67944257
H       -1.62754230      -1.79291503      -0.41823324
H       -1.56507454       0.61569644      -1.23541439
H       -0.39902380       1.33312291       1.42966309
H        1.37486366       0.57510465      -1.44416883
H        3.78346359       0.04164474      -0.22299720
13
Frame=7 idx=003379 GeodesicLength=0.3839955287416757 rxn_smarts="[C:1]([C@@:2]1([H:10])[N:3]([H:11])[C@:4]1([C:5]#[C:6][H:13])[H:12])([H:7])([H:8])[H:9]>>[C:1]([C@@:2]1([H:10])[N:3]([H:11])/[C:4]1=[C:5](\[C:6][H:13])[H:12])([H:7])([H:8])[H:9]"
C       -1.55199873      -0.97319330       0.29765655
C       -1.02368597       0.26556093      -0.36962482
N       -0.43646311       1.37581145       0.41295104
C        0.40159715       0.57330458      -0.30514425
C        1.69783014       0.10434260      -0.31073667
C        2.81515058       0.00297814       0.33777799
H       -0.89602702      -1.29458065       1.10802935
H       -2.55195463      -0.79495867       0.69805637
H       -1.61973917      -1.78866615      -0.42406032
H       -1.58827457       0.62493029      -1.22444566
H       -0.37921606       1.32724928       1.42395029
H        1.35868656       0.57289609      -1.46849271
H        3.77409483       0.00432540      -0.17591716
13
Frame=8 idx=003379 GeodesicLength=0.44010841805085427 rxn_smarts="[C:1]([C@@:2]1([H:10])[N:3]([H:11])[C@:4]1([C:5]#[C:6][H:13])[H:12])([H:7])([H:8])[H:9]>>[C:1]([C@@:2]1([H:10])[N:3]([H:11])/[C:4]1=[C:5](\[C:6][H:13])[H:12])([H:7])([H:8])[H:9]"
C       -1.53693733      -0.97402399       0.29691848
C       -1.02890283       0.27327423      -0.37032283
N       -0.43556502       1.38071637       0.40877125
C        0.39658548       0.59056369      -0.33333543
C        1.68733994       0.10187822      -0.32074613
C        2.78939755       0.01737065       0.35431557
H       -0.86444956      -1.29702652       1.09301692
H       -2.53063851      -0.80532004       0.71662352
H       -1.61272557      -1.78464444      -0.42957596
H       -1.61053417       0.63364806      -1.21325418
H       -0.35882268       1.32176398       1.41782997
H        1.34187334       0.57162467      -1.49331211
H        3.76337936      -0.02982487      -0.12692908
13
Frame=9 idx=003379 GeodesicLength=0.4967657346395509 rxn_smarts="[C:1]([C@@:2]1([H:10])[N:3]([H:11])[C@:4]1([C:5]#[C:6][H:13])[H:12])([H:7])([H:8])[H:9]>>[C:1]([C@@:2]1([H:10])[N:3]([H:11])/[C:4]1=[C:5](\[C:6][H:13])[H:12])([H:7])([H:8])[H:9]"
C       -1.52209506      -0.97443890       0.29623580
C       -1.03344651       0.28060453      -0.37081747
N       -0.43321475       1.38493880       0.40428282
C        0.39193082       0.60628699      -0.36125573
C        1.67691676       0.09823775      -0.33174533
C        2.76256483       0.02558362       0.36929920
H       -0.83339197      -1.29947600       1.07748132
H       -2.50876299      -0.81433131       0.73544105
H       -1.60708515      -1.78017161      -0.43467915
H       -1.63186242       0.64223822      -1.20135044
H       -0.33708735       1.31600048       1.41086389
H        1.32428755       0.57027668      -1.51867426
H        3.75124624      -0.05574924      -0.07508170
13
Frame=10 idx=003379 GeodesicLength=0.5537055728810053 rxn_smarts="[C:1]([C@@:2]1([H:10])[N:3]([H:11])[C@:4]1([C:5]#[C:6][H:13])[H:12])([H:7])([H:8])[H:9]>>[C:1]([C@@:2]1([H:10])[N:3]([H:11])/[C:4]1=[C:5](\[C:6][H:13])[H:12])([H:7])([H:8])[H:9]"
C       -1.50572050      -0.97538696       0.29557487
C       -1.03757282       0.28758318      -0.37121849
N       -0.43213428       1.38996440       0.39954298
C        0.38683577       0.62336484      -0.38832547
C        1.66677101       0.09876946      -0.34260096
C        2.73596385       0.03815225       0.38309610
H       -0.80100584      -1.30124467       1.06205219
H       -2.48523795      -0.82486459       0.75375823
H       -1.59891896      -1.77663248      -0.43931542
H       -1.65270784       0.64934861      -1.18939030
H       -0.31715967       1.31186344       1.40332430
H        1.30551468       0.57297462      -1.54393238
H        3.73537255      -0.09389211      -0.02256564
13
Frame=11 idx=003379 GeodesicLength=0.6112298269533514 rxn_smarts="[C:1]([C@@:2]1([H:10])[N:3]([H:11])[C@:4]1([C:5]#[C:6][H:13])[H:12])([H:7])([H:8])[H:9]>>[C:1]([C@@:2]1([H:10])[N:3]([H:11])/[C:4]1=[C:5](\[C:6][H:13])[H:12])([H:7])([H:8])[H:9]"
C       -1.48965751      -0.97605320       0.29494523
C       -1.04106972       0.29423170      -0.37144253
N       -0.42962552       1.39443430       0.39462396
C        0.38216302       0.63902589      -0.41509733
C        1.65692155       0.09820886      -0.35446102
C        2.70853274       0.04529205       0.39576458
H       -0.76921250      -1.30318522       1.04611011
H       -2.46128513      -0.83425798       0.77235919
H       -1.59225522      -1.77279785      -0.44366478
H       -1.67260811       0.65639184      -1.17685047
H       -0.29592818       1.30749905       1.39520548
H        1.28613091       0.57579449      -1.56980708
H        3.71789367      -0.12458392       0.03231467
13
Frame=12 idx=003379 GeodesicLength=0.6690804480980593 rxn_smarts="[C:1]([C@@:2]1([H:10])[N:3]([H:11])[C@:4]1([C:5]#[C:6][H:13])[H:12])([H:7])([H:8])[H:9]>>[C:1]([C@@:2]1([H:10])[N:3]([H:11])/[C:4]1=[C:5](\[C:6][H:13])[H:12])([H:7])([H:8])[H:9]"
C       -1.47129791      -0.97732264       0.29444484
C       -1.04424191       0.30052270      -0.37159611
N       -0.42898578       1.39997565       0.38932376
C        0.37673476       0.65666802      -0.44123921
C        1.64744512       0.10296967      -0.36653107
C        2.68184026       0.05894804       0.40665530
H       -0.73513919      -1.30396406       1.03045864
H       -2.43499090      -0.84571824       0.79046834
H       -1.58176347      -1.77009784      -0.44733857
H       -1.69236253       0.66150353      -1.16429050
H       -0.27687662       1.30517603       1.38642415
H        1.26512202       0.58349937      -1.59590339
H        3.69451615      -0.17216022       0.08912382
13
Frame=13 idx=003379 GeodesicLength=0.7274117468966297 rxn_smarts="[C:1]([C@@:2]1([H:10])[N:3]([H:11])[C@:4]1([C:5]#[C:6][H:13])[H:12])([H:7])([H:8])[H:9]>>[C:1]([C@@:2]1([H:10])[N:3]([H:11])/[C:4]1=[C:5](\[C:6][H:13])[H:12])([H:7])([H:8])[H:9]"
C       -1.45400827      -0.97805316       0.29386325
C       -1.04656667       0.30655175      -0.37147188
N       -0.42611679       1.40444336       0.38416007
C        0.37214397       0.67195194      -0.46670566
C        1.63831226       0.10476496      -0.37918540
C        2.65439608       0.06487116       0.41683118
H       -0.70296152      -1.30513565       1.01443979
H       -2.40912438      -0.85525445       0.80828256
H       -1.57364592      -1.76672008      -0.45084927
H       -1.71043521       0.66715266      -1.15117403
H       -0.25596185       1.30181472       1.37739740
H        1.24386358       0.58981857      -1.62215117
H        3.67010472      -0.20620577       0.14656316
13
Frame=14 idx=003379 GeodesicLength=0.7860414068026498 rxn_smarts="[C:1]([C@@:2]1([H:10])[N:3]([H:11])[C@:4]1([C:5]#[C:6][H:13])[H:12])([H:7])([H:8])[H:9]>>[C:1]([C@@:2]1([H:10])[N:3]([H:11])/[C:4]1=[C:5](\[C:6][H:13])[H:12])([H:7])([H:8])[H:9]"
C       -1.43662778      -0.97872274       0.29327623
C       -1.04836427       0.31228168      -0.37117193
N       -0.42273431       1.40877443       0.37898214
C        0.36779488       0.68659830      -0.49149485
C        1.62968722       0.10676980      -0.39211688
C        2.62695083       0.06882688       0.42624454
H       -0.67117149      -1.30608245       0.99838468
H       -2.38288385      -0.86443077       0.82568667
H       -1.56558342      -1.76349303      -0.45403318
H       -1.72754415       0.67232314      -1.13782507
H       -0.23490070       1.29875523       1.36808143
H        1.22197971       0.59700843      -1.64849892
H        3.64339732      -0.23860889       0.20448512
13
Frame=15 idx=003379 GeodesicLength=0.8451277463847673 rxn_smarts="[C:1]([C@@:2]1([H:10])[N:3]([H:11])[C@:4]1([C:5]#[C:6][H:13])[H:12])([H:7])([H:8])[H:9]>>[C:1]([C@@:2]1([H:10])[N:3]([H:11])/[C:4]1=[C:5](\[C:6][H:13])[H:12])([H:7])([H:8])[H:9]"
C       -1.41872457      -0.97949246       0.29271039
C       -1.04977579       0.31773471      -0.37077007
N       -0.41928787       1.41329415       0.37372705
C        0.36346329       0.70110947      -0.51578635
C        1.62166307       0.10978960      -0.40543515
C        2.59986899       0.07260117       0.43473219
H       -0.63901075      -1.30678644       0.98223570
H       -2.35581074      -0.87363904       0.84287637
H       -1.55709240      -1.76066585      -0.45690596
H       -1.74413057       0.67682576      -1.12432067
H       -0.21391865       1.29639306       1.35847127
H        1.19918803       0.60561993      -1.67516176
H        3.61356796      -0.27278406       0.26362700
13
Frame=16 idx=003379 GeodesicLength=0.90459781552947 rxn_smarts="[C:1]([C@@:2]1([H:10])[N:3]([H:11])[C@:4]1([C:5]#[C:6][H:13])[H:12])([H:7])([H:8])[H:9]>>[C:1]([C@@:2]1([H:10])[N:3]([H:11])/[C:4]1=[C:5](\[C:6][H:13])[H:12])([H:7])([H:8])[H:9]"
C       -1.39946762      -0.98033084       0.29234511
C       -1.05042342       0.32285150      -0.37016532
N       -0.41605566       1.41793881       0.36813453
C        0.35908898       0.71606558      -0.53963429
C        1.61402273       0.11508062      -0.41918516
C        2.57286592       0.07764679       0.44168080
H       -0.60600107      -1.30658815       0.96630573
H       -2.32716203      -0.88347651       0.85971154
H       -1.54648767      -1.75814568      -0.45898411
H       -1.75957094       0.68014624      -1.11050864
H       -0.19354590       1.29475346       1.34815757
H        1.17542320       0.61657226      -1.70200905
H        3.57731349      -0.31251407       0.32415128
