17
Frame=0 idx=011923 GeodesicLength=0.0 rxn_smarts="[C:1]([C@@:2]1([H:11])[C@@:3]2([H:12])[C:4]([H:13])([H:14])[C:5]([H:15])=[C:6]([H:16])[C@@:7]12[H:17])([H:8])([H:9])[H:10]>>[C:1](=[C:2]([C@@:3]1([H:12])[C:4]([H:13])([H:14])[C:5]([H:15])=[C:6]=[C:7]1[H:17])[H:11])([H:8])[H:10].[H:9][H:16]"
C       -1.67345609       0.53444892      -0.18849453
C       -1.08248913      -0.63875512      -0.55129215
C        0.38142513      -0.88237950      -0.80305359
C        1.32287436       0.33231217      -0.92071671
C        1.30851729       0.83397096       0.50586139
C        0.82544635      -0.07859619       1.38578614
C        0.50142703      -1.21637367       0.64240521
H       -2.74541596       0.56126534      -0.03890638
H       -1.15571496       0.88786200       1.55110358
H       -1.19559240       1.49087985      -0.35219315
H       -1.68673680      -1.53954243      -0.55198583
H        0.56225889      -1.69894650      -1.49830830
H        0.97567014       1.11562097      -1.59999910
H        2.30014126       0.00429373      -1.28753128
H        1.43083435       1.89021834       0.73025985
H       -0.42996207       0.62212661       1.94715592
H        0.36077259      -2.21840544       1.02990886
17
Frame=1 idx=011923 GeodesicLength=0.06744876711939873 rxn_smarts="[C:1]([C@@:2]1([H:11])[C@@:3]2([H:12])[C:4]([H:13])([H:14])[C:5]([H:15])=[C:6]([H:16])[C@@:7]12[H:17])([H:8])([H:9])[H:10]>>[C:1](=[C:2]([C@@:3]1([H:12])[C:4]([H:13])([H:14])[C:5]([H:15])=[C:6]=[C:7]1[H:17])[H:11])([H:8])[H:10].[H:9][H:16]"
C       -1.67529801       0.53517605      -0.18265030
C       -1.08188305      -0.64179399      -0.54216414
C        0.38034590      -0.88175092      -0.80315513
C        1.31874789       0.33551027      -0.92168224
C        1.31841760       0.83221847       0.50637919
C        0.83068694      -0.07726786       1.38586462
C        0.49958804      -1.21594004       0.64392049
H       -2.75190123       0.56679582      -0.07102070
H       -1.17164203       0.88477354       1.55466318
H       -1.19457943       1.48833872      -0.35990262
H       -1.68815785      -1.54116711      -0.54703361
H        0.56053077      -1.69907901      -1.49755146
H        0.96279706       1.11871662      -1.59663293
H        2.29425935       0.01017829      -1.29532504
H        1.45752889       1.88561630       0.73385461
H       -0.43021442       0.61870248       1.95994045
H        0.37077358      -2.21902765       1.03249562
17
Frame=2 idx=011923 GeodesicLength=0.13491308129833837 rxn_smarts="[C:1]([C@@:2]1([H:11])[C@@:3]2([H:12])[C:4]([H:13])([H:14])[C:5]([H:15])=[C:6]([H:16])[C@@:7]12[H:17])([H:8])([H:9])[H:10]>>[C:1](=[C:2]([C@@:3]1([H:12])[C:4]([H:13])([H:14])[C:5]([H:15])=[C:6]=[C:7]1[H:17])[H:11])([H:8])[H:10].[H:9][H:16]"
C       -1.67737637       0.53591429      -0.17681439
C       -1.08132474      -0.64476852      -0.53301011
C        0.37917890      -0.88105805      -0.80320895
C        1.31453678       0.33877252      -0.92264081
C        1.32838514       0.83046103       0.50678371
C        0.83590031      -0.07580693       1.38591089
C        0.49770461      -1.21541249       0.64552164
H       -2.75733383       0.57215982      -0.10347923
H       -1.18813003       0.88163630       1.55824617
H       -1.19371870       1.48560910      -0.36749744
H       -1.68960610      -1.54272993      -0.54210631
H        0.55873230      -1.69915751      -1.49672684
H        0.94986630       1.12189091      -1.59313256
H        2.28821421       0.01612960      -1.30319725
H        1.48459839       1.88071766       0.73715389
H       -0.43040060       0.61509676       1.97308112
H        0.38077344      -2.21945456       1.03511647
17
Frame=3 idx=011923 GeodesicLength=0.20225940760494976 rxn_smarts="[C:1]([C@@:2]1([H:11])[C@@:3]2([H:12])[C:4]([H:13])([H:14])[C:5]([H:15])=[C:6]([H:16])[C@@:7]12[H:17])([H:8])([H:9])[H:10]>>[C:1](=[C:2]([C@@:3]1([H:12])[C:4]([H:13])([H:14])[C:5]([H:15])=[C:6]=[C:7]1[H:17])[H:11])([H:8])[H:10].[H:9][H:16]"
C       -1.67963728       0.53665706      -0.17095090
C       -1.08077505      -0.64768730      -0.52379497
C        0.37790402      -0.88030776      -0.80319593
C        1.31016960       0.34208746      -0.92356691
C        1.33836430       0.82870856       0.50705308
C        0.84106198      -0.07417404       1.38586882
C        0.49577669      -1.21476597       0.64717114
H       -2.76157459       0.57741725      -0.13647991
H       -1.20522752       0.87836312       1.56186675
H       -1.19294736       1.48268007      -0.37484343
H       -1.69101093      -1.54423666      -0.53715729
H        0.55683354      -1.69919887      -1.49580427
H        0.93680736       1.12511700      -1.58942843
H        2.28188949       0.02213461      -1.31113226
H        1.51203788       1.87550073       0.74015143
H       -0.43046907       0.61135265       1.98653041
H        0.39079695      -2.21964790       1.03771269
17
Frame=4 idx=011923 GeodesicLength=0.26964837186962043 rxn_smarts="[C:1]([C@@:2]1([H:11])[C@@:3]2([H:12])[C:4]([H:13])([H:14])[C:5]([H:15])=[C:6]([H:16])[C@@:7]12[H:17])([H:8])([H:9])[H:10]>>[C:1](=[C:2]([C@@:3]1([H:12])[C:4]([H:13])([H:14])[C:5]([H:15])=[C:6]=[C:7]1[H:17])[H:11])([H:8])[H:10].[H:9][H:16]"
C       -1.68215212       0.53741890      -0.16516586
C       -1.08027597      -0.65054211      -0.51457365
C        0.37654611      -0.87949173      -0.80314068
C        1.30572278       0.34546979      -0.92449205
C        1.34841160       0.82695873       0.50719718
C        0.84617215      -0.07237588       1.38578849
C        0.49379648      -1.21400673       0.64890959
H       -2.76471540       0.58247477      -0.16969044
H       -1.22301009       0.87500397       1.56547161
H       -1.19231114       1.47958429      -0.38203845
H       -1.69244437      -1.54568387      -0.53224018
H        0.55487788      -1.69919314      -1.49481191
H        0.92370314       1.12842317      -1.58559861
H        2.27540514       0.02820836      -1.31914988
H        1.53992913       1.86994732       0.74283478
H       -0.43047315       0.60742594       2.00034656
H        0.40081784      -2.21962176       1.04035350
17
Frame=5 idx=011923 GeodesicLength=0.33703323152130216 rxn_smarts="[C:1]([C@@:2]1([H:11])[C@@:3]2([H:12])[C:4]([H:13])([H:14])[C:5]([H:15])=[C:6]([H:16])[C@@:7]12[H:17])([H:8])([H:9])[H:10]>>[C:1](=[C:2]([C@@:3]1([H:12])[C:4]([H:13])([H:14])[C:5]([H:15])=[C:6]=[C:7]1[H:17])[H:11])([H:8])[H:10].[H:9][H:16]"
C       -1.68489866       0.53820581      -0.15949207
C       -1.07980878      -0.65333048      -0.50535643
C        0.37510783      -0.87861157      -0.80304113
C        1.30118710       0.34891303      -0.92540626
C        1.35850903       0.82521308       0.50720686
C        0.85120788      -0.07039353       1.38564786
C        0.49175457      -1.21312218       0.65072386
H       -2.76671362       0.58731860      -0.20300057
H       -1.24152475       0.87154656       1.56901814
H       -1.19178318       1.47633581      -0.38905958
H       -1.69387798      -1.54706712      -0.52736709
H        0.55287244      -1.69914712      -1.49373813
H        0.91055503       1.13179788      -1.58162572
H        2.26873928       0.03433968      -1.32723149
H        1.56825409       1.86403761       0.74518593
H       -0.43040524       0.60332100       2.01451536
H        0.41082497      -2.21935706       1.04302046
17
Frame=6 idx=011923 GeodesicLength=0.4044126369189436 rxn_smarts="[C:1]([C@@:2]1([H:11])[C@@:3]2([H:12])[C:4]([H:13])([H:14])[C:5]([H:15])=[C:6]([H:16])[C@@:7]12[H:17])([H:8])([H:9])[H:10]>>[C:1](=[C:2]([C@@:3]1([H:12])[C:4]([H:13])([H:14])[C:5]([H:15])=[C:6]=[C:7]1[H:17])[H:11])([H:8])[H:10].[H:9][H:16]"
C       -1.68787086       0.53902482      -0.15396922
C       -1.07936793      -0.65604873      -0.49615905
C        0.37359615      -0.87766665      -0.80290007
C        1.29657203       0.35241570      -0.92631013
C        1.36865608       0.82347398       0.50707532
C        0.85615709      -0.06821278       1.38543980
C        0.48964575      -1.21210354       0.65261267
H       -2.76757513       0.59192648      -0.23628706
H       -1.26082989       0.86798013       1.57246941
H       -1.19134831       1.47295473      -0.39590116
H       -1.69530541      -1.54838267      -0.52255202
H        0.55082934      -1.69906395      -1.49257935
H        0.89738142       1.13523777      -1.57751540
H        2.26190053       0.04052344      -1.33536887
H        1.59701501       1.85775288       0.74718616
H       -0.43026064       0.59902954       2.02904254
H        0.42080475      -2.21884115       1.04571641
17
Frame=7 idx=011923 GeodesicLength=0.471789071658389 rxn_smarts="[C:1]([C@@:2]1([H:11])[C@@:3]2([H:12])[C:4]([H:13])([H:14])[C:5]([H:15])=[C:6]([H:16])[C@@:7]12[H:17])([H:8])([H:9])[H:10]>>[C:1](=[C:2]([C@@:3]1([H:12])[C:4]([H:13])([H:14])[C:5]([H:15])=[C:6]=[C:7]1[H:17])[H:11])([H:8])[H:10].[H:9][H:16]"
C       -1.69106161       0.53988340      -0.14863503
C       -1.07894831      -0.65869274      -0.48699667
C        0.37201925      -0.87665635      -0.80272064
C        1.29188922       0.35597619      -0.92720561
C        1.37885412       0.82174371       0.50679594
C        0.86101055      -0.06581975       1.38515854
C        0.48746678      -1.21094215       0.65457576
H       -2.76732359       0.59627999      -0.26943269
H       -1.28098791       0.86429208       1.57578899
H       -1.19099155       1.46946332      -0.40255957
H       -1.69672119      -1.54962645      -0.51780722
H        0.54876179      -1.69894682      -1.49133266
H        0.88420224       1.13873950      -1.57327600
H        2.25490079       0.04675406      -1.34355559
H        1.62621432       1.85107323       0.74881699
H       -0.43003074       0.59454063       2.04393929
H        0.43074583      -2.21806187       1.04844618
17
Frame=8 idx=011923 GeodesicLength=0.539165092299747 rxn_smarts="[C:1]([C@@:2]1([H:11])[C@@:3]2([H:12])[C:4]([H:13])([H:14])[C:5]([H:15])=[C:6]([H:16])[C@@:7]12[H:17])([H:8])([H:9])[H:10]>>[C:1](=[C:2]([C@@:3]1([H:12])[C:4]([H:13])([H:14])[C:5]([H:15])=[C:6]=[C:7]1[H:17])[H:11])([H:8])[H:10].[H:9][H:16]"
C       -1.69446160       0.54078922      -0.14352364
C       -1.07854455      -0.66125783      -0.47788294
C        0.37038569      -0.87557989      -0.80250564
C        1.28715104       0.35959291      -0.92809509
C        1.38910510       0.82002475       0.50636216
C        0.86576156      -0.06320077       1.38479863
C        0.48521599      -1.20962933       0.65661321
H       -2.76599596       0.60036280      -0.30232949
H       -1.30206287       0.86047090       1.57893963
H       -1.19069788       1.46588511      -0.40903338
H       -1.69811965      -1.55079386      -0.51314306
H        0.54668279      -1.69879865      -1.48999508
H        0.87103772       1.14229961      -1.56891687
H        2.24775281       0.05302583      -1.35178594
H        1.65585392       1.84397786       0.75006008
H       -0.42970222       0.58983850       2.05922209
H        0.44063810      -2.21700715       1.05121533
17
Frame=9 idx=011923 GeodesicLength=0.6065427158824016 rxn_smarts="[C:1]([C@@:2]1([H:11])[C@@:3]2([H:12])[C:4]([H:13])([H:14])[C:5]([H:15])=[C:6]([H:16])[C@@:7]12[H:17])([H:8])([H:9])[H:10]>>[C:1](=[C:2]([C@@:3]1([H:12])[C:4]([H:13])([H:14])[C:5]([H:15])=[C:6]=[C:7]1[H:17])[H:11])([H:8])[H:10].[H:9][H:16]"
C       -1.69805957       0.54174966      -0.13866253
C       -1.07815100      -0.66373910      -0.46882788
C        0.36870358      -0.87443663      -0.80225687
C        1.28236894       0.36326406      -0.92898180
C        1.39941186       0.81831978       0.50576643
C        0.87040693      -0.06034193       1.38435406
C        0.48289392      -1.20815618       0.65872548
H       -2.76363604       0.60416843      -0.33489643
H       -1.32412464       0.85649622       1.58188864
H       -1.19045016       1.46224406      -0.41531605
H       -1.69949466      -1.55188016      -0.50856487
H        0.54460367      -1.69862270      -1.48856258
H        0.85790589       1.14591414      -1.56444790
H        2.24046778       0.05933256      -1.36005640
H        1.68593100       1.83644605       0.75089629
H       -0.42925211       0.58490659       2.07491227
H        0.45047460      -2.21566483       1.05403014
17
Frame=10 idx=011923 GeodesicLength=0.6739239528235859 rxn_smarts="[C:1]([C@@:2]1([H:11])[C@@:3]2([H:12])[C:4]([H:13])([H:14])[C:5]([H:15])=[C:6]([H:16])[C@@:7]12[H:17])([H:8])([H:9])[H:10]>>[C:1](=[C:2]([C@@:3]1([H:12])[C:4]([H:13])([H:14])[C:5]([H:15])=[C:6]=[C:7]1[H:17])[H:11])([H:8])[H:10].[H:9][H:16]"
C       -1.70184379       0.54277199      -0.13407765
C       -1.07776231      -0.66613119      -0.45984125
C        0.36698151      -0.87322530      -0.80197592
C        1.27755520       0.36698869      -0.92986926
C        1.40977750       0.81663216       0.50500184
C        0.87494467      -0.05722889       1.38381995
C        0.48050151      -1.20651312       0.66091386
H       -2.76029818       0.60768667      -0.36705206
H       -1.34724550       0.85235299       1.58459829
H       -1.19023439       1.45856457      -0.42140731
H       -1.70084043      -1.55288037      -0.50407944
H        0.54253650      -1.69842149      -1.48703099
H        0.84482538       1.14958048      -1.55987958
H        2.23305824       0.06566905      -1.36836388
H        1.71645168       1.82845415       0.75130666
H       -0.42865495       0.57972169       2.09103800
H        0.46024737      -2.21402207       1.05689873
17
Frame=11 idx=011923 GeodesicLength=0.741310383081772 rxn_smarts="[C:1]([C@@:2]1([H:11])[C@@:3]2([H:12])[C:4]([H:13])([H:14])[C:5]([H:15])=[C:6]([H:16])[C@@:7]12[H:17])([H:8])([H:9])[H:10]>>[C:1](=[C:2]([C@@:3]1([H:12])[C:4]([H:13])([H:14])[C:5]([H:15])=[C:6]=[C:7]1[H:17])[H:11])([H:8])[H:10].[H:9][H:16]"
C       -1.70580188       0.54386289      -0.12978805
C       -1.07737326      -0.66842866      -0.45092860
C        0.36522711      -0.87194466      -0.80166309
C        1.27272029       0.37076595      -0.93076194
C        1.42020567       0.81496588       0.50406017
C        0.87937599      -0.05384645       1.38319073
C        0.47804165      -1.20468990       0.66318041
H       -2.75603695       0.61091816      -0.39874568
H       -1.37150622       0.84801543       1.58703503
H       -1.19003482       1.45487061      -0.42730012
H       -1.70215104      -1.55378955      -0.49968823
H        0.54049119      -1.69819781      -1.48539472
H        0.83181135       1.15329577      -1.55522270
H        2.22553411       0.07203001      -1.37670785
H        1.74741913       1.81997799       0.75127094
H       -0.42787414       0.57425990       2.10763339
H        0.46995180      -2.21206555       1.05983031
17
Frame=12 idx=011923 GeodesicLength=0.808703579874336 rxn_smarts="[C:1]([C@@:2]1([H:11])[C@@:3]2([H:12])[C:4]([H:13])([H:14])[C:5]([H:15])=[C:6]([H:16])[C@@:7]12[H:17])([H:8])([H:9])[H:10]>>[C:1](=[C:2]([C@@:3]1([H:12])[C:4]([H:13])([H:14])[C:5]([H:15])=[C:6]=[C:7]1[H:17])[H:11])([H:8])[H:10].[H:9][H:16]"
C       -1.70992141       0.54502900      -0.12580808
C       -1.07697901      -0.67062562      -0.44209225
C        0.36344719      -0.87059316      -0.80131775
C        1.26787377       0.37459526      -0.93166501
C        1.43070041       0.81332568       0.50293264
C        0.88370461      -0.05017887       1.38246088
C        0.47551855      -1.20267574       0.66552804
H       -2.75090597       0.61386882      -0.42994591
H       -1.39699445       0.84345454       1.58916469
H       -1.18983566       1.45118591      -0.43298520
H       -1.70342097      -1.55460247      -0.49538930
H        0.53847589      -1.69795418      -1.48364734
H        0.81887699       1.15705709      -1.55048891
H        2.21790412       0.07841035      -1.38508944
H        1.77883521       1.81099287       0.75076775
H       -0.42686441       0.56849206       2.12473995
H        0.47958514      -2.20978155       1.06283524
17
Frame=13 idx=011923 GeodesicLength=0.8761051700787552 rxn_smarts="[C:1]([C@@:2]1([H:11])[C@@:3]2([H:12])[C:4]([H:13])([H:14])[C:5]([H:15])=[C:6]([H:16])[C@@:7]12[H:17])([H:8])([H:9])[H:10]>>[C:1](=[C:2]([C@@:3]1([H:12])[C:4]([H:13])([H:14])[C:5]([H:15])=[C:6]=[C:7]1[H:17])[H:11])([H:8])[H:10].[H:9][H:16]"
C       -1.71419033       0.54627693      -0.12214839
C       -1.07657524      -0.67271585      -0.43333143
C        0.36164768      -0.86916912      -0.80093815
C        1.26302396       0.37847630      -0.93258437
C        1.44126608       0.81171709       0.50160962
C        0.88793618      -0.04620939       1.38162467
C        0.47293731      -1.20045894       0.66796069
H       -2.74495463       0.61655100      -0.46064006
H       -1.42380752       0.83863534       1.59095149
H       -1.18962049       1.44753403      -0.43844963
H       -1.70464522      -1.55531367      -0.49117719
H        0.53649698      -1.69769319      -1.48178116
H        0.80603307       1.16086153      -1.54569041
H        2.21017522       0.08480504      -1.39351171
H        1.81070065       1.80147339       0.74977435
H       -0.42557072       0.56238513       2.14240663
H        0.48914701      -2.20715562       1.06592507
17
Frame=14 idx=011923 GeodesicLength=0.9435170796956547 rxn_smarts="[C:1]([C@@:2]1([H:11])[C@@:3]2([H:12])[C:4]([H:13])([H:14])[C:5]([H:15])=[C:6]([H:16])[C@@:7]12[H:17])([H:8])([H:9])[H:10]>>[C:1](=[C:2]([C@@:3]1([H:12])[C:4]([H:13])([H:14])[C:5]([H:15])=[C:6]=[C:7]1[H:17])[H:11])([H:8])[H:10].[H:9][H:16]"
C       -1.71859719       0.54761356      -0.11881571
C       -1.07615814      -0.67469254      -0.42464201
C        0.35983334      -0.86767072      -0.80052148
C        1.25817792       0.38240876      -0.93352688
C        1.45190751       0.81014651       0.50008025
C        0.89207843      -0.04191997       1.38067600
C        0.47030391      -1.19802677       0.67048341
H       -2.73822465       0.61898371      -0.49083501
H       -1.45205456       0.83351565       1.59235765
H       -1.18937163       1.44393859      -0.44367497
H       -1.70581952      -1.55591708      -0.48704298
H        0.53455866      -1.69741761      -1.47978715
H        0.79328802       1.16470566      -1.54084056
H        2.20235261       0.09120860      -1.40197965
H        1.84301304       1.79139445       0.74826595
H       -0.42392654       0.55590154       2.16069036
H        0.49863882      -2.20417234       1.06911278
17
Frame=15 idx=011923 GeodesicLength=1.0109414551365616 rxn_smarts="[C:1]([C@@:2]1([H:11])[C@@:3]2([H:12])[C:4]([H:13])([H:14])[C:5]([H:15])=[C:6]([H:16])[C@@:7]12[H:17])([H:8])([H:9])[H:10]>>[C:1](=[C:2]([C@@:3]1([H:12])[C:4]([H:13])([H:14])[C:5]([H:15])=[C:6]=[C:7]1[H:17])[H:11])([H:8])[H:10].[H:9][H:16]"
C       -1.72313124       0.54904621      -0.11581468
C       -1.07572446      -0.67654817      -0.41601726
C        0.35800795      -0.86609598      -0.80006376
C        1.25334157       0.38639236      -0.93450025
C        1.46262978       0.80862131       0.49833250
C        0.89614021      -0.03729082       1.37960828
C        0.46762455      -1.19536506       0.67310250
H       -2.73074931       0.62119147      -0.52055060
H       -1.48185884       0.82804585       1.59334005
H       -1.18907027       1.44042362      -0.44863824
H       -1.70694023      -1.55640599      -0.48297525
H        0.53266344      -1.69713051      -1.47765458
H        0.78064830       1.16858570      -1.53595359
H        2.19443983       0.09761504      -1.41049983
H        1.87576862       1.78073058       0.74621564
H       -0.42185343       0.54899923       2.17965625
H        0.50806354      -2.20081483       1.07241281
17
Frame=16 idx=011923 GeodesicLength=1.0783809420178925 rxn_smarts="[C:1]([C@@:2]1([H:11])[C@@:3]2([H:12])[C:4]([H:13])([H:14])[C:5]([H:15])=[C:6]([H:16])[C@@:7]12[H:17])([H:8])([H:9])[H:10]>>[C:1](=[C:2]([C@@:3]1([H:12])[C:4]([H:13])([H:14])[C:5]([H:15])=[C:6]=[C:7]1[H:17])[H:11])([H:8])[H:10].[H:9][H:16]"
C       -1.72778251       0.55058298      -0.11314806
C       -1.07527148      -0.67827434      -0.40744775
C        0.35617420      -0.86444278      -0.79955981
C        1.24851973       0.39042669      -0.93551313
C        1.47343829       0.80714991       0.49635291
C        0.90013150      -0.03230008       1.37841435
C        0.46490559      -1.19245800       0.67582559
H       -2.72255180       0.62320408      -0.54981887
H       -1.51336020       0.82216814       1.59384842
H       -1.18869603       1.43701396      -0.45331076
H       -1.70800448      -1.55677268      -0.47896023
H        0.53081203      -1.69683539      -1.47537083
H        0.76811846       1.17249728      -1.53104498
H        2.18643877       0.10401752      -1.41908046
H        1.90896189       1.76945622       0.74359402
H       -0.41925915       0.54163092       2.19937826
H        0.51742519      -2.19706442       1.07584131
