7
Frame=0 idx=000132 GeodesicLength=0.0 rxn_smarts="[O:1]=[C:2]([C:3](=[O:4])[C:5]#[N:6])[H:7]>>[O:1]=[C:2]([O+:4]=[C:3]=[C:5]=[N-:6])[H:7]"
O       -1.98495724      -1.12837396      -0.49702991
C       -1.54720162      -0.11529414      -0.10997657
C        0.66613585      -0.26008086       0.47832474
O       -0.18729535       0.25237029      -0.35522918
C        1.99819200       0.15770849       0.10679194
N        3.11626017       0.39534657      -0.03591302
H       -2.06113379       0.69832364       0.41303199
7
Frame=1 idx=000132 GeodesicLength=0.0752229807063521 rxn_smarts="[O:1]=[C:2]([C:3](=[O:4])[C:5]#[N:6])[H:7]>>[O:1]=[C:2]([O+:4]=[C:3]=[C:5]=[N-:6])[H:7]"
O       -1.93981148      -1.14760992      -0.50015185
C       -1.53706750      -0.12547104      -0.09671965
C        0.64307591      -0.19886571       0.48600597
O       -0.18687745       0.32913397      -0.35664595
C        1.99517790       0.11942318       0.08738012
N        3.11633221       0.35365073      -0.03463673
H       -2.09082959       0.66973880       0.41476808
7
Frame=2 idx=000132 GeodesicLength=0.15096845973232906 rxn_smarts="[O:1]=[C:2]([C:3](=[O:4])[C:5]#[N:6])[H:7]>>[O:1]=[C:2]([O+:4]=[C:3]=[C:5]=[N-:6])[H:7]"
O       -1.88816699      -1.16637876      -0.50521246
C       -1.52417854      -0.13524240      -0.08589374
C        0.62102670      -0.13496509       0.49603551
O       -0.18785846       0.40783005      -0.35280492
C        1.98582673       0.09163207       0.07632077
N        3.11236674       0.29969591      -0.04319966
H       -2.11901618       0.63742823       0.41475450
7
Frame=3 idx=000132 GeodesicLength=0.22740496997332038 rxn_smarts="[O:1]=[C:2]([C:3](=[O:4])[C:5]#[N:6])[H:7]>>[O:1]=[C:2]([O+:4]=[C:3]=[C:5]=[N-:6])[H:7]"
O       -1.83567160      -1.18339970      -0.50836732
C       -1.50937464      -0.14364127      -0.07739509
C        0.60024118      -0.07582516       0.50363070
O       -0.18933284       0.48350469      -0.34769281
C        1.97231934       0.06923392       0.06975494
N        3.10379122       0.24487522      -0.05387057
H       -2.14197266       0.60525230       0.41394014
7
Frame=4 idx=000132 GeodesicLength=0.30429005174866786 rxn_smarts="[O:1]=[C:2]([C:3](=[O:4])[C:5]#[N:6])[H:7]>>[O:1]=[C:2]([O+:4]=[C:3]=[C:5]=[N-:6])[H:7]"
O       -1.78540737      -1.19832940      -0.50944794
C       -1.49333285      -0.15103146      -0.07001047
C        0.58088477      -0.02329626       0.50811156
O       -0.19075748       0.55410815      -0.34268892
C        1.95614846       0.04932025       0.06429876
N        3.09148775       0.19413136      -0.06292950
H       -2.15902328       0.57509736       0.41266649
7
Frame=5 idx=000132 GeodesicLength=0.381308820255744 rxn_smarts="[O:1]=[C:2]([C:3](=[O:4])[C:5]#[N:6])[H:7]>>[O:1]=[C:2]([O+:4]=[C:3]=[C:5]=[N-:6])[H:7]"
O       -1.73861218      -1.21136372      -0.50823967
C       -1.47689904      -0.15741380      -0.06362022
C        0.56278862       0.02112825       0.50903156
O       -0.19185375       0.61943462      -0.33765641
C        1.93875561       0.03251228       0.05953499
N        3.07708354       0.14814542      -0.06990021
H       -2.17126279       0.54755696       0.41084996
7
Frame=6 idx=000132 GeodesicLength=0.45866384802541027 rxn_smarts="[O:1]=[C:2]([C:3](=[O:4])[C:5]#[N:6])[H:7]>>[O:1]=[C:2]([O+:4]=[C:3]=[C:5]=[N-:6])[H:7]"
O       -1.69387995      -1.22324599      -0.50576939
C       -1.46014309      -0.16318149      -0.05802934
C        0.54556585       0.06042669       0.50842029
O       -0.19264925       0.68108772      -0.33172745
C        1.92041494       0.01794115       0.05532379
N        3.06091927       0.10507882      -0.07631206
H       -2.18022778       0.52189310       0.40809417
7
Frame=7 idx=000132 GeodesicLength=0.5362986950715922 rxn_smarts="[O:1]=[C:2]([C:3](=[O:4])[C:5]#[N:6])[H:7]>>[O:1]=[C:2]([O+:4]=[C:3]=[C:5]=[N-:6])[H:7]"
O       -1.65041870      -1.23437364      -0.50227592
C       -1.44316633      -0.16842608      -0.05339516
C        0.52892316       0.09591874       0.50720932
O       -0.19313000       0.73991985      -0.32446723
C        1.90134440       0.00525080       0.05181679
N        3.04316370       0.06399778      -0.08306650
H       -2.18671623       0.49771255       0.40417872
7
Frame=8 idx=000132 GeodesicLength=0.6142373467738075 rxn_smarts="[O:1]=[C:2]([C:3](=[O:4])[C:5]#[N:6])[H:7]>>[O:1]=[C:2]([O+:4]=[C:3]=[C:5]=[N-:6])[H:7]"
O       -1.60833694      -1.24489923      -0.49770423
C       -1.42616042      -0.17329363      -0.04936231
C        0.51288843       0.12779591       0.50521238
O       -0.19332252       0.79628191      -0.31571774
C        1.88190104      -0.00562782       0.04809066
N        3.02436416       0.02474531      -0.08950357
H       -2.19133376       0.47499755       0.39898479
7
Frame=9 idx=000132 GeodesicLength=0.6923981775973785 rxn_smarts="[O:1]=[C:2]([C:3](=[O:4])[C:5]#[N:6])[H:7]>>[O:1]=[C:2]([O+:4]=[C:3]=[C:5]=[N-:6])[H:7]"
O       -1.56766420      -1.25502956      -0.49201454
C       -1.40926523      -0.17783459      -0.04600999
C        0.49735198       0.15633862       0.50263995
O       -0.19311644       0.85041732      -0.30534935
C        1.86232776      -0.01509184       0.04412537
N        3.00476182      -0.01257112      -0.09580955
H       -2.19439570       0.45377117       0.39241810
7
Frame=10 idx=000132 GeodesicLength=0.7708751839594957 rxn_smarts="[O:1]=[C:2]([C:3](=[O:4])[C:5]#[N:6])[H:7]>>[O:1]=[C:2]([O+:4]=[C:3]=[C:5]=[N-:6])[H:7]"
O       -1.52756883      -1.26503892      -0.48530938
C       -1.39237560      -0.18216348      -0.04339715
C        0.48212368       0.18270857       0.50014884
O       -0.19258677       0.90297639      -0.29305171
C        1.84259350      -0.02298756       0.04039340
N        2.98414919      -0.04912356      -0.10292558
H       -2.19633517       0.43362855       0.38414159
7
Frame=11 idx=000132 GeodesicLength=0.8495516358544394 rxn_smarts="[O:1]=[C:2]([C:3](=[O:4])[C:5]#[N:6])[H:7]>>[O:1]=[C:2]([O+:4]=[C:3]=[C:5]=[N-:6])[H:7]"
O       -1.48857677      -1.27498579      -0.47742576
C       -1.37567254      -0.18631882      -0.04147892
C        0.46720591       0.20655726       0.49751398
O       -0.19155745       0.95382409      -0.27882872
C        1.82298650      -0.02971093       0.03669327
N        2.96286221      -0.08419369      -0.11058400
H       -2.19724785       0.41482789       0.37411015
7
Frame=12 idx=000132 GeodesicLength=0.9285197709010355 rxn_smarts="[O:1]=[C:2]([C:3](=[O:4])[C:5]#[N:6])[H:7]>>[O:1]=[C:2]([O+:4]=[C:3]=[C:5]=[N-:6])[H:7]"
O       -1.45016782      -1.28502938      -0.46827802
C       -1.35906955      -0.19040814      -0.04013968
C        0.45257144       0.22856540       0.49488866
O       -0.19019451       1.00344821      -0.26235977
C        1.80347481      -0.03495017       0.03262842
N        2.94084286      -0.11870274      -0.11878619
H       -2.19745723       0.39707682       0.36204658
7
Frame=13 idx=000132 GeodesicLength=1.0076233029515351 rxn_smarts="[O:1]=[C:2]([C:3](=[O:4])[C:5]#[N:6])[H:7]>>[O:1]=[C:2]([O+:4]=[C:3]=[C:5]=[N-:6])[H:7]"
O       -1.41284965      -1.29528455      -0.45767204
C       -1.34271436      -0.19442914      -0.03959819
C        0.43811854       0.24844455       0.49226586
O       -0.18822069       1.05163370      -0.24366046
C        1.78431831      -0.03916235       0.02880311
N        2.91825918      -0.15185354      -0.12797324
H       -2.19691134       0.38065134       0.34783496
7
Frame=14 idx=000132 GeodesicLength=1.0868404129529876 rxn_smarts="[O:1]=[C:2]([C:3](=[O:4])[C:5]#[N:6])[H:7]>>[O:1]=[C:2]([O+:4]=[C:3]=[C:5]=[N-:6])[H:7]"
O       -1.37676047      -1.30582250      -0.44544081
C       -1.32663619      -0.19850388      -0.03959286
C        0.42394889       0.26625850       0.48936847
O       -0.18573199       1.09852414      -0.22243543
C        1.76557845      -0.04220362       0.02420092
N        2.89539286      -0.18380168      -0.13740231
H       -2.19579154       0.36554904       0.33130203
7
Frame=15 idx=000132 GeodesicLength=1.1660545210626625 rxn_smarts="[O:1]=[C:2]([C:3](=[O:4])[C:5]#[N:6])[H:7]>>[O:1]=[C:2]([O+:4]=[C:3]=[C:5]=[N-:6])[H:7]"
O       -1.34209048      -1.31683975      -0.43121638
C       -1.31089594      -0.20255262      -0.04063602
C        0.40986751       0.28201216       0.48651206
O       -0.18237886       1.14399295      -0.19859102
C        1.74731032      -0.04487369       0.02005891
N        2.87218886      -0.21371981      -0.14823386
H       -2.19400142       0.35198077       0.31210632
7
Frame=16 idx=000132 GeodesicLength=1.2452800712931504 rxn_smarts="[O:1]=[C:2]([C:3](=[O:4])[C:5]#[N:6])[H:7]>>[O:1]=[C:2]([O+:4]=[C:3]=[C:5]=[N-:6])[H:7]"
O       -1.30874796      -1.32840321      -0.41477305
C       -1.29540509      -0.20679610      -0.04228043
C        0.39600075       0.29596680       0.48352886
O       -0.17842157       1.18825880      -0.17154186
C        1.72957095      -0.04638443       0.01526350
N        2.84875738      -0.24247175      -0.15988393
H       -2.19175448       0.33982989       0.28968692
