13
Frame=0 idx=008354 GeodesicLength=0.0 rxn_smarts="[C:1](#[C:2][C:3]1=[C:4]([H:9])[C:5]([H:10])([H:11])[O:6][C:7]1([H:12])[H:13])[H:8]>>[C:1](#[C:2][C:3]1=[C:7]([H:12])[O:6][C:5]([H:10])([H:11])[C:4]1([H:9])[H:13])[H:8]"
C        2.91391863      -0.50617390       0.49860259
C        1.73329973      -0.42232912       0.32790629
C        0.31095418      -0.30750515       0.14357603
C       -0.55372336       0.72344820       0.72941849
C       -1.61287375       0.92757187      -0.28931412
O       -1.64741936      -0.38239580      -0.95513286
C       -0.40925340      -0.86918529      -0.95412620
H        3.96586140      -0.58000258       0.64403622
H       -0.21759526       1.43749839       1.46016404
H       -2.62021763       1.13101848       0.07194237
H       -1.35883288       1.67288530      -1.07733420
H       -0.23761361      -1.81462503      -1.44677007
H       -0.26650468      -1.01020532       0.84703140
13
Frame=1 idx=008354 GeodesicLength=0.10500052242195845 rxn_smarts="[C:1](#[C:2][C:3]1=[C:4]([H:9])[C:5]([H:10])([H:11])[O:6][C:7]1([H:12])[H:13])[H:8]>>[C:1](#[C:2][C:3]1=[C:7]([H:12])[O:6][C:5]([H:10])([H:11])[C:4]1([H:9])[H:13])[H:8]"
C        2.91838048      -0.50711258       0.49810591
C        1.73892647      -0.41625915       0.32154549
C        0.31909224      -0.29631192       0.13560076
C       -0.55281154       0.71902863       0.72956481
C       -1.61470728       0.92475632      -0.28929642
O       -1.64721478      -0.37814541      -0.96361711
C       -0.41269267      -0.87984395      -0.94052088
H        3.96844286      -0.58984826       0.65204517
H       -0.21118378       1.44599058       1.44564539
H       -2.62067041       1.12107820       0.08042305
H       -1.36809508       1.67956338      -1.06868823
H       -0.22682216      -1.81210145      -1.45208878
H       -0.29064434      -1.01079438       0.85128085
13
Frame=2 idx=008354 GeodesicLength=0.20999866510333026 rxn_smarts="[C:1](#[C:2][C:3]1=[C:4]([H:9])[C:5]([H:10])([H:11])[O:6][C:7]1([H:12])[H:13])[H:8]>>[C:1](#[C:2][C:3]1=[C:7]([H:12])[O:6][C:5]([H:10])([H:11])[C:4]1([H:9])[H:13])[H:8]"
C        2.92273787      -0.50635643       0.49961444
C        1.74469890      -0.40819608       0.31617561
C        0.32738828      -0.28395999       0.12784701
C       -0.55232165       0.71519872       0.72969006
C       -1.61686275       0.92157629      -0.28965528
O       -1.64585984      -0.37422104      -0.97250076
C       -0.41555600      -0.89088398      -0.92529257
H        3.97110022      -0.60549729       0.65538800
H       -0.20669730       1.45478646       1.43157373
H       -2.62168435       1.10985455       0.08802294
H       -1.37804627       1.68589304      -1.06024370
H       -0.21347039      -1.80772746      -1.45765939
H       -0.31542670      -1.01046679       0.85703990
13
Frame=3 idx=008354 GeodesicLength=0.31498938454772724 rxn_smarts="[C:1](#[C:2][C:3]1=[C:4]([H:9])[C:5]([H:10])([H:11])[O:6][C:7]1([H:12])[H:13])[H:8]>>[C:1](#[C:2][C:3]1=[C:7]([H:12])[O:6][C:5]([H:10])([H:11])[C:4]1([H:9])[H:13])[H:8]"
C        2.92711224      -0.50860387       0.49792651
C        1.75062133      -0.40154135       0.30821208
C        0.33576177      -0.27214613       0.11845960
C       -0.55035532       0.71128350       0.72912611
C       -1.61856983       0.91851038      -0.28965152
O       -1.64489763      -0.37014615      -0.98094056
C       -0.42002523      -0.90327785      -0.90905891
H        3.97291580      -0.61561883       0.66507758
H       -0.20040004       1.46291525       1.41673940
H       -2.62176928       1.09896756       0.09679134
H       -1.38808849       1.69203513      -1.05161836
H       -0.20139171      -1.80225340      -1.46460100
H       -0.34091360      -1.01012426       0.86353772
13
Frame=4 idx=008354 GeodesicLength=0.4199839968797578 rxn_smarts="[C:1](#[C:2][C:3]1=[C:4]([H:9])[C:5]([H:10])([H:11])[O:6][C:7]1([H:12])[H:13])[H:8]>>[C:1](#[C:2][C:3]1=[C:7]([H:12])[O:6][C:5]([H:10])([H:11])[C:4]1([H:9])[H:13])[H:8]"
C        2.93143359      -0.51202893       0.49498001
C        1.75669186      -0.39501861       0.29900130
C        0.34427046      -0.26017286       0.10793155
C       -0.54758860       0.70752927       0.72807372
C       -1.62015191       0.91529031      -0.28955575
O       -1.64360408      -0.36619347      -0.98925635
C       -0.42522541      -0.91669768      -0.89145214
H        3.97415515      -0.62475752       0.67703423
H       -0.19361135       1.47083104       1.40146415
H       -2.62151164       1.08760133       0.10598596
H       -1.39857321       1.69786623      -1.04293991
H       -0.18911590      -1.79492263      -1.47247127
H       -0.36716896      -1.00932648       0.87120451
13
Frame=5 idx=008354 GeodesicLength=0.5249948008233456 rxn_smarts="[C:1](#[C:2][C:3]1=[C:4]([H:9])[C:5]([H:10])([H:11])[O:6][C:7]1([H:12])[H:13])[H:8]>>[C:1](#[C:2][C:3]1=[C:7]([H:12])[O:6][C:5]([H:10])([H:11])[C:4]1([H:9])[H:13])[H:8]"
C        2.93549600      -0.51331570       0.49504013
C        1.76285602      -0.38627381       0.29147212
C        0.35298739      -0.24673279       0.09747082
C       -0.54539466       0.70437860       0.72700368
C       -1.62211694       0.91151946      -0.28998718
O       -1.64052122      -0.36270802      -0.99822669
C       -0.42939504      -0.93038399      -0.87196927
H        3.97549404      -0.64108010       0.68243327
H       -0.18903147       1.47926590       1.38662478
H       -2.62198021       1.07438849       0.11394642
H       -1.40994700       1.70326857      -1.03450212
H       -0.17398550      -1.78488766      -1.47990392
H       -0.39446142      -1.00743896       0.88059795
13
Frame=6 idx=008354 GeodesicLength=0.6300336669927237 rxn_smarts="[C:1](#[C:2][C:3]1=[C:4]([H:9])[C:5]([H:10])([H:11])[O:6][C:7]1([H:12])[H:13])[H:8]>>[C:1](#[C:2][C:3]1=[C:7]([H:12])[O:6][C:5]([H:10])([H:11])[C:4]1([H:9])[H:13])[H:8]"
C        2.93943757      -0.51726130       0.49289692
C        1.76917547      -0.37876088       0.28188441
C        0.36193659      -0.23344961       0.08488857
C       -0.54185662       0.70096493       0.72524736
C       -1.62367028       0.90777708      -0.29014304
O       -1.63702594      -0.35888382      -1.00738373
C       -0.43439736      -0.94473624      -0.85190949
H        3.97615195      -0.65273775       0.69256628
H       -0.18300009       1.48684278       1.37126030
H       -2.62167420       1.06080377       0.12280944
H       -1.42159970       1.70881189      -1.02552904
H       -0.16061110      -1.77387357      -1.48695258
H       -0.42286631      -1.00549728       0.89036460
13
Frame=7 idx=008354 GeodesicLength=0.7351002671376082 rxn_smarts="[C:1](#[C:2][C:3]1=[C:4]([H:9])[C:5]([H:10])([H:11])[O:6][C:7]1([H:12])[H:13])[H:8]>>[C:1](#[C:2][C:3]1=[C:7]([H:12])[O:6][C:5]([H:10])([H:11])[C:4]1([H:9])[H:13])[H:8]"
C        2.94330670      -0.52062661       0.49142801
C        1.77579709      -0.37022469       0.27211922
C        0.37136507      -0.21892225       0.07074615
C       -0.53799349       0.69760294       0.72311629
C       -1.62529302       0.90379416      -0.29041098
O       -1.63185620      -0.35473426      -1.01757071
C       -0.43852156      -0.95851284      -0.83153152
H        3.97648751      -0.66690363       0.70145021
H       -0.17767732       1.49401443       1.35619461
H       -2.62149524       1.04548097       0.13148346
H       -1.43423049       1.71467781      -1.01591091
H       -0.14750471      -1.76258991      -1.49139670
H       -0.45238434      -1.00305611       0.90028287
13
Frame=8 idx=008354 GeodesicLength=0.8401946890477305 rxn_smarts="[C:1](#[C:2][C:3]1=[C:4]([H:9])[C:5]([H:10])([H:11])[O:6][C:7]1([H:12])[H:13])[H:8]>>[C:1](#[C:2][C:3]1=[C:7]([H:12])[O:6][C:5]([H:10])([H:11])[C:4]1([H:9])[H:13])[H:8]"
C        2.94717775      -0.52805122       0.48584420
C        1.78274486      -0.36405578       0.25869361
C        0.38130706      -0.20464957       0.05295876
C       -0.53202250       0.69336666       0.72004217
C       -1.62618813       0.90024028      -0.28998353
O       -1.62634082      -0.34925658      -1.02847960
C       -0.44345119      -0.97179086      -0.81227011
H        3.97574353      -0.67187070       0.71949591
H       -0.16969472       1.49926179       1.34077682
H       -2.61997436       1.02991897       0.14195678
H       -1.44707583       1.72161973      -1.00464510
H       -0.13901012      -1.75360051      -1.49331965
H       -0.48321554      -1.00113222       0.90892973
13
Frame=9 idx=008354 GeodesicLength=0.9452876798154088 rxn_smarts="[C:1](#[C:2][C:3]1=[C:4]([H:9])[C:5]([H:10])([H:11])[O:6][C:7]1([H:12])[H:13])[H:8]>>[C:1](#[C:2][C:3]1=[C:7]([H:12])[O:6][C:5]([H:10])([H:11])[C:4]1([H:9])[H:13])[H:8]"
C        2.95101534      -0.52839418       0.48662823
C        1.79017491      -0.35240080       0.24899269
C        0.39210310      -0.18631539       0.03508861
C       -0.52768585       0.69002891       0.71723461
C       -1.62808509       0.89588382      -0.29046955
O       -1.61697847      -0.34376147      -1.04149710
C       -0.44450131      -0.98247394      -0.79248928
H        3.97527690      -0.69380151       0.72416930
H       -0.16657074       1.50543115       1.32710199
H       -2.62024063       1.01028961       0.15001364
H       -1.46227102       1.72872988      -0.99293687
H       -0.12685042      -1.74546330      -1.48963729
H       -0.51538672      -0.99775278       0.91780103
13
Frame=10 idx=008354 GeodesicLength=1.0504041984017154 rxn_smarts="[C:1](#[C:2][C:3]1=[C:4]([H:9])[C:5]([H:10])([H:11])[O:6][C:7]1([H:12])[H:13])[H:8]>>[C:1](#[C:2][C:3]1=[C:7]([H:12])[O:6][C:5]([H:10])([H:11])[C:4]1([H:9])[H:13])[H:8]"
C        2.95452535      -0.53332696       0.48391914
C        1.79772579      -0.34360640       0.23603713
C        0.40339920      -0.16813214       0.01344492
C       -0.52117675       0.68555051       0.71359156
C       -1.62904893       0.89212774      -0.29025342
O       -1.60721046      -0.33667831      -1.05521528
C       -0.44625635      -0.99222750      -0.77395572
H        3.97402414      -0.70502953       0.73693076
H       -0.16075056       1.50933289       1.31348846
H       -2.61890819       0.99075198       0.15965217
H       -1.47726557       1.73699539      -0.97935275
H       -0.11925015      -1.74069738      -1.48344381
H       -0.54980753      -0.99506028       0.92515684
13
Frame=11 idx=008354 GeodesicLength=1.1555361488196292 rxn_smarts="[C:1](#[C:2][C:3]1=[C:4]([H:9])[C:5]([H:10])([H:11])[O:6][C:7]1([H:12])[H:13])[H:8]>>[C:1](#[C:2][C:3]1=[C:7]([H:12])[O:6][C:5]([H:10])([H:11])[C:4]1([H:9])[H:13])[H:8]"
C        2.95788428      -0.53687746       0.48182966
C        1.80554549      -0.33355529       0.22289314
C        0.41537764      -0.14792444      -0.01041184
C       -0.51413574       0.68081921       0.70961900
C       -1.62994522       0.88822539      -0.29003574
O       -1.59562888      -0.32905149      -1.06972279
C       -0.44655290      -1.00025414      -0.75554614
H        3.97210856      -0.71906536       0.74825952
H       -0.15563768       1.51251517       1.30067583
H       -2.61739417       0.96954682       0.16904442
H       -1.49322954       1.74551545      -0.96470126
H       -0.11193816      -1.73792446      -1.47384410
H       -0.58645369      -0.99196940       0.93194030
13
Frame=12 idx=008354 GeodesicLength=1.2606749370154562 rxn_smarts="[C:1](#[C:2][C:3]1=[C:4]([H:9])[C:5]([H:10])([H:11])[O:6][C:7]1([H:12])[H:13])[H:8]>>[C:1](#[C:2][C:3]1=[C:7]([H:12])[O:6][C:5]([H:10])([H:11])[C:4]1([H:9])[H:13])[H:8]"
C        2.96106168      -0.53939898       0.47954492
C        1.81357148      -0.32254857       0.20902226
C        0.42795954      -0.12593062      -0.03667535
C       -0.50630149       0.67555547       0.70532482
C       -1.63055694       0.88420301      -0.28973064
O       -1.58260483      -0.32109047      -1.08449660
C       -0.44562290      -1.00672184      -0.73707505
H        3.96922738      -0.73448343       0.75942064
H       -0.15077799       1.51466146       1.28866618
H       -2.61535211       0.94723360       0.17831824
H       -1.50971886       1.75400452      -0.94909362
H       -0.10506927      -1.73687920      -1.46139299
H       -0.62581570      -0.98860496       0.93816721
13
Frame=13 idx=008354 GeodesicLength=1.3658182295362071 rxn_smarts="[C:1](#[C:2][C:3]1=[C:4]([H:9])[C:5]([H:10])([H:11])[O:6][C:7]1([H:12])[H:13])[H:8]>>[C:1](#[C:2][C:3]1=[C:7]([H:12])[O:6][C:5]([H:10])([H:11])[C:4]1([H:9])[H:13])[H:8]"
C        2.96379973      -0.54334123       0.47531809
C        1.82160221      -0.31231347       0.19308792
C        0.44091163      -0.10328510      -0.06581493
C       -0.49700613       0.66897529       0.70068922
C       -1.63026556       0.88039273      -0.28910344
O       -1.56895916      -0.31271413      -1.09897875
C       -0.44437517      -1.01212315      -0.71861494
H        3.96531736      -0.74489988       0.77382357
H       -0.14475542       1.51466875       1.27750425
H       -2.61196328       0.92524909       0.18790855
H       -1.52541188       1.76251045      -0.93243993
H       -0.10004580      -1.73766190      -1.44697728
H       -0.66884852      -0.98545744       0.94359767
13
Frame=14 idx=008354 GeodesicLength=1.4709638203358044 rxn_smarts="[C:1](#[C:2][C:3]1=[C:4]([H:9])[C:5]([H:10])([H:11])[O:6][C:7]1([H:12])[H:13])[H:8]>>[C:1](#[C:2][C:3]1=[C:7]([H:12])[O:6][C:5]([H:10])([H:11])[C:4]1([H:9])[H:13])[H:8]"
C        2.96655190      -0.54254442       0.47206416
C        1.82992710      -0.29853352       0.17727066
C        0.45428754      -0.07811919      -0.09622743
C       -0.48771803       0.66177519       0.69628720
C       -1.62974574       0.87608909      -0.28883716
O       -1.55354083      -0.30514513      -1.11298157
C       -0.44081585      -1.01588781      -0.69894625
H        3.96004086      -0.76314399       0.78358461
H       -0.14061210       1.51380018       1.26794726
H       -2.60842774       0.90234721       0.19610978
H       -1.54111702       1.77002421      -0.91581579
H       -0.09309623      -1.73898395      -1.42936318
H       -0.71573385      -0.98167787       0.94890771
13
Frame=15 idx=008354 GeodesicLength=1.576114419462788 rxn_smarts="[C:1](#[C:2][C:3]1=[C:4]([H:9])[C:5]([H:10])([H:11])[O:6][C:7]1([H:12])[H:13])[H:8]>>[C:1](#[C:2][C:3]1=[C:7]([H:12])[O:6][C:5]([H:10])([H:11])[C:4]1([H:9])[H:13])[H:8]"
C        2.96889501      -0.54243237       0.46613467
C        1.83826971      -0.28496182       0.15869174
C        0.46761755      -0.05293339      -0.12879595
C       -0.47712659       0.65239828       0.69207073
C       -1.62782627       0.87207630      -0.28838409
O       -1.53785036      -0.29781953      -1.12593607
C       -0.43693024      -1.01898850      -0.67859522
H        3.95347949      -0.77559221       0.79614756
H       -0.13536353       1.50974995       1.26007538
H       -2.60329383       0.88117822       0.20399773
H       -1.55435007       1.77719171      -0.89870286
H       -0.08754700      -1.74161426      -1.40995711
H       -0.76797386      -0.97825238       0.95325349
13
Frame=16 idx=008354 GeodesicLength=1.6812837588489933 rxn_smarts="[C:1](#[C:2][C:3]1=[C:4]([H:9])[C:5]([H:10])([H:11])[O:6][C:7]1([H:12])[H:13])[H:8]>>[C:1](#[C:2][C:3]1=[C:7]([H:12])[O:6][C:5]([H:10])([H:11])[C:4]1([H:9])[H:13])[H:8]"
C        2.97116749      -0.54043026       0.45801710
C        1.84682785      -0.26983268       0.13774120
C        0.48070527      -0.02743449      -0.16251106
C       -0.46585499       0.64076332       0.68847950
C       -1.62458505       0.86815483      -0.28802266
O       -1.52156836      -0.29138209      -1.13759859
C       -0.43206799      -1.02144443      -0.65687486
H        3.94532729      -0.78653774       0.80884007
H       -0.13005114       1.50257053       1.25443036
H       -2.59699630       0.86180502       0.21077160
H       -1.56479923       1.78366281      -0.88166283
H       -0.08197410      -1.74508674      -1.38819749
H       -0.82613075      -0.97480806       0.95658767
