12
Frame=0 idx=002881 GeodesicLength=0.0 rxn_smarts="[C:1]([C:2](=[O:3])[C:4](=[O:5])[C:6]([H:10])([H:11])[H:12])([H:7])([H:8])[H:9]>>[C:1]([C:2](=[O:3])[C:4]([O:5][H:11])=[C:6]([H:10])[H:12])([H:7])([H:8])[H:9]"
C       -1.90210660       0.05187198       0.01006795
C       -0.56649867       0.70943398      -0.17284411
O       -0.40124829       1.89094278      -0.32858638
C        0.63969795      -0.19829659      -0.17653246
O        0.57347001      -1.34690824      -0.73486715
C        1.93826331       0.03975864       0.30214782
H       -2.67415390       0.81480375       0.07899998
H       -2.10174765      -0.61719940      -0.82863751
H       -1.89747394      -0.56321242       0.91282757
H        2.21973886      -0.66482504       1.08395923
H        1.83214943      -1.15441757      -0.56292602
H        2.33990954       1.03804814       0.41639104
12
Frame=1 idx=002881 GeodesicLength=0.044118791358166536 rxn_smarts="[C:1]([C:2](=[O:3])[C:4](=[O:5])[C:6]([H:10])([H:11])[H:12])([H:7])([H:8])[H:9]>>[C:1]([C:2](=[O:3])[C:4]([O:5][H:11])=[C:6]([H:10])[H:12])([H:7])([H:8])[H:9]"
C       -1.90931640       0.05480238       0.00095748
C       -0.56613155       0.70502767      -0.15042693
O       -0.39156999       1.88445892      -0.31145484
C        0.63116789      -0.21479607      -0.13222060
O        0.56036513      -1.35944722      -0.69938666
C        1.94519595       0.04196182       0.29267333
H       -2.67709859       0.82258310       0.06310910
H       -2.09907430      -0.60580275      -0.84671737
H       -1.92548379      -0.56916298       0.89741137
H        2.26881955      -0.65578272       1.06404341
H        1.83523924      -1.15222506      -0.57933082
H        2.32788685       1.04838291       0.40134253
12
Frame=2 idx=002881 GeodesicLength=0.08791737637865585 rxn_smarts="[C:1]([C:2](=[O:3])[C:4](=[O:5])[C:6]([H:10])([H:11])[H:12])([H:7])([H:8])[H:9]>>[C:1]([C:2](=[O:3])[C:4]([O:5][H:11])=[C:6]([H:10])[H:12])([H:7])([H:8])[H:9]"
C       -1.91508594       0.05751791      -0.00763001
C       -0.56542501       0.70070191      -0.12941392
O       -0.38210994       1.87799559      -0.29622076
C        0.62352164      -0.23018244      -0.08893911
O        0.54761475      -1.37112982      -0.66442514
C        1.95038578       0.04389563       0.28390679
H       -2.67886322       0.82977583       0.04762259
H       -2.09499767      -0.59570591      -0.86314675
H       -1.95076616      -0.57414217       0.88279273
H        2.31411188      -0.64713045       1.04316947
H        1.83654750      -1.14907230      -0.59659270
H        2.31506640       1.05747624       0.38887683
12
Frame=3 idx=002881 GeodesicLength=0.13149407954043313 rxn_smarts="[C:1]([C:2](=[O:3])[C:4](=[O:5])[C:6]([H:10])([H:11])[H:12])([H:7])([H:8])[H:9]>>[C:1]([C:2](=[O:3])[C:4]([O:5][H:11])=[C:6]([H:10])[H:12])([H:7])([H:8])[H:9]"
C       -1.91953964       0.05998267      -0.01576480
C       -0.56441246       0.69654631      -0.10968774
O       -0.37291213       1.87172482      -0.28221037
C        0.61676810      -0.24432774      -0.04721903
O        0.53521100      -1.38207685      -0.62993340
C        1.95408357       0.04557025       0.27567651
H       -2.67960443       0.83632175       0.03265334
H       -2.08967704      -0.58668710      -0.87823769
H       -1.97346454      -0.57847988       0.86880940
H        2.35550357      -0.63859657       1.02182320
H        1.83617061      -1.14539358      -0.61420893
H        2.30187338       1.06541591       0.37829952
12
Frame=4 idx=002881 GeodesicLength=0.17518697671473507 rxn_smarts="[C:1]([C:2](=[O:3])[C:4](=[O:5])[C:6]([H:10])([H:11])[H:12])([H:7])([H:8])[H:9]>>[C:1]([C:2](=[O:3])[C:4]([O:5][H:11])=[C:6]([H:10])[H:12])([H:7])([H:8])[H:9]"
C       -1.92293958       0.06221800      -0.02361447
C       -0.56320127       0.69260569      -0.09077239
O       -0.36406382       1.86574549      -0.26875043
C        0.61082776      -0.25730235      -0.00685376
O        0.52308505      -1.39255861      -0.59547702
C        1.95665099       0.04702411       0.26778707
H       -2.67961102       0.84230254       0.01801220
H       -2.08323793      -0.57848703      -0.89250034
H       -1.99409515      -0.58244218       0.85518170
H        2.39369830      -0.63000506       1.00011569
H        1.83419466      -1.14149368      -0.63200832
H        2.28869201       1.07239308       0.36888007
12
Frame=5 idx=002881 GeodesicLength=0.2187866991799115 rxn_smarts="[C:1]([C:2](=[O:3])[C:4](=[O:5])[C:6]([H:10])([H:11])[H:12])([H:7])([H:8])[H:9]>>[C:1]([C:2](=[O:3])[C:4]([O:5][H:11])=[C:6]([H:10])[H:12])([H:7])([H:8])[H:9]"
C       -1.92526976       0.06417216      -0.03129619
C       -0.56171068       0.68885288      -0.07225060
O       -0.35534135       1.86000120      -0.25545284
C        0.60553249      -0.26907002       0.03253430
O        0.51103348      -1.40251448      -0.56047622
C        1.95810542       0.04832829       0.26005373
H       -2.67875068       0.84759951       0.00335290
H       -2.07540430      -0.57089854      -0.90606797
H       -2.01308402      -0.58628853       0.84162067
H        2.42908091      -0.62138857       0.97768489
H        1.83031829      -1.13735479      -0.64987401
H        2.27549021       1.07856090       0.36017135
12
Frame=6 idx=002881 GeodesicLength=0.26228515183082707 rxn_smarts="[C:1]([C:2](=[O:3])[C:4](=[O:5])[C:6]([H:10])([H:11])[H:12])([H:7])([H:8])[H:9]>>[C:1]([C:2](=[O:3])[C:4]([O:5][H:11])=[C:6]([H:10])[H:12])([H:7])([H:8])[H:9]"
C       -1.92662142       0.06589820      -0.03866299
C       -0.56008637       0.68536319      -0.05461717
O       -0.34697095       1.85457471      -0.24243726
C        0.60091251      -0.27965911       0.07011882
O        0.49937063      -1.41178017      -0.52614887
C        1.95858009       0.04936669       0.25256391
H       -2.67718678       0.85228511      -0.01066173
H       -2.06665828      -0.56390733      -0.91888539
H       -2.02999198      -0.58995043       0.82841394
H        2.46099703      -0.61259059       0.95561419
H        1.82524560      -1.13341495      -0.66733029
H        2.26240992       1.08381467       0.35203284
12
Frame=7 idx=002881 GeodesicLength=0.30593363731999895 rxn_smarts="[C:1]([C:2](=[O:3])[C:4](=[O:5])[C:6]([H:10])([H:11])[H:12])([H:7])([H:8])[H:9]>>[C:1]([C:2](=[O:3])[C:4]([O:5][H:11])=[C:6]([H:10])[H:12])([H:7])([H:8])[H:9]"
C       -1.92722436       0.06740449      -0.04587699
C       -0.55837314       0.68216692      -0.03739681
O       -0.33892200       1.84960144      -0.22931909
C        0.59686856      -0.28917425       0.10650543
O        0.48794106      -1.42057192      -0.49189048
C        1.95832654       0.05020535       0.24521083
H       -2.67515373       0.85645109      -0.02445929
H       -2.05700175      -0.55739962      -0.93122259
H       -2.04542582      -0.59363046       0.81527635
H        2.49044804      -0.60370878       0.93351387
H        1.81891283      -1.12978405      -0.68447661
H        2.24960379       1.08843978       0.34413539
12
Frame=8 idx=002881 GeodesicLength=0.3497226423852876 rxn_smarts="[C:1]([C:2](=[O:3])[C:4](=[O:5])[C:6]([H:10])([H:11])[H:12])([H:7])([H:8])[H:9]>>[C:1]([C:2](=[O:3])[C:4]([O:5][H:11])=[C:6]([H:10])[H:12])([H:7])([H:8])[H:9]"
C       -1.92714553       0.06871122      -0.05306502
C       -0.55660930       0.67920276      -0.02017796
O       -0.33118261       1.84498159      -0.21566466
C        0.59334118      -0.29772917       0.14215245
O        0.47667741      -1.42897549      -0.45720616
C        1.95742295       0.05086618       0.23785495
H       -2.67268798       0.86012452      -0.03831281
H       -2.04625957      -0.55120119      -0.94335775
H       -2.05977300      -0.59739289       0.80198437
H        2.51788008      -0.59467094       0.91114303
H        1.81122250      -1.12640921      -0.70135729
H        2.23711386       1.09249264       0.33600684
12
Frame=9 idx=002881 GeodesicLength=0.3937209582021484 rxn_smarts="[C:1]([C:2](=[O:3])[C:4](=[O:5])[C:6]([H:10])([H:11])[H:12])([H:7])([H:8])[H:9]>>[C:1]([C:2](=[O:3])[C:4]([O:5][H:11])=[C:6]([H:10])[H:12])([H:7])([H:8])[H:9]"
C       -1.92639394       0.06981721      -0.06033530
C       -0.55482030       0.67646083      -0.00265192
O       -0.32375593       1.84073419      -0.20106850
C        0.59026053      -0.30536391       0.17740858
O        0.46548687      -1.43704362      -0.42168675
C        1.95589627       0.05136527       0.23038625
H       -2.66976735       0.86331165      -0.05247490
H       -2.03422268      -0.54519367      -0.95545893
H       -2.07328137      -0.60134781       0.78831832
H        2.54364080      -0.58543748       0.88825326
H        1.80202325      -1.12335809      -0.71796983
H        2.22493384       1.09605543       0.32727973
12
Frame=10 idx=002881 GeodesicLength=0.4378164766629493 rxn_smarts="[C:1]([C:2](=[O:3])[C:4](=[O:5])[C:6]([H:10])([H:11])[H:12])([H:7])([H:8])[H:9]>>[C:1]([C:2](=[O:3])[C:4]([O:5][H:11])=[C:6]([H:10])[H:12])([H:7])([H:8])[H:9]"
C       -1.92498988       0.07074797      -0.06759748
C       -0.55302849       0.67394175       0.01500502
O       -0.31663504       1.83681754      -0.18588454
C        0.58761768      -0.31214733       0.21209761
O        0.45448003      -1.44465601      -0.38583664
C        1.95374816       0.05166772       0.22289500
H       -2.66640578       0.86605422      -0.06675917
H       -2.02106891      -0.53942400      -0.96737472
H       -2.08581108      -0.60541286       0.77445452
H        2.56757669      -0.57612690       0.86512101
H        1.79156692      -1.12059529      -0.73427373
H        2.21294969       1.09913319       0.31815311
12
Frame=11 idx=002881 GeodesicLength=0.48209728069675345 rxn_smarts="[C:1]([C:2](=[O:3])[C:4](=[O:5])[C:6]([H:10])([H:11])[H:12])([H:7])([H:8])[H:9]>>[C:1]([C:2](=[O:3])[C:4]([O:5][H:11])=[C:6]([H:10])[H:12])([H:7])([H:8])[H:9]"
C       -1.92295244       0.07150489      -0.07492475
C       -0.55126190       0.67165007       0.03299269
O       -0.30983900       1.83326393      -0.16982027
C        0.58537887      -0.31808330       0.24645032
O        0.44360632      -1.45184084      -0.34938126
C        1.95100634       0.05177696       0.21531672
H       -2.66261029       0.86835853      -0.08134034
H       -2.00666005      -0.53381732      -0.97921266
H       -2.09753316      -0.60965891       0.76023938
H        2.58993898      -0.56671589       0.84155227
H        1.77977615      -1.11821609      -0.75027278
H        2.20115018       1.10177797       0.30840067
12
Frame=12 idx=002881 GeodesicLength=0.5265252915116383 rxn_smarts="[C:1]([C:2](=[O:3])[C:4](=[O:5])[C:6]([H:10])([H:11])[H:12])([H:7])([H:8])[H:9]>>[C:1]([C:2](=[O:3])[C:4]([O:5][H:11])=[C:6]([H:10])[H:12])([H:7])([H:8])[H:9]"
C       -1.92030569       0.07210545      -0.08224910
C       -0.54953649       0.66958801       0.05118657
O       -0.30334983       1.83004832      -0.15318736
C        0.58352187      -0.32324121       0.28036581
O        0.43292141      -1.45853625      -0.31267505
C        1.94767986       0.05167632       0.20773499
H       -2.65838731       0.87027011      -0.09609944
H       -1.99114393      -0.52842168      -0.99084217
H       -2.10836328      -0.61403049       0.74579962
H        2.61067768      -0.55731088       0.81772106
H        1.76683904      -1.11616188      -0.76598458
H        2.18944667       1.10401417       0.29822963
12
Frame=13 idx=002881 GeodesicLength=0.5710733176899683 rxn_smarts="[C:1]([C:2](=[O:3])[C:4](=[O:5])[C:6]([H:10])([H:11])[H:12])([H:7])([H:8])[H:9]>>[C:1]([C:2](=[O:3])[C:4]([O:5][H:11])=[C:6]([H:10])[H:12])([H:7])([H:8])[H:9]"
C       -1.91706635       0.07256224      -0.08949869
C       -0.54785511       0.66774816       0.06944539
O       -0.29713015       1.82712074      -0.13630703
C        0.58200291      -0.32768082       0.31373483
O        0.42245534      -1.46466590      -0.27606040
C        1.94376905       0.05135130       0.20024126
H       -2.65372218       0.87181691      -0.11090621
H       -1.97466759      -0.52326639      -1.00212947
H       -2.11822312      -0.61848198       0.73126645
H        2.62972977      -0.54799344       0.79381297
H        1.75295273      -1.11435409      -0.78143933
H        2.17775470       1.10584327       0.28784024
12
Frame=14 idx=002881 GeodesicLength=0.6157437456190121 rxn_smarts="[C:1]([C:2](=[O:3])[C:4](=[O:5])[C:6]([H:10])([H:11])[H:12])([H:7])([H:8])[H:9]>>[C:1]([C:2](=[O:3])[C:4]([O:5][H:11])=[C:6]([H:10])[H:12])([H:7])([H:8])[H:9]"
C       -1.91327538       0.07288904      -0.09662998
C       -0.54622789       0.66612890       0.08767565
O       -0.29115967       1.82445507      -0.11939342
C        0.58078768      -0.33145291       0.34650303
O        0.41222531      -1.47020146      -0.23975935
C        1.93930157       0.05079405       0.19290651
H       -2.64863837       0.87303255      -0.12568188
H       -1.95736703      -0.51836983      -1.01299764
H       -2.12709472      -0.62298189       0.71672927
H        2.64713209      -0.53882605       0.76994960
H        1.73828844      -1.11274909      -0.79667823
H        2.16602798       1.10728165       0.27737644
12
Frame=15 idx=002881 GeodesicLength=0.6605069976707995 rxn_smarts="[C:1]([C:2](=[O:3])[C:4](=[O:5])[C:6]([H:10])([H:11])[H:12])([H:7])([H:8])[H:9]>>[C:1]([C:2](=[O:3])[C:4]([O:5][H:11])=[C:6]([H:10])[H:12])([H:7])([H:8])[H:9]"
C       -1.90897754       0.07309956      -0.10358245
C       -0.54465279       0.66471967       0.10573820
O       -0.28539515       1.82200589      -0.10273510
C        0.57983762      -0.33462757       0.37857508
O        0.40224838      -1.47511843      -0.20405483
C        1.93430714       0.04999931       0.18581615
H       -2.64315650       0.87395330      -0.14030670
H       -1.93942649      -0.51375935      -1.02334805
H       -2.13494518      -0.62748720       0.70231497
H        2.66288258      -0.52986886       0.74631330
H        1.72305146      -1.11125595      -0.81175407
H        2.15422647       1.10833962       0.26702351
12
Frame=16 idx=002881 GeodesicLength=0.7053344317956375 rxn_smarts="[C:1]([C:2](=[O:3])[C:4](=[O:5])[C:6]([H:10])([H:11])[H:12])([H:7])([H:8])[H:9]>>[C:1]([C:2](=[O:3])[C:4]([O:5][H:11])=[C:6]([H:10])[H:12])([H:7])([H:8])[H:9]"
C       -1.90423444       0.07320776      -0.11028706
C       -0.54312217       0.66350865       0.12346110
O       -0.27978541       1.81972114      -0.08666834
C        0.57910823      -0.33728028       0.40983681
O        0.39253980      -1.47940003      -0.16925915
C        1.92883123       0.04896315       0.17907049
H       -2.63731560       0.87461776      -0.15463705
H       -1.92107842      -0.50946952      -1.03307769
H       -2.14174608      -0.63194678       0.68817599
H        2.67699246      -0.52118108       0.72312068
H        1.70748037      -1.10976614      -0.82673649
H        2.14233002       1.10902538       0.25700072
