11
Frame=0 idx=005135 GeodesicLength=0.0 rxn_smarts="[C:1]1([H:7])([H:8])[C@@:2]2([H:9])[O:3][C:4]([H:10])=[N:5][C@@:6]12[H:11]>>[C:1]1([H:7])([H:8])[C-:2]=[O+:3][C:4]([H:10])=[N:5][C:6]1([H:9])[H:11]"
C       -1.14145946       0.37859830      -0.10740502
C       -0.39963064      -0.34781353      -1.20775088
O        0.91277399       0.13737372      -1.29132148
C        1.50596713       0.41227489      -0.10378545
N        0.99129907       0.00115353       0.97252049
C       -0.29424445      -0.55116441       0.70946737
H       -0.92699629       1.43164339       0.05235490
H       -2.20282597       0.15666353      -0.12365156
H       -0.15800372      -1.38891231      -0.20997692
H        2.45340704       0.93081266      -0.17909788
H       -0.74028669      -1.16062981       1.48864645
11
Frame=1 idx=005135 GeodesicLength=0.04786451042158018 rxn_smarts="[C:1]1([H:7])([H:8])[C@@:2]2([H:9])[O:3][C:4]([H:10])=[N:5][C@@:6]12[H:11]>>[C:1]1([H:7])([H:8])[C-:2]=[O+:3][C:4]([H:10])=[N:5][C:6]1([H:9])[H:11]"
C       -1.14300851       0.37790697      -0.10617520
C       -0.39555339      -0.34188107      -1.20498671
O        0.91380720       0.14394708      -1.29257690
C        1.50903190       0.41317230      -0.10274491
N        0.99439773       0.00018544       0.97241359
C       -0.29278827      -0.55236895       0.70822957
H       -0.93341949       1.43238395       0.05154530
H       -2.20349350       0.15190824      -0.12494814
H       -0.16684741      -1.40401308      -0.21754668
H        2.45784707       0.92904781      -0.17869143
H       -0.73997334      -1.15028869       1.49548151
11
Frame=2 idx=005135 GeodesicLength=0.09573553119146644 rxn_smarts="[C:1]1([H:7])([H:8])[C@@:2]2([H:9])[O:3][C:4]([H:10])=[N:5][C@@:6]12[H:11]>>[C:1]1([H:7])([H:8])[C-:2]=[O+:3][C:4]([H:10])=[N:5][C:6]1([H:9])[H:11]"
C       -1.14464421       0.37713807      -0.10494140
C       -0.39140837      -0.33599921      -1.20209205
O        0.91477515       0.15083208      -1.29373278
C        1.51201144       0.41444089      -0.10162864
N        0.99744133      -0.00043881       0.97238597
C       -0.29128555      -0.55349465       0.70705862
H       -0.94016383       1.43307197       0.05067802
H       -2.20418536       0.14689323      -0.12628991
H       -0.17593246      -1.41902090      -0.22530342
H        2.46280350       0.92650237      -0.17834674
H       -0.73941162      -1.13992503       1.50221234
11
Frame=3 idx=005135 GeodesicLength=0.14361160931469424 rxn_smarts="[C:1]1([H:7])([H:8])[C@@:2]2([H:9])[O:3][C:4]([H:10])=[N:5][C@@:6]12[H:11]>>[C:1]1([H:7])([H:8])[C-:2]=[O+:3][C:4]([H:10])=[N:5][C:6]1([H:9])[H:11]"
C       -1.14628214       0.37632892      -0.10369949
C       -0.38720007      -0.33021337      -1.19906745
O        0.91572261       0.15784787      -1.29480358
C        1.51499388       0.41584130      -0.10045936
N        1.00048734      -0.00089398       0.97242462
C       -0.28973997      -0.55458598       0.70595804
H       -0.94703396       1.43372230       0.04974621
H       -2.20484024       0.14176820      -0.12766155
H       -0.18537264      -1.43399805      -0.23325180
H        2.46793296       0.92372051      -0.17803412
H       -0.73866776      -1.12953772       1.50884848
11
Frame=4 idx=005135 GeodesicLength=0.19148719620039106 rxn_smarts="[C:1]1([H:7])([H:8])[C@@:2]2([H:9])[O:3][C:4]([H:10])=[N:5][C@@:6]12[H:11]>>[C:1]1([H:7])([H:8])[C-:2]=[O+:3][C:4]([H:10])=[N:5][C:6]1([H:9])[H:11]"
C       -1.14786251       0.37550445      -0.10244606
C       -0.38293038      -0.32455853      -1.19591334
O        0.91668104       0.16486504      -1.29580017
C        1.51803964       0.41720369      -0.09925503
N        1.00357511      -0.00130244       0.97251928
C       -0.28815380      -0.55567386       0.70493088
H       -0.95389293       1.43434438       0.04874374
H       -2.20541454       0.13663656      -0.12905076
H       -0.19525527      -1.44898268      -0.24139922
H        2.47299810       0.92108862      -0.17772738
H       -0.73778445      -1.11912522       1.51539806
11
Frame=5 idx=005135 GeodesicLength=0.23937238986049192 rxn_smarts="[C:1]1([H:7])([H:8])[C@@:2]2([H:9])[O:3][C:4]([H:10])=[N:5][C@@:6]12[H:11]>>[C:1]1([H:7])([H:8])[C-:2]=[O+:3][C:4]([H:10])=[N:5][C:6]1([H:9])[H:11]"
C       -1.14951542       0.37459696      -0.10118728
C       -0.37858457      -0.31895608      -1.19262743
O        0.91757797       0.17218614      -1.29668786
C        1.52101171       0.41893030      -0.09796843
N        1.00661663      -0.00136341       0.97270212
C       -0.28651038      -0.55668148       0.70397910
H       -0.96106245       1.43490102       0.04767520
H       -2.20599468       0.13124693      -0.13048313
H       -0.20540913      -1.46387300      -0.24975955
H        2.47853972       0.91770198      -0.17749648
H       -0.73666940      -1.10868935       1.52185373
11
Frame=6 idx=005135 GeodesicLength=0.2872675177880546 rxn_smarts="[C:1]1([H:7])([H:8])[C@@:2]2([H:9])[O:3][C:4]([H:10])=[N:5][C@@:6]12[H:11]>>[C:1]1([H:7])([H:8])[C-:2]=[O+:3][C:4]([H:10])=[N:5][C:6]1([H:9])[H:11]"
C       -1.15122038       0.37361308      -0.09992268
C       -0.37416391      -0.31341633      -1.18920978
O        0.91842415       0.17977152      -1.29746716
C        1.52393332       0.42097164      -0.09660129
N        1.00962727      -0.00111079       0.97297536
C       -0.28480826      -0.55761815       0.70310763
H       -0.96849819       1.43539303       0.04653320
H       -2.20656494       0.12563133      -0.13195467
H       -0.21586339      -1.47867904      -0.25834389
H        2.48447413       0.91367744      -0.17733986
H       -0.73533981      -1.09823373       1.52822313
11
Frame=7 idx=005135 GeodesicLength=0.3351704049206701 rxn_smarts="[C:1]1([H:7])([H:8])[C@@:2]2([H:9])[O:3][C:4]([H:10])=[N:5][C@@:6]12[H:11]>>[C:1]1([H:7])([H:8])[C-:2]=[O+:3][C:4]([H:10])=[N:5][C:6]1([H:9])[H:11]"
C       -1.15295227       0.37256058      -0.09865061
C       -0.36966635      -0.30795170      -1.18565953
O        0.91923150       0.18757292      -1.29813871
C        1.52682781       0.42326828      -0.09515762
N        1.01262189      -0.00058443       0.97333813
C       -0.28304522      -0.55849366       0.70231968
H       -0.97614893       1.43582027       0.04531267
H       -2.20710443       0.11982753      -0.13345915
H       -0.22665291      -1.49341333      -0.26716171
H        2.49070310       0.90915238      -0.17725276
H       -0.73381420      -1.08775885       1.53450963
11
Frame=8 idx=005135 GeodesicLength=0.3830803957641107 rxn_smarts="[C:1]1([H:7])([H:8])[C@@:2]2([H:9])[O:3][C:4]([H:10])=[N:5][C@@:6]12[H:11]>>[C:1]1([H:7])([H:8])[C-:2]=[O+:3][C:4]([H:10])=[N:5][C:6]1([H:9])[H:11]"
C       -1.15469350       0.37144382      -0.09736996
C       -0.36509018      -0.30257136      -1.18197588
O        0.92000836       0.19555710      -1.29870242
C        1.52971222       0.42578079      -0.09363966
N        1.01561141       0.00019087       0.97379123
C       -0.28121876      -0.55931440       0.70161902
H       -0.98397971       1.43618148       0.04400789
H       -2.20759855       0.11386019      -0.13499170
H       -0.23780470      -1.50808221      -0.27622391
H        2.49715875       0.90421972      -0.17723227
H       -0.73210535      -1.07726601       1.54071766
11
Frame=9 idx=005135 GeodesicLength=0.4309974739399612 rxn_smarts="[C:1]1([H:7])([H:8])[C@@:2]2([H:9])[O:3][C:4]([H:10])=[N:5][C@@:6]12[H:11]>>[C:1]1([H:7])([H:8])[C-:2]=[O+:3][C:4]([H:10])=[N:5][C:6]1([H:9])[H:11]"
C       -1.15643810       0.37026139      -0.09608012
C       -0.36043274      -0.29727766      -1.17815772
O        0.92075652       0.20371721      -1.29915528
C        1.53259154       0.42850504      -0.09204559
N        1.01859888       0.00121674       0.97433833
C       -0.27932507      -0.56007993       0.70100969
H       -0.99198369       1.43647233       0.04261376
H       -2.20804054       0.10773200      -0.13654995
H       -0.24932938      -1.52268275      -0.28554263
H        2.50382029       0.89889214      -0.17728155
H       -0.73021772      -1.06675651       1.54685105
11
Frame=10 idx=005135 GeodesicLength=0.4789216209506231 rxn_smarts="[C:1]1([H:7])([H:8])[C@@:2]2([H:9])[O:3][C:4]([H:10])=[N:5][C@@:6]12[H:11]>>[C:1]1([H:7])([H:8])[C-:2]=[O+:3][C:4]([H:10])=[N:5][C:6]1([H:9])[H:11]"
C       -1.15817454       0.36901458      -0.09478016
C       -0.35569179      -0.29207693      -1.17420418
O        0.92148110       0.21203245      -1.29949614
C        1.53547680       0.43141889      -0.09037612
N        1.02159129       0.00248172       0.97498158
C       -0.27736096      -0.56079340       0.70049574
H       -1.00014015       1.43668995       0.04112452
H       -2.20842035       0.10145621      -0.13812985
H       -0.26124718      -1.53721588      -0.29513026
H        2.51064508       0.89322374      -0.17739960
H       -0.72815930      -1.05623132       1.55291448
11
Frame=11 idx=005135 GeodesicLength=0.5268510884330754 rxn_smarts="[C:1]1([H:7])([H:8])[C@@:2]2([H:9])[O:3][C:4]([H:10])=[N:5][C@@:6]12[H:11]>>[C:1]1([H:7])([H:8])[C-:2]=[O+:3][C:4]([H:10])=[N:5][C:6]1([H:9])[H:11]"
C       -1.15988479       0.36770754      -0.09346872
C       -0.35086621      -0.28698145      -1.17011434
O        0.92219078       0.22046497      -1.29972611
C        1.53838527       0.43447789      -0.08863502
N        1.02459977       0.00395852       0.97572136
C       -0.27532451      -0.56146210       0.70008161
H       -1.00841198       1.43683352       0.03953325
H       -2.20872379       0.09505818      -0.13972517
H       -0.27358892      -1.55168478      -0.30500198
H        2.51756546       0.88731789      -0.17757940
H       -0.72594109      -1.04569018       1.55891453
11
Frame=12 idx=005135 GeodesicLength=0.5747927283635673 rxn_smarts="[C:1]1([H:7])([H:8])[C@@:2]2([H:9])[O:3][C:4]([H:10])=[N:5][C@@:6]12[H:11]>>[C:1]1([H:7])([H:8])[C-:2]=[O+:3][C:4]([H:10])=[N:5][C:6]1([H:9])[H:11]"
C       -1.16164997       0.36629451      -0.09214891
C       -0.34594266      -0.28192848      -1.16588332
O        0.92283571       0.22922851      -1.29981398
C        1.54123425       0.43795933      -0.08678248
N        1.02756650       0.00586165       0.97658609
C       -0.27319776      -0.56202973       0.69977181
H       -1.01701318       1.43686980       0.03784469
H       -2.20899654       0.08836598      -0.14135890
H       -0.28622138      -1.56602196      -0.31517750
H        2.52489594       0.88052830      -0.17788783
H       -0.72351090      -1.03512791       1.56485032
11
Frame=13 idx=005135 GeodesicLength=0.6227392905876996 rxn_smarts="[C:1]1([H:7])([H:8])[C@@:2]2([H:9])[O:3][C:4]([H:10])=[N:5][C@@:6]12[H:11]>>[C:1]1([H:7])([H:8])[C-:2]=[O+:3][C:4]([H:10])=[N:5][C:6]1([H:9])[H:11]"
C       -1.16337311       0.36481927      -0.09081564
C       -0.34092877      -0.27698843      -1.16151299
O        0.92347137       0.23808511      -1.29978595
C        1.54412127       0.44156647      -0.08485648
N        1.03055734       0.00797464       0.97755436
C       -0.27099043      -0.56255335       0.69957110
H       -1.02570740       1.43682235       0.03604237
H       -2.20917667       0.08156174      -0.14300088
H       -0.29930394      -1.58028773      -0.32566881
H        2.53226141       0.87354866      -0.17826065
H       -0.72093107      -1.02454873       1.57073357
11
Frame=14 idx=005135 GeodesicLength=0.6706890641712161 rxn_smarts="[C:1]1([H:7])([H:8])[C@@:2]2([H:9])[O:3][C:4]([H:10])=[N:5][C@@:6]12[H:11]>>[C:1]1([H:7])([H:8])[C-:2]=[O+:3][C:4]([H:10])=[N:5][C:6]1([H:9])[H:11]"
C       -1.16501810       0.36329628      -0.08946659
C       -0.33582647      -0.27219056      -1.15700389
O        0.92411847       0.24694146      -1.29965284
C        1.54708072       0.44519269      -0.08287188
N        1.03359595       0.01022467       0.97862075
C       -0.26870507      -0.56305178       0.69948533
H       -1.03440756       1.43669752       0.03411712
H       -2.20924196       0.07471106      -0.14463751
H       -0.31290305      -1.59449867      -0.33648684
H        2.53953225       0.86663768      -0.17867333
H       -0.71822518      -1.01396036       1.57656968
11
Frame=15 idx=005135 GeodesicLength=0.7186303466888129 rxn_smarts="[C:1]1([H:7])([H:8])[C@@:2]2([H:9])[O:3][C:4]([H:10])=[N:5][C@@:6]12[H:11]>>[C:1]1([H:7])([H:8])[C-:2]=[O+:3][C:4]([H:10])=[N:5][C:6]1([H:9])[H:11]"
C       -1.16655766       0.36173625      -0.08809936
C       -0.33063799      -0.26756107      -1.15235213
O        0.92479156       0.25571898      -1.29941881
C        1.55013809       0.44874752      -0.08084037
N        1.03670122       0.01255259       0.97977933
C       -0.26634292      -0.56353856       0.69951903
H       -1.04304692       1.43649798       0.03205887
H       -2.20917587       0.06786686      -0.14625793
H       -0.32707271      -1.60866014      -0.34764363
H        2.54661235       0.86000774      -0.17910550
H       -0.71540913      -1.00336814       1.58236049
11
Frame=16 idx=005135 GeodesicLength=0.766576159241444 rxn_smarts="[C:1]1([H:7])([H:8])[C@@:2]2([H:9])[O:3][C:4]([H:10])=[N:5][C@@:6]12[H:11]>>[C:1]1([H:7])([H:8])[C-:2]=[O+:3][C:4]([H:10])=[N:5][C:6]1([H:9])[H:11]"
C       -1.16803542       0.36011036      -0.08671495
C       -0.32535464      -0.26306747      -1.14755718
O        0.92546388       0.26453551      -1.29906949
C        1.55324841       0.45238967      -0.07874026
N        1.03984055       0.01508382       0.98104924
C       -0.26389288      -0.56398312       0.69967853
H       -1.05174407       1.43620302       0.02986715
H       -2.20900229       0.06092743      -0.14786978
H       -0.34174591      -1.62273082      -0.35916720
H        2.55367734       0.85329533      -0.17959174
H       -0.71245496      -0.99276372       1.58811569
