14
Frame=0 idx=002137 GeodesicLength=0.0 rxn_smarts="[C:1]([C@@:2]1([H:10])[C:3]([H:11])([H:12])[C@@:4]2([H:13])[O:5][C@@:6]12[H:14])([H:7])([H:8])[H:9]>>[C:1]([C@@:2]1([H:10])[C:3]([H:11])([H:12])[C@:4]1([O+:5]=[C-:6][H:14])[H:13])([H:7])([H:8])[H:9]"
C        1.55297943       0.40623800       0.32263860
C        0.32418677       0.16947281      -0.51533107
C       -0.17817736      -1.22311040      -0.64704181
C       -1.19824252      -0.29736605      -0.09129737
O       -1.52760801      -0.30104673       1.24542289
C       -0.95855095       0.98547695       1.18721775
H        1.49523618      -0.13382234       1.26572715
H        1.68290067       1.46119514       0.55229113
H        2.42435546       0.04353359      -0.23434598
H        0.25695754       0.77870987      -1.40965558
H        0.23387221      -1.94278527       0.04910088
H       -0.40832378      -1.61422094      -1.62979844
H       -1.97515876       0.05092049      -0.76335217
H       -1.72442688       1.61680491       0.66842403
14
Frame=1 idx=002137 GeodesicLength=0.044435920381445275 rxn_smarts="[C:1]([C@@:2]1([H:10])[C:3]([H:11])([H:12])[C@@:4]2([H:13])[O:5][C@@:6]12[H:14])([H:7])([H:8])[H:9]>>[C:1]([C@@:2]1([H:10])[C:3]([H:11])([H:12])[C@:4]1([O+:5]=[C-:6][H:14])[H:13])([H:7])([H:8])[H:9]"
C        1.55864553       0.40243167       0.32423510
C        0.32483730       0.17586432      -0.51010255
C       -0.17887354      -1.21877013      -0.64832880
C       -1.20451322      -0.29907980      -0.09221910
O       -1.50559795      -0.29830748       1.25373828
C       -0.96967163       0.99636071       1.17168620
H        1.49704371      -0.13601738       1.26817040
H        1.70010098       1.45689277       0.55064632
H        2.42799652       0.03416406      -0.23180060
H        0.26678313       0.78166813      -1.40783012
H        0.23020614      -1.94396217       0.04414075
H       -0.40177667      -1.60504912      -1.63487571
H       -1.99527857       0.03395544      -0.75551460
H       -1.74990173       1.61984898       0.66805445
14
Frame=2 idx=002137 GeodesicLength=0.0887868349396443 rxn_smarts="[C:1]([C@@:2]1([H:10])[C:3]([H:11])([H:12])[C@@:4]2([H:13])[O:5][C@@:6]12[H:14])([H:7])([H:8])[H:9]>>[C:1]([C@@:2]1([H:10])[C:3]([H:11])([H:12])[C@:4]1([O+:5]=[C-:6][H:14])[H:13])([H:7])([H:8])[H:9]"
C        1.56427694       0.39866595       0.32582263
C        0.32552876       0.18230276      -0.50486450
C       -0.17955371      -1.21436829      -0.64961967
C       -1.21081749      -0.30083059      -0.09319081
O       -1.48377574      -0.29479824       1.26136393
C       -0.98102095       1.00682617       1.15610486
H        1.49894283      -0.13823411       1.27055963
H        1.71719601       1.45249357       0.54904799
H        2.43158138       0.02491942      -0.22929431
H        0.27673418       0.78460377      -1.40593968
H        0.22647606      -1.94505563       0.03917660
H       -0.39524382      -1.59579715      -1.63986823
H       -2.01542087       0.01641933      -0.74725673
H       -1.77490359       1.62285305       0.66795828
14
Frame=3 idx=002137 GeodesicLength=0.13303869932348739 rxn_smarts="[C:1]([C@@:2]1([H:10])[C:3]([H:11])([H:12])[C@@:4]2([H:13])[O:5][C@@:6]12[H:14])([H:7])([H:8])[H:9]>>[C:1]([C@@:2]1([H:10])[C:3]([H:11])([H:12])[C@:4]1([O+:5]=[C-:6][H:14])[H:13])([H:7])([H:8])[H:9]"
C        1.56987381       0.39494198       0.32739882
C        0.32626122       0.18878954      -0.49961744
C       -0.18021391      -1.20990456      -0.65091342
C       -1.21715576      -0.30261962      -0.09422187
O       -1.46219925      -0.29055688       1.26829237
C       -0.99259044       1.01686041       1.14048724
H        1.50093091      -0.14047637       1.27289026
H        1.73418420       1.44800101       0.54749455
H        2.43511041       0.01580704      -0.22683482
H        0.28679873       0.78752143      -1.40397789
H        0.22268325      -1.94605943       0.03421544
H       -0.38872595      -1.58647498      -1.64477071
H       -2.03555321      -0.00167940      -0.73856311
H       -1.79940402       1.62584983       0.66812059
14
Frame=4 idx=002137 GeodesicLength=0.1771774745563958 rxn_smarts="[C:1]([C@@:2]1([H:10])[C:3]([H:11])([H:12])[C@@:4]2([H:13])[O:5][C@@:6]12[H:14])([H:7])([H:8])[H:9]>>[C:1]([C@@:2]1([H:10])[C:3]([H:11])([H:12])[C@:4]1([O+:5]=[C-:6][H:14])[H:13])([H:7])([H:8])[H:9]"
C        1.57543513       0.39126163       0.32896231
C        0.32703359       0.19532650      -0.49436258
C       -0.18085122      -1.20537975      -0.65221077
C       -1.22352898      -0.30444800      -0.09532318
O       -1.44092771      -0.28562105       1.27452581
C       -1.00436727       1.02645011       1.12484477
H        1.50300400      -0.14274718       1.27515870
H        1.75106239       1.44342011       0.54598522
H        2.43858283       0.00683526      -0.22442877
H        0.29696291       0.79042576      -1.40193870
H        0.21882943      -1.94696972       0.02926259
H       -0.38222361      -1.57709463      -1.64958136
H       -2.05563874      -0.02033210      -0.72941965
H       -1.82337275       1.62887307       0.66852561
14
Frame=5 idx=002137 GeodesicLength=0.2211984234105807 rxn_smarts="[C:1]([C@@:2]1([H:10])[C:3]([H:11])([H:12])[C@@:4]2([H:13])[O:5][C@@:6]12[H:14])([H:7])([H:8])[H:9]>>[C:1]([C@@:2]1([H:10])[C:3]([H:11])([H:12])[C@:4]1([O+:5]=[C-:6][H:14])[H:13])([H:7])([H:8])[H:9]"
C        1.58096494       0.38762503       0.33050971
C        0.32784840       0.20191304      -0.48910133
C       -0.18146262      -1.20079308      -0.65350747
C       -1.22994079      -0.30631938      -0.09650427
O       -1.42000734      -0.28004118       1.28004024
C       -1.01635390       1.03557842       1.10920328
H        1.50515948      -0.14505256       1.27736259
H        1.76783087       1.43875250       0.54451656
H        2.44200833      -0.00198698      -0.22208322
H        0.30721628       0.79332305      -1.39982381
H        0.21491547      -1.94777876       0.02432866
H       -0.37573798      -1.56766323      -1.65429102
H       -2.07565137      -0.03952209      -0.71979587
H       -1.84678977       1.63196523       0.66914596
14
Frame=6 idx=002137 GeodesicLength=0.26507455013940384 rxn_smarts="[C:1]([C@@:2]1([H:10])[C:3]([H:11])([H:12])[C@@:4]2([H:13])[O:5][C@@:6]12[H:14])([H:7])([H:8])[H:9]>>[C:1]([C@@:2]1([H:10])[C:3]([H:11])([H:12])[C@:4]1([O+:5]=[C-:6][H:14])[H:13])([H:7])([H:8])[H:9]"
C        1.58645797       0.38403467       0.33204133
C        0.32870123       0.20855186      -0.48383592
C       -0.18204566      -1.19614728      -0.65480850
C       -1.23639057      -0.30823531      -0.09777862
O       -1.39950128      -0.27385774       1.28485542
C       -1.02852401       1.04423178       1.09357046
H        1.50738930      -0.14739430       1.27949785
H        1.78448236       1.43400526       0.54309164
H        2.44538091      -0.01065069      -0.21980358
H        0.31754020       0.79621813      -1.39762484
H        0.21094513      -1.94848671       0.01941325
H       -0.36926827      -1.55819662      -1.65890414
H       -2.09554244      -0.05924294      -0.70967365
H       -1.86962487       1.63516989       0.66995930
14
Frame=7 idx=002137 GeodesicLength=0.3088071838179418 rxn_smarts="[C:1]([C@@:2]1([H:10])[C:3]([H:11])([H:12])[C@@:4]2([H:13])[O:5][C@@:6]12[H:14])([H:7])([H:8])[H:9]>>[C:1]([C@@:2]1([H:10])[C:3]([H:11])([H:12])[C@:4]1([O+:5]=[C-:6][H:14])[H:13])([H:7])([H:8])[H:9]"
C        1.59190349       0.38050177       0.33354901
C        0.32956719       0.21522913      -0.47855195
C       -0.18262346      -1.19146208      -0.65607716
C       -1.24290950      -0.31021877      -0.09910746
O       -1.37936238      -0.26716882       1.28902733
C       -1.04089624       1.05245965       1.07793067
H        1.50969006      -0.14974349       1.28157115
H        1.80100346       1.42920317       0.54167363
H        2.44868635      -0.01915130      -0.21760371
H        0.32790022       0.79908617      -1.39534001
H        0.20692942      -1.94910304       0.01454814
H       -0.36283634      -1.54873489      -1.66337831
H       -2.11520868      -0.07929139      -0.69930900
H       -1.89184360       1.63839389       0.67106766
14
Frame=8 idx=002137 GeodesicLength=0.3524447754442462 rxn_smarts="[C:1]([C@@:2]1([H:10])[C:3]([H:11])([H:12])[C@@:4]2([H:13])[O:5][C@@:6]12[H:14])([H:7])([H:8])[H:9]>>[C:1]([C@@:2]1([H:10])[C:3]([H:11])([H:12])[C@:4]1([O+:5]=[C-:6][H:14])[H:13])([H:7])([H:8])[H:9]"
C        1.59732144       0.37700228       0.33504660
C        0.33048184       0.22197426      -0.47326539
C       -0.18315709      -1.18670165      -0.65737356
C       -1.24945109      -0.31224484      -0.10056117
O       -1.35971822      -0.25989750       1.29249736
C       -1.05343953       1.06017987       1.06230294
H        1.51204505      -0.15214631       1.28358109
H        1.81743445       1.42430850       0.54029948
H        2.45195267      -0.02751667      -0.21545475
H        0.33831339       0.80198945      -1.39295598
H        0.20286336      -1.94960943       0.00967823
H       -0.35641054      -1.53920990      -1.66778984
H       -2.13474449      -0.09997921      -0.68827800
H       -1.91349124       1.64185116       0.67227300
14
Frame=9 idx=002137 GeodesicLength=0.39591274348669825 rxn_smarts="[C:1]([C@@:2]1([H:10])[C:3]([H:11])([H:12])[C@@:4]2([H:13])[O:5][C@@:6]12[H:14])([H:7])([H:8])[H:9]>>[C:1]([C@@:2]1([H:10])[C:3]([H:11])([H:12])[C@:4]1([O+:5]=[C-:6][H:14])[H:13])([H:7])([H:8])[H:9]"
C        1.60269007       0.37355814       0.33652148
C        0.33140746       0.22876183      -0.46796190
C       -0.18367873      -1.18190110      -0.65864423
C       -1.25606103      -0.31435417      -0.10207202
O       -1.34047044      -0.25221120       1.29531039
C       -1.06618016       1.06749973       1.04668802
H        1.51444415      -0.15454282       1.28554025
H        1.83375426       1.41935505       0.53892235
H        2.45514916      -0.03574454      -0.21337151
H        0.34873596       0.80488291      -1.39048714
H        0.19876564      -1.95002163       0.00484729
H       -0.35001415      -1.52968818      -1.67207225
H       -2.15402528      -0.12097431      -0.67693301
H       -1.93451692       1.64538029       0.67371229
14
Frame=10 idx=002137 GeodesicLength=0.43930738564681177 rxn_smarts="[C:1]([C@@:2]1([H:10])[C:3]([H:11])([H:12])[C@@:4]2([H:13])[O:5][C@@:6]12[H:14])([H:7])([H:8])[H:9]>>[C:1]([C@@:2]1([H:10])[C:3]([H:11])([H:12])[C@:4]1([O+:5]=[C-:6][H:14])[H:13])([H:7])([H:8])[H:9]"
C        1.60802385       0.37014901       0.33798253
C        0.33236307       0.23561487      -0.46264215
C       -0.18416957      -1.17703158      -0.65992538
C       -1.26271305      -0.31652599      -0.10368353
O       -1.32171399      -0.24402236       1.29750089
C       -1.07909424       1.07435722       1.03104798
H        1.51688031      -0.15697618       1.28744067
H        1.84999025       1.41431827       0.53756214
H        2.45829355      -0.04385057      -0.21134734
H        0.35917548       0.80780706      -1.38790133
H        0.19463054      -1.95032712       0.00001855
H       -0.34363299      -1.52011761      -1.67627616
H       -2.17307648      -0.14249837      -0.66507432
H       -1.95495673       1.64910332       0.67529745
14
Frame=11 idx=002137 GeodesicLength=0.48257258816859055 rxn_smarts="[C:1]([C@@:2]1([H:10])[C:3]([H:11])([H:12])[C@@:4]2([H:13])[O:5][C@@:6]12[H:14])([H:7])([H:8])[H:9]>>[C:1]([C@@:2]1([H:10])[C:3]([H:11])([H:12])[C@:4]1([O+:5]=[C-:6][H:14])[H:13])([H:7])([H:8])[H:9]"
C        1.61331829       0.36677367       0.33942826
C        0.33334230       0.24253739      -0.45731103
C       -0.18462989      -1.17209397      -0.66122292
C       -1.26941469      -0.31877394      -0.10538532
O       -1.30344210      -0.23541262       1.29906582
C       -1.09218664       1.08078795       1.01542125
H        1.51933392      -0.15943111       1.28929337
H        1.86615992       1.40919485       0.53621047
H        2.46137840      -0.05186330      -0.20937033
H        0.36962201       0.81078131      -1.38520931
H        0.19046302      -1.95052835      -0.00482291
H       -0.33725894      -1.51049038      -1.68041079
H       -2.19186207      -0.16453581      -0.65264647
H       -1.97482354       1.65305430       0.67695993
14
Frame=12 idx=002137 GeodesicLength=0.5257430567327508 rxn_smarts="[C:1]([C@@:2]1([H:10])[C:3]([H:11])([H:12])[C@@:4]2([H:13])[O:5][C@@:6]12[H:14])([H:7])([H:8])[H:9]>>[C:1]([C@@:2]1([H:10])[C:3]([H:11])([H:12])[C@:4]1([O+:5]=[C-:6][H:14])[H:13])([H:7])([H:8])[H:9]"
C        1.61857378       0.36342450       0.34086077
C        0.33434145       0.24953753      -0.45196216
C       -0.18505958      -1.16707635      -0.66254249
C       -1.27616343      -0.32109731      -0.10717405
O       -1.28565462      -0.22637800       1.30004060
C       -1.10546103       1.08681180       0.99977369
H        1.52179024      -0.16190030       1.29110634
H        1.88228720       1.40397415       0.53485032
H        2.46439748      -0.05981818      -0.20742731
H        0.38006703       0.81382063      -1.38239673
H        0.18626676      -1.95062182      -0.00969561
H       -0.33088848      -1.50077924      -1.68448612
H       -2.21036397      -0.18712474      -0.63964410
H       -1.99413283       1.65722734       0.67869685
14
Frame=13 idx=002137 GeodesicLength=0.5688655055513119 rxn_smarts="[C:1]([C@@:2]1([H:10])[C:3]([H:11])([H:12])[C@@:4]2([H:13])[O:5][C@@:6]12[H:14])([H:7])([H:8])[H:9]>>[C:1]([C@@:2]1([H:10])[C:3]([H:11])([H:12])[C@:4]1([O+:5]=[C-:6][H:14])[H:13])([H:7])([H:8])[H:9]"
C        1.62378863       0.36009488       0.34228386
C        0.33536178       0.25662354      -0.44659050
C       -0.18545697      -1.16197351      -0.66389262
C       -1.28296161      -0.32350630      -0.10904967
O       -1.26834092      -0.21692385       1.30041765
C       -1.11893396       1.09244102       0.98407844
H        1.52422939      -0.16437406       1.29289040
H        1.89839121       1.39864757       0.53346056
H        2.46734427      -0.06775446      -0.20549787
H        0.39050632       0.81694044      -1.37945832
H        0.18205094      -1.95060940      -0.01461287
H       -0.32451547      -1.49096376      -1.68852203
H       -2.22855197      -0.21028202      -0.62601173
H       -2.01291162       1.66163990       0.68050470
14
Frame=14 idx=002137 GeodesicLength=0.611921473770469 rxn_smarts="[C:1]([C@@:2]1([H:10])[C:3]([H:11])([H:12])[C@@:4]2([H:13])[O:5][C@@:6]12[H:14])([H:7])([H:8])[H:9]>>[C:1]([C@@:2]1([H:10])[C:3]([H:11])([H:12])[C@:4]1([O+:5]=[C-:6][H:14])[H:13])([H:7])([H:8])[H:9]"
C        1.62895655       0.35678433       0.34370072
C        0.33639442       0.26380048      -0.44119451
C       -0.18582549      -1.15678072      -0.66528103
C       -1.28980668      -0.32601137      -0.11100647
O       -1.25150985      -0.20708168       1.30023785
C       -1.13258989       1.09768842       0.96832738
H        1.52663485      -0.16684136       1.29465564
H        1.91448630       1.39320992       0.53203874
H        2.47020774      -0.07568594      -0.20357540
H        0.40092570       0.82015192      -1.37638431
H        0.17781350      -1.95048662      -0.01959662
H       -0.31813782      -1.48103061      -1.69253100
H       -2.24640287      -0.23403056      -0.61173739
H       -2.03114646       1.66631380       0.68234641
14
Frame=15 idx=002137 GeodesicLength=0.6549185694336132 rxn_smarts="[C:1]([C@@:2]1([H:10])[C:3]([H:11])([H:12])[C@@:4]2([H:13])[O:5][C@@:6]12[H:14])([H:7])([H:8])[H:9]>>[C:1]([C@@:2]1([H:10])[C:3]([H:11])([H:12])[C@:4]1([O+:5]=[C-:6][H:14])[H:13])([H:7])([H:8])[H:9]"
C        1.63407214       0.35349392       0.34510879
C        0.33743356       0.27106101      -0.43577456
C       -0.18617152      -1.15150214      -0.66669924
C       -1.29671219      -0.32862103      -0.11304471
O       -1.23517527      -0.19688480       1.29949843
C       -1.14643509       1.10253955       0.95253508
H        1.52900337      -0.16930725       1.29639418
H        1.93055110       1.38766019       0.53059471
H        2.47298527      -0.08358816      -0.20167029
H        0.41131207       0.82344830      -1.37318239
H        0.17356484      -1.95025365      -0.02463658
H       -0.31176692      -1.47099330      -1.69649749
H       -2.26385444      -0.25831350      -0.59683875
H       -2.04880692       1.67126087       0.68421283
14
Frame=16 idx=002137 GeodesicLength=0.6978658761590865 rxn_smarts="[C:1]([C@@:2]1([H:10])[C:3]([H:11])([H:12])[C@@:4]2([H:13])[O:5][C@@:6]12[H:14])([H:7])([H:8])[H:9]>>[C:1]([C@@:2]1([H:10])[C:3]([H:11])([H:12])[C@:4]1([O+:5]=[C-:6][H:14])[H:13])([H:7])([H:8])[H:9]"
C        1.63912801       0.35021987       0.34651175
C        0.33847558       0.27841266      -0.43033037
C       -0.18649338      -1.14613543      -0.66815888
C       -1.30367610      -0.33134530      -0.11516392
O       -1.21934622      -0.18634852       1.29822240
C       -1.16046685       1.10700345       0.93668352
H        1.53131112      -0.17176101       1.29811944
H        1.94659638       1.38199354       0.52911404
H        2.47566801      -0.09149095      -0.19976809
H        0.42165734       0.82684753      -1.36984652
H        0.16931140      -1.94991522      -0.02975641
H       -0.30539385      -1.46083708      -1.70044189
H       -2.28087557      -0.28315631      -0.58127117
H       -2.06589586       1.67651278       0.68608610
