13
Frame=0 idx=000718 GeodesicLength=0.0 rxn_smarts="[O:1]([C:2]([C:3]([C:4]([O:5][H:13])([H:11])[H:12])([H:9])[H:10])([H:7])[H:8])[H:6]>>[C:4]([O:5][H:13])[H:11].[O:1]([C:2]([C:3]([H:9])([H:10])[H:12])([H:7])[H:8])[H:6]"
O       -0.66763422       1.19263492       0.62869257
C       -1.15305716      -0.07780815       0.20643508
C       -0.22352053      -0.66131922      -0.82144693
C        1.71058606      -0.42973690       0.17999088
O        2.02754120       0.81383201      -0.20015482
H       -1.30050097       1.58319121       1.23183315
H       -2.15453222       0.03956578      -0.23145940
H       -1.24517987      -0.75529532       1.06419836
H       -0.08388617       0.00323347      -1.67409956
H       -0.59031115      -1.63598078      -1.15281525
H        1.18624548      -0.44993007       1.14256437
H        1.03151521      -1.07975477      -0.62290254
H        1.46273429       1.45736776       0.24916408
13
Frame=1 idx=000718 GeodesicLength=0.05880540142208846 rxn_smarts="[O:1]([C:2]([C:3]([C:4]([O:5][H:13])([H:11])[H:12])([H:9])[H:10])([H:7])[H:8])[H:6]>>[C:4]([O:5][H:13])[H:11].[O:1]([C:2]([C:3]([H:9])([H:10])[H:12])([H:7])[H:8])[H:6]"
O       -0.66841633       1.19828892       0.62005419
C       -1.15375171      -0.07467068       0.20450450
C       -0.22183509      -0.66230713      -0.81992593
C        1.71542549      -0.42853297       0.18176535
O        2.02791726       0.82068346      -0.18503679
H       -1.29360986       1.58603824       1.23295356
H       -2.15527853       0.04090244      -0.23315224
H       -1.24567992      -0.74797183       1.06553135
H       -0.09255026      -0.00168767      -1.67764648
H       -0.59443955      -1.63619439      -1.14763751
H        1.19966103      -0.46222002       1.14956776
H        1.04074173      -1.08725988      -0.64222969
H        1.44181574       1.45493151       0.25125193
13
Frame=2 idx=000718 GeodesicLength=0.11761079406558629 rxn_smarts="[O:1]([C:2]([C:3]([C:4]([O:5][H:13])([H:11])[H:12])([H:9])[H:10])([H:7])[H:8])[H:6]>>[C:4]([O:5][H:13])[H:11].[O:1]([C:2]([C:3]([H:9])([H:10])[H:12])([H:7])[H:8])[H:6]"
O       -0.66940769       1.20401933       0.61124438
C       -1.15451518      -0.07153306       0.20258304
C       -0.22016570      -0.66323381      -0.81838407
C        1.72016845      -0.42733678       0.18364711
O        2.02813515       0.82747140      -0.16945823
H       -1.28675052       1.58904178       1.23377516
H       -2.15614219       0.04203928      -0.23476723
H       -1.24604408      -0.74055380       1.06693798
H       -0.10149639      -0.00670262      -1.68116848
H       -0.59834956      -1.63646204      -1.14223187
H        1.21331851      -0.47465291       1.15656764
H        1.04988499      -1.09426329      -0.66216731
H        1.42136421       1.45216653       0.25342189
13
Frame=3 idx=000718 GeodesicLength=0.17639848164844363 rxn_smarts="[O:1]([C:2]([C:3]([C:4]([O:5][H:13])([H:11])[H:12])([H:9])[H:10])([H:7])[H:8])[H:6]>>[C:4]([O:5][H:13])[H:11].[O:1]([C:2]([C:3]([H:9])([H:10])[H:12])([H:7])[H:8])[H:6]"
O       -0.67058822       1.20981721       0.60226254
C       -1.15533906      -0.06839555       0.20066717
C       -0.21851259      -0.66409842      -0.81682300
C        1.72481063      -0.42614307       0.18563963
O        2.02816716       0.83419130      -0.15342671
H       -1.27990401       1.59220125       1.23427643
H       -2.15711168       0.04297975      -0.23630417
H       -1.24627017      -0.73303987       1.06840628
H       -0.11072554      -0.01182298      -1.68465855
H       -0.60204207      -1.63678542      -1.13659393
H        1.22722379      -0.48722805       1.16355860
H        1.05892376      -1.10075815      -0.68270757
H        1.40136800       1.44908199       0.25570326
13
Frame=4 idx=000718 GeodesicLength=0.23518618437515199 rxn_smarts="[O:1]([C:2]([C:3]([C:4]([O:5][H:13])([H:11])[H:12])([H:9])[H:10])([H:7])[H:8])[H:6]>>[C:4]([O:5][H:13])[H:11].[O:1]([C:2]([C:3]([H:9])([H:10])[H:12])([H:7])[H:8])[H:6]"
O       -0.67196160       1.21568565       0.59310575
C       -1.15622279      -0.06525336       0.19876045
C       -0.21687077      -0.66489839      -0.81524502
C        1.72936947      -0.42496335       0.18774664
O        2.02801398       0.84082949      -0.13691496
H       -1.27308894       1.59553982       1.23444274
H       -2.15818847       0.04373360      -0.23775940
H       -1.24635457      -0.72542128       1.06994730
H       -0.12024253      -0.01705887      -1.68812366
H       -0.60550237      -1.63716994      -1.13071305
H        1.24140027      -0.49998715       1.17053184
H        1.06784882      -1.10672595      -0.70386753
H        1.38179950       1.44568971       0.25808890
13
Frame=5 idx=000718 GeodesicLength=0.2939744431020396 rxn_smarts="[O:1]([C:2]([C:3]([C:4]([O:5][H:13])([H:11])[H:12])([H:9])[H:10])([H:7])[H:8])[H:6]>>[C:4]([O:5][H:13])[H:11].[O:1]([C:2]([C:3]([H:9])([H:10])[H:12])([H:7])[H:8])[H:6]"
O       -0.67351548       1.22162825       0.58375746
C       -1.15715914      -0.06210576       0.19686025
C       -0.21523953      -0.66563276      -0.81365349
C        1.73383615      -0.42380114       0.18997664
O        2.02766140       0.84737808      -0.11988446
H       -1.26628552       1.59907101       1.23425928
H       -2.15936454       0.04429358      -0.23912687
H       -1.24628387      -0.71768663       1.07156008
H       -0.13005433      -0.02242462      -1.69156255
H       -0.60872613      -1.63762454      -1.12457783
H        1.25585283      -0.51296051       1.17748138
H        1.07664688      -1.11214152      -0.72566937
H        1.36263127       1.44200656       0.26057949
13
Frame=6 idx=000718 GeodesicLength=0.35276641716130275 rxn_smarts="[O:1]([C:2]([C:3]([C:4]([O:5][H:13])([H:11])[H:12])([H:9])[H:10])([H:7])[H:8])[H:6]>>[C:4]([O:5][H:13])[H:11].[O:1]([C:2]([C:3]([H:9])([H:10])[H:12])([H:7])[H:8])[H:6]"
O       -0.67524390       1.22763983       0.57422260
C       -1.15814729      -0.05894935       0.19496494
C       -0.21361489      -0.66630137      -0.81205292
C        1.73822359      -0.42265531       0.19233435
O        2.02709287       0.85382819      -0.10234858
H       -1.25949658       1.60279985       1.23371867
H       -2.16064049       0.04467318      -0.24040719
H       -1.24606665      -0.70983513       1.07323982
H       -0.14015500      -0.02793313      -1.69497716
H       -0.61170530      -1.63815314      -1.11818427
H        1.27059795      -0.52615164       1.18439956
H        1.08529967      -1.11700201      -0.74810453
H        1.34385602       1.43804003       0.26319472
13
Frame=7 idx=000718 GeodesicLength=0.4115652349147197 rxn_smarts="[O:1]([C:2]([C:3]([C:4]([O:5][H:13])([H:11])[H:12])([H:9])[H:10])([H:7])[H:8])[H:6]>>[C:4]([O:5][H:13])[H:11].[O:1]([C:2]([C:3]([H:9])([H:10])[H:12])([H:7])[H:8])[H:6]"
O       -0.67714000       1.23372519       0.56448339
C       -1.15917883      -0.05578068       0.19307246
C       -0.21199586      -0.66690334      -0.81044698
C        1.74253719      -0.42152918       0.19482228
O        2.02628997       0.86017359      -0.08427245
H       -1.25272036       1.60674715       1.23279290
H       -2.16201007       0.04486778      -0.24159403
H       -1.24568682      -0.70184887       1.07499082
H       -0.15055770      -0.03360226      -1.69836983
H       -0.61443204      -1.63876376      -1.11151490
H        1.28565480      -0.53960158       1.19127016
H        1.09378991      -1.12127918      -0.77119266
H        1.32544982       1.43379513       0.26595883
13
Frame=8 idx=000718 GeodesicLength=0.47034807092323416 rxn_smarts="[O:1]([C:2]([C:3]([C:4]([O:5][H:13])([H:11])[H:12])([H:9])[H:10])([H:7])[H:8])[H:6]>>[C:4]([O:5][H:13])[H:11].[O:1]([C:2]([C:3]([H:9])([H:10])[H:12])([H:7])[H:8])[H:6]"
O       -0.67918508       1.23986836       0.55454658
C       -1.16024563      -0.05259972       0.19118217
C       -0.21037758      -0.66743145      -0.80883732
C        1.74676787      -0.42041727       0.19745322
O        2.02522522       0.86639714      -0.06566808
H       -1.24594826       1.61089809       1.23147428
H       -2.16345592       0.04489028      -0.24268902
H       -1.24514578      -0.69373426       1.07680501
H       -0.16124855      -0.03943497      -1.70173573
H       -0.61690015      -1.63944296      -1.10457263
H        1.30102779      -0.55330014       1.19809275
H        1.10208788      -1.12497834      -0.79491021
H        1.30739819       1.42928523       0.26885900
13
Frame=9 idx=000718 GeodesicLength=0.5291689963541961 rxn_smarts="[O:1]([C:2]([C:3]([C:4]([O:5][H:13])([H:11])[H:12])([H:9])[H:10])([H:7])[H:8])[H:6]>>[C:4]([O:5][H:13])[H:11].[O:1]([C:2]([C:3]([H:9])([H:10])[H:12])([H:7])[H:8])[H:6]"
O       -0.68138423       1.24608776       0.54440625
C       -1.16135420      -0.04940293       0.18929642
C       -0.20875863      -0.66789266      -0.80722929
C        1.75094403      -0.41933328       0.20022585
O        2.02390902       0.87249775      -0.04648760
H       -1.23920928       1.61531039       1.22973272
H       -2.16499929       0.04473840      -0.24367898
H       -1.24444064      -0.68547967       1.07868506
H       -0.17224438      -0.04545238      -1.70507139
H       -0.61909951      -1.64021868      -1.09734622
H        1.31675656      -0.56730076       1.20484179
H        1.11019246      -1.12808091      -0.81929740
H        1.28968809       1.42452697       0.27192279
13
Frame=10 idx=000718 GeodesicLength=0.5879467960441831 rxn_smarts="[O:1]([C:2]([C:3]([C:4]([O:5][H:13])([H:11])[H:12])([H:9])[H:10])([H:7])[H:8])[H:6]>>[C:4]([O:5][H:13])[H:11].[O:1]([C:2]([C:3]([H:9])([H:10])[H:12])([H:7])[H:8])[H:6]"
O       -0.68370526       1.25234780       0.53406138
C       -1.16247396      -0.04618919       0.18741127
C       -0.20713231      -0.66827198      -0.80562325
C        1.75503885      -0.41825925       0.20315681
O        2.02227507       0.87845154      -0.02674844
H       -1.23247510       1.61994503       1.22755176
H       -2.16658580       0.04442436      -0.24457251
H       -1.24354609      -0.67707556       1.08062674
H       -0.18353322      -0.05166301      -1.70837575
H       -0.62101927      -1.64105344      -1.08983010
H        1.33282496      -0.58158312       1.21151529
H        1.11804818      -1.13057000      -0.84431431
H        1.27228396       1.41949682       0.27514111
13
Frame=11 idx=000718 GeodesicLength=0.6467781664102429 rxn_smarts="[O:1]([C:2]([C:3]([C:4]([O:5][H:13])([H:11])[H:12])([H:9])[H:10])([H:7])[H:8])[H:6]>>[C:4]([O:5][H:13])[H:11].[O:1]([C:2]([C:3]([H:9])([H:10])[H:12])([H:7])[H:8])[H:6]"
O       -0.68616287       1.25868367       0.52351696
C       -1.16363751      -0.04295752       0.18552776
C       -0.20549797      -0.66858268      -0.80402873
C        1.75910715      -0.41721180       0.20624957
O        2.02036917       0.88427062      -0.00643295
H       -1.22579048       1.62485356       1.22493443
H       -2.16827761       0.04395733      -0.24535964
H       -1.24249966      -0.66854226       1.08262533
H       -0.19511213      -0.05806993      -1.71164639
H       -0.62266688      -1.64199001      -1.08203175
H        1.34928892      -0.59618604       1.21809624
H        1.12567175      -1.13247568      -0.86997488
H        1.25520810       1.41425073       0.27852405
13
Frame=12 idx=000718 GeodesicLength=0.7055645234854285 rxn_smarts="[O:1]([C:2]([C:3]([C:4]([O:5][H:13])([H:11])[H:12])([H:9])[H:10])([H:7])[H:8])[H:6]>>[C:4]([O:5][H:13])[H:11].[O:1]([C:2]([C:3]([H:9])([H:10])[H:12])([H:7])[H:8])[H:6]"
O       -0.68871155       1.26504462       0.51276402
C       -1.16478909      -0.03970420       0.18363957
C       -0.20385004      -0.66880529      -0.80244841
C        1.76307471      -0.41616597       0.20952786
O        2.01809193       0.88990461       0.01449273
H       -1.21909597       1.62998622       1.22186302
H       -2.16997958       0.04333116      -0.24604461
H       -1.24123447      -0.65983474       1.08467049
H       -0.20698087      -0.06470684      -1.71487707
H       -0.62401859      -1.64297144      -1.07394909
H        1.36611661      -0.61106921       1.22458080
H        1.13298443      -1.13376490      -0.89626592
H        1.23839247       1.40875599       0.28204660
13
Frame=13 idx=000718 GeodesicLength=0.7643836355860392 rxn_smarts="[O:1]([C:2]([C:3]([C:4]([O:5][H:13])([H:11])[H:12])([H:9])[H:10])([H:7])[H:8])[H:6]>>[C:4]([O:5][H:13])[H:11].[O:1]([C:2]([C:3]([H:9])([H:10])[H:12])([H:7])[H:8])[H:6]"
O       -0.69137097       1.27147116       0.50178813
C       -1.16595805      -0.03642646       0.18175136
C       -0.20218462      -0.66894971      -0.80088721
C        1.76701522      -0.41514346       0.21298058
O        2.01547396       0.89537530       0.03602768
H       -1.21246672       1.63542024       1.21828516
H       -2.17175424       0.04255661      -0.24661038
H       -1.23977774      -0.65096926       1.08677675
H       -0.21914973      -0.07157089      -1.71806983
H       -0.62507348      -1.64404302      -1.06555706
H        1.38337917      -0.62631386       1.23093566
H        1.14000449      -1.13444171      -0.92321653
H        1.22186272       1.40303508       0.28579569
13
Frame=14 idx=000718 GeodesicLength=0.8232394141126868 rxn_smarts="[O:1]([C:2]([C:3]([C:4]([O:5][H:13])([H:11])[H:12])([H:9])[H:10])([H:7])[H:8])[H:6]>>[C:4]([O:5][H:13])[H:11].[O:1]([C:2]([C:3]([H:9])([H:10])[H:12])([H:7])[H:8])[H:6]"
O       -0.69412213       1.27795004       0.49060188
C       -1.16714059      -0.03312550       0.17986152
C       -0.20049851      -0.66901140      -0.79934965
C        1.77092122      -0.41413631       0.21663551
O        2.01250779       0.90066446       0.05821357
H       -1.20588986       1.64113825       1.21422139
H       -2.17359367       0.04164440      -0.24706127
H       -1.23813386      -0.64195313       1.08892989
H       -0.23160588      -0.07866860      -1.72121515
H       -0.62583179      -1.64519177      -1.05687138
H        1.40108494      -0.64190857       1.23715991
H        1.14670431      -1.13452094      -0.95080862
H        1.20559804       1.39711907       0.28968239
13
Frame=15 idx=000718 GeodesicLength=0.8820662224697197 rxn_smarts="[O:1]([C:2]([C:3]([C:4]([O:5][H:13])([H:11])[H:12])([H:9])[H:10])([H:7])[H:8])[H:6]>>[C:4]([O:5][H:13])[H:11].[O:1]([C:2]([C:3]([H:9])([H:10])[H:12])([H:7])[H:8])[H:6]"
O       -0.69693235       1.28445581       0.47917885
C       -1.16828451      -0.02979425       0.17796799
C       -0.19878402      -0.66898267      -0.79784074
C        1.77475176      -0.41313134       0.22048693
O        2.00908632       0.90573525       0.08105261
H       -1.19936443       1.64715798       1.20958940
H       -2.17541846       0.04057876      -0.24738368
H       -1.23622329      -0.63272320       1.09113670
H       -0.24436292      -0.08604842      -1.72430738
H       -0.62626441      -1.64638747      -1.04787351
H        1.41923513      -0.65784231       1.24321407
H        1.15300838      -1.13396403      -0.97907128
H        1.18955281       1.39094589       0.29385003
13
Frame=16 idx=000718 GeodesicLength=0.9409434188565147 rxn_smarts="[O:1]([C:2]([C:3]([C:4]([O:5][H:13])([H:11])[H:12])([H:9])[H:10])([H:7])[H:8])[H:6]>>[C:4]([O:5][H:13])[H:11].[O:1]([C:2]([C:3]([H:9])([H:10])[H:12])([H:7])[H:8])[H:6]"
O       -0.69981180       1.29101730       0.46752008
C       -1.16942335      -0.02643323       0.17607511
C       -0.19703856      -0.66886617      -0.79636639
C        1.77856390      -0.41214554       0.22455169
O        2.00526236       0.91059318       0.10458979
H       -1.19295114       1.65351995       1.20438008
H       -2.17729597       0.03937279      -0.24756396
H       -1.23408134      -0.62331252       1.09340169
H       -0.25741701      -0.09369248      -1.72734396
H       -0.62638038      -1.64765573      -1.03856389
H        1.43789155      -0.67417401       1.24908589
H        1.15893564      -1.13279768      -1.00801105
H        1.17374612       1.38457413       0.29824493
