14
Frame=0 idx=007747 GeodesicLength=0.0 rxn_smarts="[C:1]([C:2]1=[C:3]([H:11])/[C:4](=[N:5]/[H:12])[O:6][C:7]1([H:13])[H:14])([H:8])([H:9])[H:10]>>[C:1]([C@:2]1([C:3](=[C:4]=[N:5][H:12])[H:11])[O:6][C:7]1([H:13])[H:14])([H:8])([H:9])[H:10]"
C       -1.92109805      -0.30602408      -0.24583043
C       -0.48536954       0.06069721      -0.21794006
C        0.49420930      -0.75405635      -0.76948439
C        1.74937044      -0.55193779      -0.27491161
N        2.92492843      -0.51944851      -0.10471825
O        0.64214742       0.49683768       1.47642679
C       -0.00989112       1.24948923       0.53284776
H       -2.29974538      -0.27456728       0.77819112
H       -2.47883268       0.44643649      -0.81064105
H       -2.10643313      -1.29247859      -0.66844869
H        0.29499075      -1.67054315      -1.30633337
H        3.42179129      -0.65276525       0.76083203
H       -0.85318301       1.84593074       0.92246155
H        0.62711534       1.92242968      -0.07245143
14
Frame=1 idx=007747 GeodesicLength=0.0566143906970529 rxn_smarts="[C:1]([C:2]1=[C:3]([H:11])/[C:4](=[N:5]/[H:12])[O:6][C:7]1([H:13])[H:14])([H:8])([H:9])[H:10]>>[C:1]([C@:2]1([C:3](=[C:4]=[N:5][H:12])[H:11])[O:6][C:7]1([H:13])[H:14])([H:8])([H:9])[H:10]"
C       -1.92132099      -0.30783366      -0.24199217
C       -0.48523274       0.05942056      -0.20798316
C        0.49708991      -0.74726002      -0.76974601
C        1.74670846      -0.55489005      -0.25395623
N        2.92839911      -0.53408853      -0.10616348
O        0.64944609       0.49094129       1.45689122
C       -0.01456692       1.25752709       0.52945524
H       -2.31202896      -0.25738057       0.77664821
H       -2.47292345       0.43116149      -0.82997241
H       -2.10229579      -1.30335382      -0.64488437
H        0.30167845      -1.65082950      -1.32910543
H        3.42496021      -0.66273868       0.76094651
H       -0.85297295       1.84543797       0.93937353
H        0.61305955       1.93388641      -0.07951143
14
Frame=2 idx=007747 GeodesicLength=0.11308668421089195 rxn_smarts="[C:1]([C:2]1=[C:3]([H:11])/[C:4](=[N:5]/[H:12])[O:6][C:7]1([H:13])[H:14])([H:8])([H:9])[H:10]>>[C:1]([C@:2]1([C:3](=[C:4]=[N:5][H:12])[H:11])[O:6][C:7]1([H:13])[H:14])([H:8])([H:9])[H:10]"
C       -1.92143893      -0.30957443      -0.23833015
C       -0.48499185       0.05822430      -0.19826649
C        0.49996257      -0.74053964      -0.77000633
C        1.74405870      -0.55770357      -0.23405664
N        2.93126792      -0.54823790      -0.10774020
O        0.65646493       0.48520987       1.43763544
C       -0.01917243       1.26521320       0.52626051
H       -2.32415106      -0.24032991       0.77443556
H       -2.46667311       0.41546870      -0.84903344
H       -2.09812680      -1.31369505      -0.62142100
H        0.30834026      -1.63132000      -1.35049847
H        3.42746984      -0.67257289       0.76089024
H       -0.85209253       1.84479503       0.95625616
H        0.59908248       1.94506228      -0.08612518
14
Frame=3 idx=007747 GeodesicLength=0.1693626471158758 rxn_smarts="[C:1]([C:2]1=[C:3]([H:11])/[C:4](=[N:5]/[H:12])[O:6][C:7]1([H:13])[H:14])([H:8])([H:9])[H:10]>>[C:1]([C@:2]1([C:3](=[C:4]=[N:5][H:12])[H:11])[O:6][C:7]1([H:13])[H:14])([H:8])([H:9])[H:10]"
C       -1.92153782      -0.31107512      -0.23499870
C       -0.48466788       0.05698140      -0.18876060
C        0.50272454      -0.73423748      -0.77008353
C        1.74131080      -0.56088002      -0.21486912
N        2.93352292      -0.56154139      -0.10968476
O        0.66308049       0.47924065       1.41883397
C       -0.02358960       1.27232660       0.52337898
H       -2.33625877      -0.22329604       0.77138775
H       -2.45998728       0.39972803      -0.86792032
H       -2.09419851      -1.32323860      -0.59838753
H        0.31477643      -1.61249913      -1.37024860
H        3.42970605      -0.68104062       0.76030778
H       -0.85039084       1.84389884       0.97313395
H        0.58550947       1.95563286      -0.09208927
14
Frame=4 idx=007747 GeodesicLength=0.22555089676475626 rxn_smarts="[C:1]([C:2]1=[C:3]([H:11])/[C:4](=[N:5]/[H:12])[O:6][C:7]1([H:13])[H:14])([H:8])([H:9])[H:10]>>[C:1]([C@:2]1([C:3](=[C:4]=[N:5][H:12])[H:11])[O:6][C:7]1([H:13])[H:14])([H:8])([H:9])[H:10]"
C       -1.92153327      -0.31252935      -0.23180259
C       -0.48425258       0.05584835      -0.17951035
C        0.50549535      -0.72794105      -0.77022732
C        1.73863197      -0.56376172      -0.19671687
N        2.93534822      -0.57448853      -0.11167930
O        0.66949411       0.47350997       1.40021290
C       -0.02798768       1.27918920       0.52064706
H       -2.34813915      -0.20647489       0.76775474
H       -2.45304582       0.38357374      -0.88641931
H       -2.09025133      -1.33227369      -0.57546375
H        0.32119336      -1.59394157      -1.38879446
H        3.43129033      -0.68963896       0.75971128
H       -0.84813021       1.84286497       0.98998047
H        0.57188670       1.96606354      -0.09769250
14
Frame=5 idx=007747 GeodesicLength=0.28171327436670607 rxn_smarts="[C:1]([C:2]1=[C:3]([H:11])/[C:4](=[N:5]/[H:12])[O:6][C:7]1([H:13])[H:14])([H:8])([H:9])[H:10]>>[C:1]([C@:2]1([C:3](=[C:4]=[N:5][H:12])[H:11])[O:6][C:7]1([H:13])[H:14])([H:8])([H:9])[H:10]"
C       -1.92135135      -0.31408507      -0.22858877
C       -0.48373223       0.05493121      -0.17053918
C        0.50834344      -0.72135296      -0.77060432
C        1.73609676      -0.56598975      -0.17971754
N        2.93682470      -0.58740386      -0.11350037
O        0.67582582       0.46833305       1.38160065
C       -0.03247086       1.28601516       0.51794613
H       -2.35965300      -0.18995974       0.76371974
H       -2.44594565       0.36669583      -0.90442691
H       -2.08606639      -1.34103526      -0.55232666
H        0.32770486      -1.57522371      -1.40661982
H        3.43193642      -0.69933909       0.75945210
H       -0.84545612       1.84177496       1.00674524
H        0.55794359       1.97663923      -0.10314029
14
Frame=6 idx=007747 GeodesicLength=0.33777996585933234 rxn_smarts="[C:1]([C:2]1=[C:3]([H:11])/[C:4](=[N:5]/[H:12])[O:6][C:7]1([H:13])[H:14])([H:8])([H:9])[H:10]>>[C:1]([C@:2]1([C:3](=[C:4]=[N:5][H:12])[H:11])[O:6][C:7]1([H:13])[H:14])([H:8])([H:9])[H:10]"
C       -1.92110521      -0.31552759      -0.22555562
C       -0.48313858       0.05406609      -0.16180639
C        0.51114262      -0.71489722      -0.77100029
C        1.73356056      -0.56819459      -0.16348772
N        2.93791874      -0.59989035      -0.11544740
O        0.68192045       0.46321402       1.36322629
C       -0.03689117       1.29252083       0.51543521
H       -2.37100077      -0.17356273       0.75906432
H       -2.43856984       0.34953945      -0.92209872
H       -2.08198018      -1.34921167      -0.52936985
H        0.33407641      -1.55692792      -1.42336056
H        3.43216219      -0.70858425       0.75908566
H       -0.84217346       1.84050607       1.02347685
H        0.54407824       1.98694985      -0.10816179
14
Frame=7 idx=007747 GeodesicLength=0.39381537187898175 rxn_smarts="[C:1]([C:2]1=[C:3]([H:11])/[C:4](=[N:5]/[H:12])[O:6][C:7]1([H:13])[H:14])([H:8])([H:9])[H:10]>>[C:1]([C@:2]1([C:3](=[C:4]=[N:5][H:12])[H:11])[O:6][C:7]1([H:13])[H:14])([H:8])([H:9])[H:10]"
C       -1.92075654      -0.31696601      -0.22259139
C       -0.48246275       0.05332814      -0.15331161
C        0.51395164      -0.70836073      -0.77153224
C        1.73110122      -0.57011158      -0.14811586
N        2.93871898      -0.61224871      -0.11735395
O        0.68787821       0.45839313       1.34495095
C       -0.04133362       1.29886835       0.51303384
H       -2.38211954      -0.15734554       0.75390124
H       -2.43099044       0.33187218      -0.93936123
H       -2.07784294      -1.35697328      -0.50634120
H        0.34040790      -1.53872152      -1.43938515
H        3.43178292      -0.71807159       0.75885800
H       -0.83840526       1.83912695       1.04014898
H        0.53007022       1.99721022      -0.11290038
14
Frame=8 idx=007747 GeodesicLength=0.4498529725941023 rxn_smarts="[C:1]([C:2]1=[C:3]([H:11])/[C:4](=[N:5]/[H:12])[O:6][C:7]1([H:13])[H:14])([H:8])([H:9])[H:10]>>[C:1]([C@:2]1([C:3](=[C:4]=[N:5][H:12])[H:11])[O:6][C:7]1([H:13])[H:14])([H:8])([H:9])[H:10]"
C       -1.92024594      -0.31851125      -0.21958896
C       -0.48169428       0.05280272      -0.14508314
C        0.51682495      -0.70149444      -0.77234994
C        1.72876975      -0.57146819      -0.13370563
N        2.93928553      -0.62474227      -0.11906849
O        0.69379371       0.45411107       1.32664406
C       -0.04588676       1.30522171       0.51066571
H       -2.39291618      -0.14136018       0.74835326
H       -2.42328163       0.31343676      -0.95615231
H       -2.07346416      -1.36449622      -0.48298917
H        0.34678566      -1.52028374      -1.45500921
H        3.43060169      -0.72855662       0.75903274
H       -0.83426579       1.83769530       1.05674140
H        0.51569345       2.00764536      -0.11749032
14
Frame=9 idx=007747 GeodesicLength=0.5059471117056406 rxn_smarts="[C:1]([C:2]1=[C:3]([H:11])/[C:4](=[N:5]/[H:12])[O:6][C:7]1([H:13])[H:14])([H:8])([H:9])[H:10]>>[C:1]([C@:2]1([C:3](=[C:4]=[N:5][H:12])[H:11])[O:6][C:7]1([H:13])[H:14])([H:8])([H:9])[H:10]"
C       -1.91952713      -0.32025401      -0.21645646
C       -0.48081876       0.05255645      -0.13712723
C        0.51980366      -0.69411084      -0.77355343
C        1.72659825      -0.57209313      -0.12029717
N        2.93966119      -0.63761387      -0.12046645
O        0.69973978       0.45056898       1.30819208
C       -0.05062322       1.31170795       0.50826644
H       -2.40334662      -0.12565241       0.74250163
H       -2.41548641       0.29400850      -0.97241251
H       -2.06867195      -1.37190508      -0.45908419
H        0.35328146      -1.50128516      -1.47055095
H        3.42846591      -0.74060307       0.75980658
H       -0.82983895       1.83626705       1.07322422
H        0.50076279       2.01840864      -0.12204256
14
Frame=10 idx=007747 GeodesicLength=0.5620951087098293 rxn_smarts="[C:1]([C:2]1=[C:3]([H:11])/[C:4](=[N:5]/[H:12])[O:6][C:7]1([H:13])[H:14])([H:8])([H:9])[H:10]>>[C:1]([C@:2]1([C:3](=[C:4]=[N:5][H:12])[H:11])[O:6][C:7]1([H:13])[H:14])([H:8])([H:9])[H:10]"
C       -1.91854177      -0.32229598      -0.21309658
C       -0.47981431       0.05265459      -0.12945096
C        0.52293693      -0.68602328      -0.77523573
C        1.72464223      -0.57179576      -0.10795204
N        2.93985961      -0.65106304      -0.12143145
O        0.70579136       0.44797155       1.28949322
C       -0.05561376       1.31845526       0.50577524
H       -2.41334740      -0.11027820       0.73643596
H       -2.40763552       0.27336161      -0.98808813
H       -2.06328119      -1.37932171      -0.43441344
H        0.35997218      -1.48140052      -1.48628743
H        3.42514491      -0.75482234       0.76135756
H       -0.82521141       1.83490223       1.08956051
H        0.48509814       2.02965559      -0.12666672
14
Frame=11 idx=007747 GeodesicLength=0.6183037596923981 rxn_smarts="[C:1]([C:2]1=[C:3]([H:11])/[C:4](=[N:5]/[H:12])[O:6][C:7]1([H:13])[H:14])([H:8])([H:9])[H:10]>>[C:1]([C@:2]1([C:3](=[C:4]=[N:5][H:12])[H:11])[O:6][C:7]1([H:13])[H:14])([H:8])([H:9])[H:10]"
C       -1.91738549      -0.32445555      -0.20968111
C       -0.47870787       0.05297909      -0.12204617
C        0.52612344      -0.67756929      -0.77723440
C        1.72276598      -0.57110134      -0.09636818
N        2.93983446      -0.66488259      -0.12218493
O        0.71181244       0.44590469       1.27070366
C       -0.06072971       1.32523030       0.50331094
H       -2.42306869      -0.09513772       0.72995932
H       -2.39964828       0.25186646      -1.00324605
H       -2.05758710      -1.38646650      -0.40931254
H        0.36666994      -1.46109970      -1.50190044
H        3.42107816      -0.76982749       0.76334296
H       -0.82019913       1.83350130       1.10579130
H        0.46904187       2.04105832      -0.13113437
14
Frame=12 idx=007747 GeodesicLength=0.6745962371594684 rxn_smarts="[C:1]([C:2]1=[C:3]([H:11])/[C:4](=[N:5]/[H:12])[O:6][C:7]1([H:13])[H:14])([H:8])([H:9])[H:10]>>[C:1]([C@:2]1([C:3](=[C:4]=[N:5][H:12])[H:11])[O:6][C:7]1([H:13])[H:14])([H:8])([H:9])[H:10]"
C       -1.91599528      -0.32684297      -0.20611321
C       -0.47747912       0.05360413      -0.11492762
C        0.52941262      -0.66853538      -0.77967608
C        1.72101754      -0.56978484      -0.08565770
N        2.93962150      -0.67926072      -0.12260034
O        0.71789842       0.44461722       1.25169478
C       -0.06605723       1.33219226       0.50081538
H       -2.43245606      -0.08030364       0.72315289
H       -2.39155758       0.22926918      -1.01781955
H       -2.05138315      -1.39347299      -0.38354745
H        0.37345654      -1.44006462      -1.51765446
H        3.41606302      -0.78637991       0.76599368
H       -0.81490000       1.83213293       1.12190372
H        0.45235877       2.05282936      -0.13556403
14
Frame=13 idx=007747 GeodesicLength=0.7309409703571419 rxn_smarts="[C:1]([C:2]1=[C:3]([H:11])/[C:4](=[N:5]/[H:12])[O:6][C:7]1([H:13])[H:14])([H:8])([H:9])[H:10]>>[C:1]([C@:2]1([C:3](=[C:4]=[N:5][H:12])[H:11])[O:6][C:7]1([H:13])[H:14])([H:8])([H:9])[H:10]"
C       -1.91425621      -0.32959514      -0.20226959
C       -0.47606877       0.05463824      -0.10809022
C        0.53291271      -0.65864031      -0.78262005
C        1.71953297      -0.56743877      -0.07591789
N        2.93914748      -0.69436614      -0.12255370
O        0.72413928       0.44438521       1.23236837
C       -0.07168752       1.33948678       0.49820658
H       -2.44140245      -0.06583527       0.71612555
H       -2.38334248       0.20523656      -1.03178212
H       -2.04434963      -1.40051824      -0.35681578
H        0.38049733      -1.41787918      -1.53377073
H        3.40950884      -0.80547176       0.76937619
H       -0.80944814       1.83086492       1.13781683
H        0.43481659       2.06513310      -0.14007345
14
Frame=14 idx=007747 GeodesicLength=0.7873860360689717 rxn_smarts="[C:1]([C:2]1=[C:3]([H:11])/[C:4](=[N:5]/[H:12])[O:6][C:7]1([H:13])[H:14])([H:8])([H:9])[H:10]>>[C:1]([C@:2]1([C:3](=[C:4]=[N:5][H:12])[H:11])[O:6][C:7]1([H:13])[H:14])([H:8])([H:9])[H:10]"
C       -1.91226056      -0.33256863      -0.19828726
C       -0.47451760       0.05598136      -0.10155402
C        0.53651104      -0.64815960      -0.78600553
C        1.71815271      -0.56455588      -0.06695163
N        2.93842367      -0.71012218      -0.12219074
O        0.73044404       0.44490194       1.21280158
C       -0.07752090       1.34695669       0.49558014
H       -2.45002223      -0.05173134       0.70873537
H       -2.37497690       0.18010826      -1.04510766
H       -2.03676426      -1.40734721      -0.32945250
H        0.38759650      -1.39495003      -1.55003075
H        3.40195375      -0.82590828       0.77337209
H       -0.80367609       1.82963200       1.15359233
H        0.41665683       2.07776291      -0.14450143
14
Frame=15 idx=007747 GeodesicLength=0.843886000757537 rxn_smarts="[C:1]([C:2]1=[C:3]([H:11])/[C:4](=[N:5]/[H:12])[O:6][C:7]1([H:13])[H:14])([H:8])([H:9])[H:10]>>[C:1]([C@:2]1([C:3](=[C:4]=[N:5][H:12])[H:11])[O:6][C:7]1([H:13])[H:14])([H:8])([H:9])[H:10]"
C       -1.90999936      -0.33573725      -0.19419433
C       -0.47281020       0.05762455      -0.09532706
C        0.54021907      -0.63713774      -0.78979270
C        1.71689181      -0.56115939      -0.05870517
N        2.93739849      -0.72642633      -0.12154662
O        0.73679290       0.44611492       1.19301239
C       -0.08353655       1.35457335       0.49294496
H       -2.45828921      -0.03807518       0.70099565
H       -2.36645318       0.15401015      -1.05774120
H       -2.02864137      -1.41388950      -0.30160690
H        0.39474891      -1.37143417      -1.56629587
H        3.39330984      -0.84755668       0.77787398
H       -0.79756879       1.82842937       1.16919264
H        0.39793764       2.09066390      -0.14880976
14
Frame=16 idx=007747 GeodesicLength=0.9003966747119876 rxn_smarts="[C:1]([C:2]1=[C:3]([H:11])/[C:4](=[N:5]/[H:12])[O:6][C:7]1([H:13])[H:14])([H:8])([H:9])[H:10]>>[C:1]([C@:2]1([C:3](=[C:4]=[N:5][H:12])[H:11])[O:6][C:7]1([H:13])[H:14])([H:8])([H:9])[H:10]"
C       -1.90752960      -0.33900235      -0.19008314
C       -0.47096547       0.05948637      -0.08938817
C        0.54398451      -0.62579043      -0.79386393
C        1.71568123      -0.55752835      -0.05100686
N        2.93602939      -0.74305022      -0.12074693
O        0.74310648       0.44778402       1.17311262
C       -0.08964985       1.36220485       0.49036823
H       -2.46627002      -0.02482381       0.69282919
H       -2.35772022       0.12720020      -1.06972410
H       -2.02016923      -1.41999857      -0.27350522
H        0.40187092      -1.34763896      -1.58237706
H        3.38379606      -0.86969771       0.78265683
H       -0.79104255       1.82721276       1.18460850
H        0.37887835       2.10364220      -0.15287995
