9
Frame=0 idx=005690 GeodesicLength=0.0 rxn_smarts="[O:1]([C@@:2]([C:3]#[C:4][H:9])([C:5]#[N:6])[H:8])[H:7]>>[O:1]([C@@:2]([C:4](=[C:3])[H:9])([C:5]#[N:6])[H:8])[H:7]"
O       -0.70276917       1.40351130      -0.03876973
C       -0.25484712       0.11100675      -0.17316840
C        1.21985950      -0.00386611       0.81951894
C        1.51812950      -0.18059518      -0.38297729
C       -1.07303508      -0.90078487       0.50892944
N       -1.74792321      -1.68172748       1.00765481
H       -0.54792837       1.68325544       0.87029009
H       -0.33019969      -0.12003190      -1.24357156
H        1.91871365      -0.31076793      -1.36790630
9
Frame=1 idx=005690 GeodesicLength=0.04324577954980827 rxn_smarts="[O:1]([C@@:2]([C:3]#[C:4][H:9])([C:5]#[N:6])[H:8])[H:7]>>[O:1]([C@@:2]([C:4](=[C:3])[H:9])([C:5]#[N:6])[H:8])[H:7]"
O       -0.69683008       1.39634990      -0.04919449
C       -0.25871288       0.09754548      -0.17490926
C        1.22320312      -0.03862296       0.81534921
C        1.52189402      -0.19994713      -0.38767818
C       -1.08899831      -0.89716614       0.51990228
N       -1.76882274      -1.66682472       1.02937770
H       -0.53848749       1.68251119       0.85714863
H       -0.34755514      -0.14102523      -1.24259977
H        1.95430950      -0.23282041      -1.36739612
9
Frame=2 idx=005690 GeodesicLength=0.08547374372581751 rxn_smarts="[O:1]([C@@:2]([C:3]#[C:4][H:9])([C:5]#[N:6])[H:8])[H:7]>>[O:1]([C@@:2]([C:4](=[C:3])[H:9])([C:5]#[N:6])[H:8])[H:7]"
O       -0.69231536       1.38963307      -0.05832851
C       -0.26291832       0.08530228      -0.17745369
C        1.22692649      -0.07253834       0.80848806
C        1.52543280      -0.21503425      -0.39539436
C       -1.10323422      -0.89384030       0.52949126
N       -1.78691627      -1.65231227       1.05038148
H       -0.52961418       1.68118390       0.84531431
H       -0.36611497      -0.15932515      -1.24234006
H        1.98875403      -0.16306894      -1.36015850
9
Frame=3 idx=005690 GeodesicLength=0.12761484636389914 rxn_smarts="[O:1]([C@@:2]([C:3]#[C:4][H:9])([C:5]#[N:6])[H:8])[H:7]>>[O:1]([C@@:2]([C:4](=[C:3])[H:9])([C:5]#[N:6])[H:8])[H:7]"
O       -0.68880708       1.38323406      -0.06686612
C       -0.26726935       0.07378476      -0.18053424
C        1.23104120      -0.10627575       0.79991333
C        1.52931642      -0.22729072      -0.40498695
C       -1.11629432      -0.89060035       0.53842626
N       -1.80315940      -1.63812597       1.07081537
H       -0.52105527       1.67967594       0.83411550
H       -0.38541979      -0.17601237      -1.24260850
H        2.02164760      -0.09838960      -1.34827466
9
Frame=4 idx=005690 GeodesicLength=0.16930801455865088 rxn_smarts="[O:1]([C@@:2]([C:3]#[C:4][H:9])([C:5]#[N:6])[H:8])[H:7]>>[O:1]([C@@:2]([C:4](=[C:3])[H:9])([C:5]#[N:6])[H:8])[H:7]"
O       -0.68660887       1.37738565      -0.07447255
C       -0.27190006       0.06335343      -0.18409539
C        1.23527315      -0.13917214       0.78960115
C        1.53317824      -0.23620301      -0.41617682
C       -1.12817772      -0.88740829       0.54655317
N       -1.81699881      -1.62468421       1.09056570
H       -0.51334015       1.67803532       0.82389467
H       -0.40551705      -0.19057887      -1.24326580
H        2.05409127      -0.04072789      -1.33260413
9
Frame=5 idx=005690 GeodesicLength=0.21089878043129986 rxn_smarts="[O:1]([C@@:2]([C:3]#[C:4][H:9])([C:5]#[N:6])[H:8])[H:7]>>[O:1]([C@@:2]([C:4](=[C:3])[H:9])([C:5]#[N:6])[H:8])[H:7]"
O       -0.68505220       1.37167951      -0.08183888
C       -0.27666985       0.05330038      -0.18802865
C        1.23964257      -0.17230430       0.77783417
C        1.53723647      -0.24306359      -0.42853193
C       -1.13928452      -0.88423458       0.55442887
N       -1.82960165      -1.61137360       1.11007175
H       -0.50564581       1.67631365       0.81381557
H       -0.42625220      -0.20426666      -1.24411499
H        2.08562718       0.01394919      -1.31363591
9
Frame=6 idx=005690 GeodesicLength=0.25215081468982203 rxn_smarts="[O:1]([C@@:2]([C:3]#[C:4][H:9])([C:5]#[N:6])[H:8])[H:7]>>[O:1]([C@@:2]([C:4](=[C:3])[H:9])([C:5]#[N:6])[H:8])[H:7]"
O       -0.68407161       1.36618462      -0.08898339
C       -0.28148708       0.04368330      -0.19223016
C        1.24411908      -0.20542879       0.76480187
C        1.54155598      -0.24797874      -0.44164125
C       -1.14955984      -0.88098937       0.56212923
N       -1.84090595      -1.59840323       1.12901759
H       -0.49807660       1.67465051       0.80384602
H       -0.44740666      -0.21711590      -1.24501169
H        2.11583268       0.06539762      -1.29192823
9
Frame=7 idx=005690 GeodesicLength=0.2933502363333187 rxn_smarts="[O:1]([C@@:2]([C:3]#[C:4][H:9])([C:5]#[N:6])[H:8])[H:7]>>[O:1]([C@@:2]([C:4](=[C:3])[H:9])([C:5]#[N:6])[H:8])[H:7]"
O       -0.68416719       1.36108225      -0.09563027
C       -0.28666006       0.03476606      -0.19679823
C        1.24850149      -0.23829689       0.75020552
C        1.54573134      -0.25047449      -0.45572147
C       -1.15913780      -0.87769450       0.56949971
N       -1.85041322      -1.58598013       1.14782595
H       -0.49114363       1.67301395       0.79433462
H       -0.46934121      -0.22867036      -1.24608063
H        2.14663027       0.11225410      -1.26763519
9
Frame=8 idx=005690 GeodesicLength=0.3343772695149798 rxn_smarts="[O:1]([C@@:2]([C:3]#[C:4][H:9])([C:5]#[N:6])[H:8])[H:7]>>[O:1]([C@@:2]([C:4](=[C:3])[H:9])([C:5]#[N:6])[H:8])[H:7]"
O       -0.68468964       1.35608987      -0.10223987
C       -0.29190436       0.02608555      -0.20163154
C        1.25289950      -0.27151720       0.73431369
C        1.55015196      -0.25136278      -0.47029009
C       -1.16807861      -0.87433328       0.57683969
N       -1.85894354      -1.57368892       1.16640481
H       -0.48412644       1.67143696       0.78469271
H       -0.49165141      -0.23974084      -1.24714596
H        2.17634253       0.15703062      -1.24094343
9
Frame=9 idx=005690 GeodesicLength=0.3752381945405101 rxn_smarts="[O:1]([C@@:2]([C:3]#[C:4][H:9])([C:5]#[N:6])[H:8])[H:7]>>[O:1]([C@@:2]([C:4](=[C:3])[H:9])([C:5]#[N:6])[H:8])[H:7]"
O       -0.68640429       1.35164997      -0.10829338
C       -0.29750010       0.01828113      -0.20673115
C        1.25715353      -0.30389930       0.71701447
C        1.55439207      -0.24985684      -0.48532778
C       -1.17628326      -0.87087410       0.58390580
N       -1.86549574      -1.56235133       1.18458142
H       -0.47816691       1.67006626       0.77560716
H       -0.51461765      -0.24941414      -1.24824761
H        2.20692236       0.19639834      -1.21250893
9
Frame=10 idx=005690 GeodesicLength=0.4159820296105268 rxn_smarts="[O:1]([C@@:2]([C:3]#[C:4][H:9])([C:5]#[N:6])[H:8])[H:7]>>[O:1]([C@@:2]([C:4](=[C:3])[H:9])([C:5]#[N:6])[H:8])[H:7]"
O       -0.68867176       1.34732832      -0.11429309
C       -0.30322457       0.01073433      -0.21205446
C        1.26131785      -0.33669068       0.69833573
C        1.55880805      -0.24644974      -0.50056471
C       -1.18390632      -0.86736452       0.59099088
N       -1.87109804      -1.55120698       1.20261554
H       -0.47218777       1.66880372       0.76634384
H       -0.53795113      -0.25863367      -1.24925760
H        2.23691370       0.23347922      -1.18211613
9
Frame=11 idx=005690 GeodesicLength=0.45663696558974287 rxn_smarts="[O:1]([C@@:2]([C:3]#[C:4][H:9])([C:5]#[N:6])[H:8])[H:7]>>[O:1]([C@@:2]([C:4](=[C:3])[H:9])([C:5]#[N:6])[H:8])[H:7]"
O       -0.69192125       1.34345625      -0.11995777
C       -0.30923676       0.00386702      -0.21762750
C        1.26531075      -0.36892113       0.67826861
C        1.56315402      -0.24103459      -0.51593576
C       -1.19087865      -0.86375929       0.59793170
N       -1.87502905      -1.54083180       1.22039709
H       -0.46707775       1.66778310       0.75737135
H       -0.56178346      -0.26683463      -1.25024555
H        2.26746216       0.26627507      -1.15020216
9
Frame=12 idx=005690 GeodesicLength=0.4971713899522039 rxn_smarts="[O:1]([C@@:2]([C:3]#[C:4][H:9])([C:5]#[N:6])[H:8])[H:7]>>[O:1]([C@@:2]([C:4](=[C:3])[H:9])([C:5]#[N:6])[H:8])[H:7]"
O       -0.69571989       1.33970337      -0.12560256
C       -0.31538896      -0.00274729      -0.22342228
C        1.26914646      -0.40157227       0.65670281
C        1.56765853      -0.23371502      -0.53118254
C       -1.19729076      -0.86008522       0.60490078
N       -1.87796860      -1.53067212       1.23809248
H       -0.46194217       1.66691409       0.74813889
H       -0.58593218      -0.27465690      -1.25110272
H        2.29743758       0.29683138      -1.11652487
9
Frame=13 idx=005690 GeodesicLength=0.5376750575651583 rxn_smarts="[O:1]([C@@:2]([C:3]#[C:4][H:9])([C:5]#[N:6])[H:8])[H:7]>>[O:1]([C@@:2]([C:4](=[C:3])[H:9])([C:5]#[N:6])[H:8])[H:7]"
O       -0.70041662       1.33630523      -0.13104988
C       -0.32177888      -0.00881953      -0.22943454
C        1.27278710      -0.43396513       0.63367472
C        1.57220182      -0.22433906      -0.54616378
C       -1.20307174      -0.85633675       0.61182626
N       -1.87948396      -1.52114121       1.25559492
H       -0.45746838       1.66633001       0.73896139
H       -0.61044706      -0.28174579      -1.25186839
H        2.32767773       0.32371222      -1.08154069
9
Frame=14 idx=005690 GeodesicLength=0.5781264667951465 rxn_smarts="[O:1]([C@@:2]([C:3]#[C:4][H:9])([C:5]#[N:6])[H:8])[H:7]>>[O:1]([C@@:2]([C:4](=[C:3])[H:9])([C:5]#[N:6])[H:8])[H:7]"
O       -0.70625990       1.33338837      -0.13616601
C       -0.32846444      -0.01414024      -0.23564034
C        1.27619048      -0.46549529       0.60922480
C        1.57668519      -0.21268059      -0.56067993
C       -1.20815062      -0.85253870       0.61862968
N       -1.87928445      -1.51253048       1.27278112
H       -0.45417913       1.66610726       0.73004685
H       -0.63533368      -0.28787670      -1.25251002
H        2.35879654       0.34576637      -1.04568614
9
Frame=15 idx=005690 GeodesicLength=0.6185227965737506 rxn_smarts="[O:1]([C@@:2]([C:3]#[C:4][H:9])([C:5]#[N:6])[H:8])[H:7]>>[O:1]([C@@:2]([C:4](=[C:3])[H:9])([C:5]#[N:6])[H:8])[H:7]"
O       -0.71270933       1.33062941      -0.14128038
C       -0.33529547      -0.01917517      -0.24207474
C        1.27936314      -0.49737586       0.58310604
C        1.58136544      -0.19906419      -0.57447440
C       -1.21265469      -0.84868191       0.62545031
N       -1.87800981      -1.50417867       1.28993599
H       -0.45099338       1.66611495       0.72082905
H       -0.66043709      -0.29367671      -1.25301111
H        2.38937120       0.36540816      -1.00848075
9
Frame=16 idx=005690 GeodesicLength=0.658965364149555 rxn_smarts="[O:1]([C@@:2]([C:3]#[C:4][H:9])([C:5]#[N:6])[H:8])[H:7]>>[O:1]([C@@:2]([C:4](=[C:3])[H:9])([C:5]#[N:6])[H:8])[H:7]"
O       -0.72050472       1.32838113      -0.14605819
C       -0.34243017      -0.02338816      -0.24865260
C        1.28226605      -0.52819690       0.55555065
C        1.58602730      -0.18279348      -0.58723275
C       -1.21641834      -0.84480904       0.63216254
N       -1.87497937      -1.49688439       1.30669363
H       -0.44925955       1.66660471       0.71185902
H       -0.68579289      -0.29856384      -1.25333936
H        2.42109170       0.37964996      -0.97098294
