14
Frame=0 idx=010523 GeodesicLength=0.0 rxn_smarts="[C:1](/[C:2](=[N:3]\[H:11])[O:4][C:5]([C:6](=[O:7])[H:14])([H:12])[H:13])([H:8])([H:9])[H:10]>>[C:1]([C:2]([N:3]([C:5]([C:6](=[O:7])[H:14])([H:12])[H:13])[H:11])=[O:4])([H:8])([H:9])[H:10]"
C       -2.36024039      -0.12441499      -0.06978448
C       -0.86927641      -0.24976948       0.08240081
N       -0.00677393       0.45292990      -0.58691052
O       -0.38653961      -1.08429495       0.88221715
C        1.52741766      -0.56552838       0.38167698
C        2.25260591       0.67853038       0.00216847
O        2.71231585       1.44385524       0.80491546
H       -2.80104803       0.05633780       0.90996213
H       -2.64465272       0.67509242      -0.75009523
H       -2.75570855      -1.07033482      -0.44020927
H       -0.29830693       1.16632680      -1.24142746
H        1.65250112      -0.81970731       1.42674064
H        1.61212878      -1.39077594      -0.31359970
H        2.36557728       0.83175338      -1.08805500
14
Frame=1 idx=010523 GeodesicLength=0.07256398396444046 rxn_smarts="[C:1](/[C:2](=[N:3]\[H:11])[O:4][C:5]([C:6](=[O:7])[H:14])([H:12])[H:13])([H:8])([H:9])[H:10]>>[C:1]([C:2]([N:3]([C:5]([C:6](=[O:7])[H:14])([H:12])[H:13])[H:11])=[O:4])([H:8])([H:9])[H:10]"
C       -2.36997477      -0.13934866      -0.08685832
C       -0.87967339      -0.26269159       0.06797486
N       -0.01449032       0.49802124      -0.53183315
O       -0.39374614      -1.12674522       0.83559368
C        1.50850082      -0.53947010       0.40541777
C        2.28150033       0.65785216      -0.03239053
O        2.79503321       1.42941264       0.73043322
H       -2.81857742      -0.00540407       0.89703359
H       -2.65403259       0.68774238      -0.73369385
H       -2.75581952      -1.07113932      -0.50106171
H       -0.31576346       1.24096760      -1.14778374
H        1.63141218      -0.74310679       1.46233379
H        1.62997328      -1.40473947      -0.23491831
H        2.35565780       0.77864920      -1.13024730
14
Frame=2 idx=010523 GeodesicLength=0.14165511266258468 rxn_smarts="[C:1](/[C:2](=[N:3]\[H:11])[O:4][C:5]([C:6](=[O:7])[H:14])([H:12])[H:13])([H:8])([H:9])[H:10]>>[C:1]([C:2]([N:3]([C:5]([C:6](=[O:7])[H:14])([H:12])[H:13])[H:11])=[O:4])([H:8])([H:9])[H:10]"
C       -2.37704779      -0.15459173      -0.10646763
C       -0.88735366      -0.27103055       0.05482771
N       -0.02304833       0.54505244      -0.47002841
O       -0.39732478      -1.16155579       0.79091787
C        1.49098427      -0.51455746       0.42725468
C        2.30613259       0.63313938      -0.06952649
O        2.87534076       1.40563090       0.65133927
H       -2.83590679      -0.06846385       0.87821884
H       -2.66234213       0.69736106      -0.71982226
H       -2.74913325      -1.07173586      -0.56405156
H       -0.33465552       1.31700387      -1.04346417
H        1.61048605      -0.66319148       1.49428333
H        1.64723863      -1.41824322      -0.15098107
H        2.33662996       0.72518231      -1.17250010
14
Frame=3 idx=010523 GeodesicLength=0.20742222328979787 rxn_smarts="[C:1](/[C:2](=[N:3]\[H:11])[O:4][C:5]([C:6](=[O:7])[H:14])([H:12])[H:13])([H:8])([H:9])[H:10]>>[C:1]([C:2]([N:3]([C:5]([C:6](=[O:7])[H:14])([H:12])[H:13])[H:11])=[O:4])([H:8])([H:9])[H:10]"
C       -2.38044652      -0.16745218      -0.12670602
C       -0.89131701      -0.27728198       0.04069448
N       -0.03102063       0.58960041      -0.40494375
O       -0.39696636      -1.19303255       0.74444826
C        1.47564481      -0.49280609       0.44713729
C        2.32566111       0.60451111      -0.10762848
O        2.93926913       1.38110147       0.57084875
H       -2.84882875      -0.12945598       0.85670974
H       -2.66777945       0.70801089      -0.70522572
H       -2.73871575      -1.06780669      -0.62699637
H       -0.35319106       1.38771330      -0.93466499
H        1.59074281      -0.58296110       1.52177117
H        1.66648415      -1.43158730      -0.06245612
H        2.31046353       0.67144670      -1.21298826
14
Frame=4 idx=010523 GeodesicLength=0.2718382873132225 rxn_smarts="[C:1](/[C:2](=[N:3]\[H:11])[O:4][C:5]([C:6](=[O:7])[H:14])([H:12])[H:13])([H:8])([H:9])[H:10]>>[C:1]([C:2]([N:3]([C:5]([C:6](=[O:7])[H:14])([H:12])[H:13])[H:11])=[O:4])([H:8])([H:9])[H:10]"
C       -2.38135717      -0.17876003      -0.14733773
C       -0.89273243      -0.28096156       0.02616736
N       -0.03962629       0.63098294      -0.33794402
O       -0.39327153      -1.22113674       0.69575418
C        1.46158587      -0.47217744       0.46592442
C        2.33849069       0.57549260      -0.14533763
O        2.99920833       1.34932058       0.49026644
H       -2.85857554      -0.18902238       0.83267767
H       -2.67186828       0.71839607      -0.69013547
H       -2.72526911      -1.06060279      -0.68923360
H       -0.37256892       1.45081264      -0.82565788
H        1.57203048      -0.50179197       1.54500794
H        1.68671287      -1.44115810       0.03030940
H        2.27724103       0.62060618      -1.25046107
14
Frame=5 idx=010523 GeodesicLength=0.33567109159257624 rxn_smarts="[C:1](/[C:2](=[N:3]\[H:11])[O:4][C:5]([C:6](=[O:7])[H:14])([H:12])[H:13])([H:8])([H:9])[H:10]>>[C:1]([C:2]([N:3]([C:5]([C:6](=[O:7])[H:14])([H:12])[H:13])[H:11])=[O:4])([H:8])([H:9])[H:10]"
C       -2.37946057      -0.18783494      -0.16816343
C       -0.89143523      -0.28198576       0.01234398
N       -0.04785086       0.66810374      -0.27002958
O       -0.38618425      -1.24662194       0.64448578
C        1.44901186      -0.45368024       0.48435358
C        2.34596020       0.54434494      -0.18301032
O        3.04751970       1.31654346       0.40894393
H       -2.86513726      -0.24756410       0.80609306
H       -2.67396726       0.72989698      -0.67334134
H       -2.70843447      -1.04866552      -0.75178277
H       -0.39174779       1.50669546      -0.71573096
H        1.55608918      -0.42143848       1.56430169
H        1.70697662      -1.44722598       0.12704999
H        2.23866012       0.56943239      -1.28551361
14
Frame=6 idx=010523 GeodesicLength=0.400181020267785 rxn_smarts="[C:1](/[C:2](=[N:3]\[H:11])[O:4][C:5]([C:6](=[O:7])[H:14])([H:12])[H:13])([H:8])([H:9])[H:10]>>[C:1]([C:2]([N:3]([C:5]([C:6](=[O:7])[H:14])([H:12])[H:13])[H:11])=[O:4])([H:8])([H:9])[H:10]"
C       -2.37567320      -0.19544958      -0.18892136
C       -0.88830714      -0.28065261      -0.00083571
N       -0.05631734       0.70071652      -0.20321031
O       -0.37572043      -1.26947845       0.58973819
C        1.43730795      -0.43554769       0.50328287
C        2.34808069       0.51268966      -0.21980335
O        3.09145828       1.27856374       0.32735778
H       -2.86901858      -0.30620334       0.77717343
H       -2.67545148       0.74161078      -0.65425693
H       -2.68906230      -1.03263751      -0.81429019
H       -0.41175166       1.55546751      -0.60634465
H        1.54253136      -0.34069291       1.58032958
H        1.72609649      -1.44735676       0.22730588
H        2.19582736       0.51897064      -1.31752524
14
Frame=7 idx=010523 GeodesicLength=0.46591914662331707 rxn_smarts="[C:1](/[C:2](=[N:3]\[H:11])[O:4][C:5]([C:6](=[O:7])[H:14])([H:12])[H:13])([H:8])([H:9])[H:10]>>[C:1]([C:2]([N:3]([C:5]([C:6](=[O:7])[H:14])([H:12])[H:13])[H:11])=[O:4])([H:8])([H:9])[H:10]"
C       -2.36991166      -0.20116787      -0.20889024
C       -0.88328328      -0.27753883      -0.01376333
N       -0.06431801       0.72836264      -0.13964804
O       -0.36133847      -1.29017882       0.52967937
C        1.42626491      -0.41787408       0.52323701
C        2.34610319       0.47929384      -0.25507052
O        3.12627929       1.23954296       0.24642106
H       -2.86918219      -0.36515437       0.74671842
H       -2.67647345       0.75415543      -0.63090994
H       -2.66784311      -1.01118653      -0.87640737
H       -0.43212299       1.59685331      -0.49879398
H        1.53141135      -0.26021065       1.59350671
H        1.74323150      -1.44133836       0.33015098
H        2.15118293       0.46644132      -1.34623012
14
Frame=8 idx=010523 GeodesicLength=0.5331256087856139 rxn_smarts="[C:1](/[C:2](=[N:3]\[H:11])[O:4][C:5]([C:6](=[O:7])[H:14])([H:12])[H:13])([H:8])([H:9])[H:10]>>[C:1]([C:2]([N:3]([C:5]([C:6](=[O:7])[H:14])([H:12])[H:13])[H:11])=[O:4])([H:8])([H:9])[H:10]"
C       -2.36354840      -0.20637486      -0.22688438
C       -0.87735086      -0.27294687      -0.02753760
N       -0.07277316       0.75186407      -0.08191806
O       -0.34297405      -1.30751080       0.46373042
C        1.41515143      -0.39859277       0.54391875
C        2.34111654       0.44652735      -0.28682691
O        3.16119116       1.19276804       0.16967530
H       -2.86552197      -0.42467977       0.71655401
H       -2.67912350       0.76523984      -0.60284724
H       -2.64708171      -0.98633612      -0.93542202
H       -0.45386242       1.63063473      -0.39836911
H        1.52142536      -0.17933428       1.60377807
H        1.75591822      -1.42741623       0.43238457
H        2.10743336       0.41615766      -1.37023580
14
Frame=9 idx=010523 GeodesicLength=0.6023934932235503 rxn_smarts="[C:1](/[C:2](=[N:3]\[H:11])[O:4][C:5]([C:6](=[O:7])[H:14])([H:12])[H:13])([H:8])([H:9])[H:10]>>[C:1]([C:2]([N:3]([C:5]([C:6](=[O:7])[H:14])([H:12])[H:13])[H:11])=[O:4])([H:8])([H:9])[H:10]"
C       -2.35685898      -0.21191178      -0.24334909
C       -0.87091308      -0.26656436      -0.04101208
N       -0.08203764       0.77283677      -0.02925498
O       -0.32079458      -1.31983089       0.39428205
C        1.40379931      -0.37695489       0.56516363
C        2.33403865       0.41431464      -0.31534538
O        3.19854109       1.13565913       0.09680135
H       -2.85900515      -0.48561624       0.68563054
H       -2.68388721       0.77348814      -0.57099445
H       -2.62603091      -0.95925701      -0.99176011
H       -0.47784015       1.65877594      -0.30336787
H        1.51356670      -0.09762831       1.61105781
H        1.76252284      -1.40604093       0.53233646
H        2.06489911       0.36872980      -1.39018789
14
Frame=10 idx=010523 GeodesicLength=0.6735789934835057 rxn_smarts="[C:1](/[C:2](=[N:3]\[H:11])[O:4][C:5]([C:6](=[O:7])[H:14])([H:12])[H:13])([H:8])([H:9])[H:10]>>[C:1]([C:2]([N:3]([C:5]([C:6](=[O:7])[H:14])([H:12])[H:13])[H:11])=[O:4])([H:8])([H:9])[H:10]"
C       -2.34916630      -0.21710182      -0.25875487
C       -0.86363008      -0.25851327      -0.05319116
N       -0.09095082       0.79169761       0.01817086
O       -0.29489168      -1.32663297       0.32307030
C        1.39240394      -0.35397610       0.58684831
C        2.32608645       0.37970288      -0.34143635
O        3.23047031       1.07522735       0.02689928
H       -2.84942580      -0.54847183       0.65251592
H       -2.69002038       0.77958119      -0.53455242
H       -2.60347149      -0.92824517      -1.04678521
H       -0.50353689       1.68229431      -0.21047315
H        1.50875820      -0.01561638       1.61508503
H        1.76288565      -1.37928685       0.62974943
H        2.02448890       0.31934106      -1.40714598
14
Frame=11 idx=010523 GeodesicLength=0.747111035252758 rxn_smarts="[C:1](/[C:2](=[N:3]\[H:11])[O:4][C:5]([C:6](=[O:7])[H:14])([H:12])[H:13])([H:8])([H:9])[H:10]>>[C:1]([C:2]([N:3]([C:5]([C:6](=[O:7])[H:14])([H:12])[H:13])[H:11])=[O:4])([H:8])([H:9])[H:10]"
C       -2.34156360      -0.22389825      -0.27239808
C       -0.85642643      -0.24907005      -0.06511872
N       -0.10156682       0.80989219       0.06120410
O       -0.26648107      -1.32655606       0.25313166
C        1.38040493      -0.32756873       0.60711039
C        2.31731300       0.34780070      -0.36371780
O        3.26941700       0.99823914      -0.03603513
H       -2.83712548      -0.61089328       0.61946791
H       -2.69835528       0.78007183      -0.49719466
H       -2.58150421      -0.89824193      -1.09662325
H       -0.53236144       1.70127059      -0.12413601
H        1.50599841       0.06650946       1.61487418
H        1.75578130      -1.34638221       0.71981204
H        1.98646969       0.27882661      -1.42037664
14
Frame=12 idx=010523 GeodesicLength=0.8219157499087065 rxn_smarts="[C:1](/[C:2](=[N:3]\[H:11])[O:4][C:5]([C:6](=[O:7])[H:14])([H:12])[H:13])([H:8])([H:9])[H:10]>>[C:1]([C:2]([N:3]([C:5]([C:6](=[O:7])[H:14])([H:12])[H:13])[H:11])=[O:4])([H:8])([H:9])[H:10]"
C       -2.33300066      -0.23081056      -0.28633334
C       -0.84894881      -0.23841583      -0.07373901
N       -0.11223480       0.82734251       0.10188604
O       -0.23674044      -1.32045065       0.18973877
C        1.36898859      -0.29979329       0.62632238
C        2.30817015       0.31445096      -0.38462264
O        3.30381580       0.91623494      -0.09618503
H       -2.82366442      -0.67281823       0.58256302
H       -2.70707227       0.77707573      -0.46021470
H       -2.55688600      -0.86670471      -1.14508548
H       -0.56346295       1.71645276      -0.03670780
H        1.50800807       0.14789176       1.61037136
H        1.74350528      -1.31015696       0.80399711
H        1.94952246       0.23970158      -1.43199068
14
Frame=13 idx=010523 GeodesicLength=0.8976335383597885 rxn_smarts="[C:1](/[C:2](=[N:3]\[H:11])[O:4][C:5]([C:6](=[O:7])[H:14])([H:12])[H:13])([H:8])([H:9])[H:10]>>[C:1]([C:2]([N:3]([C:5]([C:6](=[O:7])[H:14])([H:12])[H:13])[H:11])=[O:4])([H:8])([H:9])[H:10]"
C       -2.32388538      -0.23793701      -0.30004843
C       -0.84130409      -0.22717477      -0.08088959
N       -0.12318726       0.84404437       0.13974469
O       -0.20651878      -1.30951166       0.13270128
C        1.35814962      -0.27067846       0.64348617
C        2.29929690       0.28081543      -0.40372090
O        3.33516792       0.82827405      -0.15138982
H       -2.80856144      -0.73230133       0.54384063
H       -2.71609710       0.77047799      -0.42464960
H       -2.53167370      -0.83515822      -1.19020874
H       -0.59655372       1.72731396       0.05044739
H        1.51330471       0.22795337       1.60104670
H        1.72710243      -1.27105115       0.88165860
H        1.91475989       0.20493342      -1.44201837
14
Frame=14 idx=010523 GeodesicLength=0.9741462247475181 rxn_smarts="[C:1](/[C:2](=[N:3]\[H:11])[O:4][C:5]([C:6](=[O:7])[H:14])([H:12])[H:13])([H:8])([H:9])[H:10]>>[C:1]([C:2]([N:3]([C:5]([C:6](=[O:7])[H:14])([H:12])[H:13])[H:11])=[O:4])([H:8])([H:9])[H:10]"
C       -2.31388946      -0.24502389      -0.31469946
C       -0.83363865      -0.21561136      -0.08502331
N       -0.13472125       0.86004588       0.17752316
O       -0.17680957      -1.29489732       0.08511908
C        1.34841797      -0.24027599       0.65868601
C        2.28975736       0.24717531      -0.42211175
O        3.36271964       0.73431799      -0.20386638
H       -2.79316970      -0.78853957       0.50181378
H       -2.72449728       0.76085732      -0.39296655
H       -2.50410889      -0.80381713      -1.23344804
H       -0.63164178       1.73342753       0.14011178
H        1.52286904       0.30677515       1.58687279
H        1.70861958      -1.22915265       0.95323917
H        1.88009299       0.17471873      -1.45125027
14
Frame=15 idx=010523 GeodesicLength=1.051419996155024 rxn_smarts="[C:1](/[C:2](=[N:3]\[H:11])[O:4][C:5]([C:6](=[O:7])[H:14])([H:12])[H:13])([H:8])([H:9])[H:10]>>[C:1]([C:2]([N:3]([C:5]([C:6](=[O:7])[H:14])([H:12])[H:13])[H:11])=[O:4])([H:8])([H:9])[H:10]"
C       -2.30300398      -0.25196666      -0.33042455
C       -0.82604266      -0.20400578      -0.08618918
N       -0.14717669       0.87524625       0.21625590
O       -0.14792605      -1.27778733       0.04696189
C        1.33995384      -0.20831921       0.67187882
C        2.27920937       0.21435569      -0.44005674
O        3.38652617       0.63289826      -0.25404017
H       -2.77767533      -0.84152896       0.45651063
H       -2.73215498       0.74872278      -0.36546853
H       -2.47401860      -0.77256033      -1.27517665
H       -0.66856770       1.73428669       0.23242909
H        1.53621901       0.38484597       1.56770823
H        1.68954066      -1.18401153       1.01952370
H        1.84511693       0.14982415      -1.45991243
14
Frame=16 idx=010523 GeodesicLength=1.1291761463532985 rxn_smarts="[C:1](/[C:2](=[N:3]\[H:11])[O:4][C:5]([C:6](=[O:7])[H:14])([H:12])[H:13])([H:8])([H:9])[H:10]>>[C:1]([C:2]([N:3]([C:5]([C:6](=[O:7])[H:14])([H:12])[H:13])[H:11])=[O:4])([H:8])([H:9])[H:10]"
C       -2.29093915      -0.25826909      -0.34766612
C       -0.81847040      -0.19274565      -0.08390639
N       -0.16047405       0.88919774       0.25715225
O       -0.12023649      -1.25950021       0.01873122
C        1.33304803      -0.17513180       0.68326075
C        2.26720233       0.18205512      -0.45803162
O        3.40432504       0.52632037      -0.30287701
H       -2.76248329      -0.89061735       0.40751352
H       -2.73840825       0.73510214      -0.34310230
H       -2.44061619      -0.74103146      -1.31598752
H       -0.70680844       1.72912888       0.32839496
H        1.55319474       0.46218197       1.54344409
H        1.67152977      -1.13563774       1.08133628
H        1.80913636       0.12894708      -1.46826210
