13
Frame=0 idx=001301 GeodesicLength=0.0 rxn_smarts="[C:1]1([H:7])([H:8])[O:2][C:3]([H:9])([H:10])[C@@:4]2([H:11])[N:5]([H:12])[C@@:6]12[H:13]>>[C:1](\[O:2][C:3]([H:7])([H:9])[H:10])(=[C:6]([C:4](=[N:5]/[H:12])\[H:11])/[H:13])[H:8]"
C       -1.14180563      -0.59717537       0.05201695
O       -0.11812837      -1.28952586      -0.59783909
C        0.88656804      -1.03322889       0.35828821
C        0.53026726       1.15802238       0.20251868
N        0.18570749       1.29156948      -1.12419644
C       -0.84282577       0.85969691      -0.00497225
H        0.00554618      -0.61653782       1.16210628
H       -2.12969296      -0.93807212      -0.25830315
H        1.05360865      -1.94398124       0.94248010
H        1.84609538      -0.74348489      -0.07665009
H        1.10000082       1.89608394       0.75874032
H        0.26485277       0.39911181      -1.62746168
H       -1.64019385       1.55752165       0.21327219
13
Frame=1 idx=001301 GeodesicLength=0.07777833306329049 rxn_smarts="[C:1]1([H:7])([H:8])[O:2][C:3]([H:9])([H:10])[C@@:4]2([H:11])[N:5]([H:12])[C@@:6]12[H:13]>>[C:1](\[O:2][C:3]([H:7])([H:9])[H:10])(=[C:6]([C:4](=[N:5]/[H:12])\[H:11])/[H:13])[H:8]"
C       -1.14617608      -0.59413355       0.05583474
O       -0.12415563      -1.29623144      -0.58624692
C        0.88939376      -1.02813833       0.35946855
C        0.53199826       1.15295622       0.19818577
N        0.20119576       1.29576721      -1.12919660
C       -0.84562755       0.85843479      -0.00863226
H       -0.01295153      -0.62975797       1.17779667
H       -2.13257492      -0.93321711      -0.26035197
H        1.07318872      -1.93432860       0.94558538
H        1.84329830      -0.75106794      -0.09607623
H        1.08751936       1.89497396       0.76342766
H        0.27401786       0.40678430      -1.63811073
H       -1.63912631       1.55795845       0.21831594
13
Frame=2 idx=001301 GeodesicLength=0.15554871832124534 rxn_smarts="[C:1]1([H:7])([H:8])[O:2][C:3]([H:9])([H:10])[C@@:4]2([H:11])[N:5]([H:12])[C@@:6]12[H:13]>>[C:1](\[O:2][C:3]([H:7])([H:9])[H:10])(=[C:6]([C:4](=[N:5]/[H:12])\[H:11])/[H:13])[H:8]"
C       -1.15047701      -0.59114391       0.05968164
O       -0.13013262      -1.30295714      -0.57447596
C        0.89228078      -1.02298444       0.36047299
C        0.53370714       1.14794815       0.19374592
N        0.21684429       1.30011662      -1.13413390
C       -0.84844817       0.85710732      -0.01228217
H       -0.03162132      -0.64330916       1.19332403
H       -2.13530779      -0.92851538      -0.26239540
H        1.09254761      -1.92403566       0.94896299
H        1.84011545      -0.75887156      -0.11545110
H        1.07513781       1.89360932       0.76779668
H        0.28336264       0.41485128      -1.64892854
H       -1.63800879       1.55818455       0.22368282
13
Frame=3 idx=001301 GeodesicLength=0.23331877657504668 rxn_smarts="[C:1]1([H:7])([H:8])[O:2][C:3]([H:9])([H:10])[C@@:4]2([H:11])[N:5]([H:12])[C@@:6]12[H:13]>>[C:1](\[O:2][C:3]([H:7])([H:9])[H:10])(=[C:6]([C:4](=[N:5]/[H:12])\[H:11])/[H:13])[H:8]"
C       -1.15470839      -0.58820904       0.06356992
O       -0.13606601      -1.30970467      -0.56252455
C        0.89522529      -1.01777486       0.36128464
C        0.53539367       1.14299957       0.18919100
N        0.23266292       1.30462489      -1.13901171
C       -0.85128983       0.85571456      -0.01592735
H       -0.05047829      -0.65720234       1.20870013
H       -2.13789455      -0.92397486      -0.26440904
H        1.11168645      -1.91310486       0.95260380
H        1.83654874      -0.76689176      -0.13476178
H        1.06286347       1.89199574       0.77185281
H        0.29289411       0.42332778      -1.65992368
H       -1.63683760       1.55819983       0.22935582
13
Frame=4 idx=001301 GeodesicLength=0.31108679937713757 rxn_smarts="[C:1]1([H:7])([H:8])[O:2][C:3]([H:9])([H:10])[C@@:4]2([H:11])[N:5]([H:12])[C@@:6]12[H:13]>>[C:1](\[O:2][C:3]([H:7])([H:9])[H:10])(=[C:6]([C:4](=[N:5]/[H:12])\[H:11])/[H:13])[H:8]"
C       -1.15886957      -0.58532974       0.06751161
O       -0.14196183      -1.31647351      -0.55038893
C        0.89822383      -1.01251552       0.36188657
C        0.53705683       1.13810869       0.18451387
N        0.24866136       1.30929659      -1.14382941
C       -0.85415488       0.85425522      -0.01957341
H       -0.06953882      -0.67144851       1.22393489
H       -2.14033731      -0.91959990      -0.26636890
H        1.13060885      -1.90153314       0.95649806
H        1.83260027      -0.77512800      -0.15399920
H        1.05070155       1.89013553       0.77559997
H        0.30261874       0.43222910      -1.67109955
H       -1.63560901       1.55800320       0.23531444
13
Frame=5 idx=001301 GeodesicLength=0.3888526800165896 rxn_smarts="[C:1]1([H:7])([H:8])[O:2][C:3]([H:9])([H:10])[C@@:4]2([H:11])[N:5]([H:12])[C@@:6]12[H:13]>>[C:1](\[O:2][C:3]([H:7])([H:9])[H:10])(=[C:6]([C:4](=[N:5]/[H:12])\[H:11])/[H:13])[H:8]"
C       -1.16296015      -0.58250708       0.07151968
O       -0.14782600      -1.32326348      -0.53806443
C        0.90127281      -1.00721240       0.36226203
C        0.53869560       1.13327369       0.17970789
N        0.26485047       1.31413626      -1.14858578
C       -0.85704563       0.85272782      -0.02322563
H       -0.08882169      -0.68605917       1.23903960
H       -2.14263868      -0.91539560      -0.26825020
H        1.14931980      -1.88931526       0.96063460
H        1.82827230      -0.78358128      -0.17315740
H        1.03865664       1.88803081       0.77904323
H        0.31254389       0.44157100      -1.68245912
H       -1.63431935       1.55759469       0.24153553
13
Frame=6 idx=001301 GeodesicLength=0.4666168313558685 rxn_smarts="[C:1]1([H:7])([H:8])[O:2][C:3]([H:9])([H:10])[C@@:4]2([H:11])[N:5]([H:12])[C@@:6]12[H:13]>>[C:1](\[O:2][C:3]([H:7])([H:9])[H:10])(=[C:6]([C:4](=[N:5]/[H:12])\[H:11])/[H:13])[H:8]"
C       -1.16697989      -0.57974204       0.07560824
O       -0.15366425      -1.33007427      -0.52554542
C        0.90436866      -1.00187148       0.36239429
C        0.54030897       1.12849242       0.17476685
N        0.28124242       1.31914796      -1.15327867
C       -0.85996430       0.85113056      -0.02688920
H       -0.10834792      -0.70104598       1.25402642
H       -2.14480182      -0.91136725      -0.27002649
H        1.16782594      -1.87644379       0.96500000
H        1.82356723      -0.79225372      -0.19223306
H        1.02673219       1.88568285       0.78218894
H        0.32267805       0.45136947      -1.69400451
H       -1.63296528       1.55697526       0.24799260
13
Frame=7 idx=001301 GeodesicLength=0.5443809249359668 rxn_smarts="[C:1]1([H:7])([H:8])[O:2][C:3]([H:9])([H:10])[C@@:4]2([H:11])[N:5]([H:12])[C@@:6]12[H:13]>>[C:1](\[O:2][C:3]([H:7])([H:9])[H:10])(=[C:6]([C:4](=[N:5]/[H:12])\[H:11])/[H:13])[H:8]"
C       -1.17092880      -0.57703562       0.07979235
O       -0.15948207      -1.33690556      -0.51282532
C        0.90750804      -0.99649870       0.36226650
C        0.54189608       1.12376243       0.16968495
N        0.29785069       1.32433521      -1.15790500
C       -0.86291313       0.84946121      -0.03056908
H       -0.12814116      -0.71642097       1.26890851
H       -2.14683063      -0.90752054      -0.27167029
H        1.18613527      -1.86290891       0.96957856
H        1.81848777      -0.80114859      -0.21122509
H        1.01493102       1.88309243       0.78504425
H        0.33303071       0.46164067      -1.70573702
H       -1.63154376       1.55614694       0.25465666
13
Frame=8 idx=001301 GeodesicLength=0.6221388495919351 rxn_smarts="[C:1]1([H:7])([H:8])[O:2][C:3]([H:9])([H:10])[C@@:4]2([H:11])[N:5]([H:12])[C@@:6]12[H:13]>>[C:1](\[O:2][C:3]([H:7])([H:9])[H:10])(=[C:6]([C:4](=[N:5]/[H:12])\[H:11])/[H:13])[H:8]"
C       -1.17480479      -0.57438773       0.08408770
O       -0.16528310      -1.34375541      -0.49989701
C        0.91068607      -0.99110104       0.36186216
C        0.54345504       1.11908040       0.16445578
N        0.31468901       1.32970050      -1.16246134
C       -0.86589412       0.84771762      -0.03427041
H       -0.14822535      -0.73219494       1.28369837
H       -2.14872648      -0.90385981      -0.27315262
H        1.20425536      -1.84869953       0.97435137
H        1.81303529      -0.81026949      -0.23013060
H        1.00325378       1.88025699       0.78761470
H        0.34361203       0.47240107      -1.71765688
H       -1.63005275       1.55511139       0.26149879
13
Frame=9 idx=001301 GeodesicLength=0.6998900345018542 rxn_smarts="[C:1]1([H:7])([H:8])[O:2][C:3]([H:9])([H:10])[C@@:4]2([H:11])[N:5]([H:12])[C@@:6]12[H:13]>>[C:1](\[O:2][C:3]([H:7])([H:9])[H:10])(=[C:6]([C:4](=[N:5]/[H:12])\[H:11])/[H:13])[H:8]"
C       -1.17860807      -0.57180087       0.08851215
O       -0.17107052      -1.35062140      -0.48675216
C        0.91390344      -0.98568380       0.36116550
C        0.54498499       1.11444461       0.15907499
N        0.33176754       1.33524663      -1.16693999
C       -0.86890956       0.84589555      -0.03799285
H       -0.16862943      -0.74837989       1.29841175
H       -2.15049314      -0.90039497      -0.27444360
H        1.22218773      -1.83381260       0.97929109
H        1.80721988      -0.81961427      -0.24894547
H        0.99171306       1.87717806       0.78990365
H        0.35442673       0.48366820      -1.72975910
H       -1.62849264       1.55387476       0.26847404
13
Frame=10 idx=001301 GeodesicLength=0.7776349958343769 rxn_smarts="[C:1]1([H:7])([H:8])[O:2][C:3]([H:9])([H:10])[C@@:4]2([H:11])[N:5]([H:12])[C@@:6]12[H:13]>>[C:1](\[O:2][C:3]([H:7])([H:9])[H:10])(=[C:6]([C:4](=[N:5]/[H:12])\[H:11])/[H:13])[H:8]"
C       -1.18233757      -0.56927562       0.09308343
O       -0.17684677      -1.35750216      -0.47338131
C        0.91715633      -0.98025404       0.36015997
C        0.54648485       1.10985171       0.15353678
N        0.34910305       1.34097455      -1.17133633
C       -0.87196157       0.84399175      -0.04174021
H       -0.18938477      -0.76498643       1.31306425
H       -2.15213394      -0.89713170      -0.27551410
H        1.23994337      -1.81823315       0.98437376
H        1.80104369      -0.82918769      -0.26767184
H        0.98030958       1.87385283       0.79191848
H        0.36548681       0.49545824      -1.74204304
H       -1.62686307       1.55244172       0.27555018
13
Frame=11 idx=001301 GeodesicLength=0.8553760157138032 rxn_smarts="[C:1]1([H:7])([H:8])[O:2][C:3]([H:9])([H:10])[C@@:4]2([H:11])[N:5]([H:12])[C@@:6]12[H:13]>>[C:1](\[O:2][C:3]([H:7])([H:9])[H:10])(=[C:6]([C:4](=[N:5]/[H:12])\[H:11])/[H:13])[H:8]"
C       -1.18599305      -0.56681311       0.09782078
O       -0.18261492      -1.36439701      -0.45977208
C        0.92044317      -0.97481764       0.35882913
C        0.54795405       1.10529814       0.14783582
N        0.36671301       1.34688496      -1.17564343
C       -0.87505174       0.84200159      -0.04551638
H       -0.21052715      -0.78202786       1.32767183
H       -2.15365299      -0.89407664      -0.27633416
H        1.25753461      -1.80194364       0.98957347
H        1.79450901      -0.83899550      -0.28631672
H        0.96904454       1.87027921       0.79366770
H        0.37680429       0.50778874      -1.75450531
H       -1.62516283       1.55081874       0.28268936
13
Frame=12 idx=001301 GeodesicLength=0.9331358933295232 rxn_smarts="[C:1]1([H:7])([H:8])[O:2][C:3]([H:9])([H:10])[C@@:4]2([H:11])[N:5]([H:12])[C@@:6]12[H:13]>>[C:1](\[O:2][C:3]([H:7])([H:9])[H:10])(=[C:6]([C:4](=[N:5]/[H:12])\[H:11])/[H:13])[H:8]"
C       -1.18957820      -0.56441981       0.10274558
O       -0.18838017      -1.37131165      -0.44591270
C        0.92376292      -0.96937991       0.35715607
C        0.54939563       1.10078560       0.14196766
N        0.38462186       1.35298193      -1.17985775
C       -0.87818142       0.83992014      -0.04932434
H       -0.23210054      -0.79952075       1.34225632
H       -2.15506071      -0.89124632      -0.27687339
H        1.27497262      -1.78492439       0.99486446
H        1.78762012      -0.84904406      -0.30489381
H        0.95792360       1.86646464       0.79516364
H        0.38839573       0.52067899      -1.76714849
H       -1.62339145       1.54901560       0.28985674
13
Frame=13 idx=001301 GeodesicLength=1.010840186985145 rxn_smarts="[C:1]1([H:7])([H:8])[O:2][C:3]([H:9])([H:10])[C@@:4]2([H:11])[N:5]([H:12])[C@@:6]12[H:13]>>[C:1](\[O:2][C:3]([H:7])([H:9])[H:10])(=[C:6]([C:4](=[N:5]/[H:12])\[H:11])/[H:13])[H:8]"
C       -1.19306945      -0.56207166       0.10787563
O       -0.19412456      -1.37821812      -0.43177695
C        0.92711132      -0.96395474       0.35512402
C        0.55079144       1.09628848       0.13592112
N        0.40282712       1.35924829      -1.18395746
C       -0.88135154       0.83774214      -0.05317044
H       -0.25413100      -0.81746135       1.35682139
H       -2.15632704      -0.88860657      -0.27709405
H        1.29227644      -1.76716521       1.00019114
H        1.78036897      -0.85933711      -0.32338577
H        0.94691760       1.86236248       0.79639958
H        0.40026218       0.53414050      -1.77994359
H       -1.62155148       1.54703286       0.29699539
13
Frame=14 idx=001301 GeodesicLength=1.088577378776966 rxn_smarts="[C:1]1([H:7])([H:8])[O:2][C:3]([H:9])([H:10])[C@@:4]2([H:11])[N:5]([H:12])[C@@:6]12[H:13]>>[C:1](\[O:2][C:3]([H:7])([H:9])[H:10])(=[C:6]([C:4](=[N:5]/[H:12])\[H:11])/[H:13])[H:8]"
C       -1.19649274      -0.55979663       0.11323206
O       -0.19986999      -1.38514799      -0.41735425
C        0.93049262      -0.95853762       0.35271480
C        0.55216039       1.09182450       0.12969572
N        0.42137422       1.36569559      -1.18794522
C       -0.88456514       0.83545946      -0.05705891
H       -0.27668965      -0.83588299       1.37139449
H       -2.15749423      -0.88620623      -0.27698103
H        1.30946764      -1.74861126       1.00554991
H        1.77276011      -0.86989430      -0.34183987
H        0.93605734       1.85801299       0.79739855
H        0.41243685       0.54819717      -1.79290517
H       -1.61963743       1.54488730       0.30409892
13
Frame=15 idx=001301 GeodesicLength=1.166330679106324 rxn_smarts="[C:1]1([H:7])([H:8])[O:2][C:3]([H:9])([H:10])[C@@:4]2([H:11])[N:5]([H:12])[C@@:6]12[H:13]>>[C:1](\[O:2][C:3]([H:7])([H:9])[H:10])(=[C:6]([C:4](=[N:5]/[H:12])\[H:11])/[H:13])[H:8]"
C       -1.19983612      -0.55758393       0.11884289
O       -0.20561183      -1.39209111      -0.40261103
C        0.93390214      -0.95313957       0.34990918
C        0.55349393       1.08737886       0.12328194
N        0.44028423       1.37232166      -1.19180377
C       -0.88781889       0.83306342      -0.06099917
H       -0.29982815      -0.85480026       1.38598803
H       -2.15854891      -0.88403461      -0.27648668
H        1.32657770      -1.72923138       1.01089419
H        1.76477283      -0.88072556      -0.36027178
H        0.92531803       1.85338693       0.79817034
H        0.42493996       0.56287439      -1.80601727
H       -1.61764492       1.54258115       0.31110315
13
Frame=16 idx=001301 GeodesicLength=1.2440929583309885 rxn_smarts="[C:1]1([H:7])([H:8])[O:2][C:3]([H:9])([H:10])[C@@:4]2([H:11])[N:5]([H:12])[C@@:6]12[H:13]>>[C:1](\[O:2][C:3]([H:7])([H:9])[H:10])(=[C:6]([C:4](=[N:5]/[H:12])\[H:11])/[H:13])[H:8]"
C       -1.20309301      -0.55543243       0.12473018
O       -0.21133799      -1.39903822      -0.38752799
C        0.93734148      -0.94776448       0.34669413
C        0.55478821       1.08294757       0.11667484
N        0.45957532       1.37911333      -1.19552237
C       -0.89111605       0.83054538      -0.06499168
H       -0.32360444      -0.87421312       1.40062498
H       -2.15948773      -0.88210394      -0.27557587
H        1.34360573      -1.70902094       1.01615649
H        1.75641511      -0.89182429      -0.37867752
H        0.91470431       1.84848117       0.79871043
H        0.43779163       0.57818487      -1.81926931
H       -1.61558258       1.54012510       0.31797368
