15
Frame=0 idx=008178 GeodesicLength=0.0 rxn_smarts="[C:1]1([H:8])([H:9])[C@@:2]2([H:10])[O:3][C@:4]3([H:11])[C:5]([H:12])([H:13])[C@@:6]2([H:14])[C@:7]13[H:15]>>[C:1]1([H:8])([H:9])[C@@:2]2([H:10])[O:3][C:4]([H:11])([H:13])[C@:7]1([H:15])[C@@:6]2([C:5][H:12])[H:14]"
C       -1.51381191      -0.09961979      -0.24771185
C       -0.56145245      -0.50502890       0.88452734
O        0.28228199      -1.45798343       0.22915895
C        0.75131971      -0.68323005      -0.84055003
C        1.71222833       0.86314134       0.57666765
C        0.22430211       0.84048540       0.62279789
C       -0.22796462       0.51114813      -0.82147780
H       -2.00583993      -0.91322970      -0.78093698
H       -2.22607897       0.67065512       0.04566550
H       -0.87315678      -0.87861601       1.85548287
H        0.90888187      -1.28356369      -1.73671687
H        2.12872761       0.18190733       1.34223770
H        1.79003679      -0.19353336      -0.59296015
H       -0.21172598       1.71899355       1.09862246
H       -0.17774779       1.22847406      -1.63480669
15
Frame=1 idx=008178 GeodesicLength=0.06133982544183207 rxn_smarts="[C:1]1([H:8])([H:9])[C@@:2]2([H:10])[O:3][C@:4]3([H:11])[C:5]([H:12])([H:13])[C@@:6]2([H:14])[C@:7]13[H:15]>>[C:1]1([H:8])([H:9])[C@@:2]2([H:10])[O:3][C:4]([H:11])([H:13])[C@:7]1([H:15])[C@@:6]2([C:5][H:12])[H:14]"
C       -1.51471833      -0.09965066      -0.24783194
C       -0.56219072      -0.50505263       0.88421335
O        0.28100964      -1.45840400       0.23091034
C        0.75346131      -0.68151262      -0.83839744
C        1.71060526       0.84472364       0.57522154
C        0.22364834       0.84109087       0.62205253
C       -0.22917959       0.51041928      -0.82248515
H       -2.00611538      -0.91365972      -0.78107228
H       -2.22664841       0.67078444       0.04600988
H       -0.87316102      -0.87525382       1.85672274
H        0.90162494      -1.28427399      -1.73471196
H        2.12719528       0.18591207       1.35896852
H        1.80752864      -0.18058930      -0.61231347
H       -0.21242517       1.71851108       1.09940724
H       -0.18063479       1.22695536      -1.63669388
15
Frame=2 idx=008178 GeodesicLength=0.12267520830854887 rxn_smarts="[C:1]1([H:8])([H:9])[C@@:2]2([H:10])[O:3][C@:4]3([H:11])[C:5]([H:12])([H:13])[C@@:6]2([H:14])[C@:7]13[H:15]>>[C:1]1([H:8])([H:9])[C@@:2]2([H:10])[O:3][C:4]([H:11])([H:13])[C@:7]1([H:15])[C@@:6]2([C:5][H:12])[H:14]"
C       -1.51566151      -0.09962961      -0.24792636
C       -0.56300293      -0.50515520       0.88392363
O        0.27941212      -1.45906901       0.23257264
C        0.75565270      -0.67996257      -0.83615618
C        1.70895424       0.82578729       0.57375146
C        0.22312175       0.84154195       0.62135205
C       -0.23036055       0.50956211      -0.82346545
H       -2.00653068      -0.91395643      -0.78122292
H       -2.22714336       0.67106891       0.04639585
H       -0.87327761      -0.87196284       1.85796623
H        0.89483125      -1.28498059      -1.73256291
H        2.12572162       0.19052609       1.37552394
H        1.82461891      -0.16700395      -0.63181787
H       -0.21291252       1.71792810       1.10022107
H       -0.18342343       1.22530575      -1.63855517
15
Frame=3 idx=008178 GeodesicLength=0.183995483515242 rxn_smarts="[C:1]1([H:8])([H:9])[C@@:2]2([H:10])[O:3][C@:4]3([H:11])[C:5]([H:12])([H:13])[C@@:6]2([H:14])[C@:7]13[H:15]>>[C:1]1([H:8])([H:9])[C@@:2]2([H:10])[O:3][C:4]([H:11])([H:13])[C@:7]1([H:15])[C@@:6]2([C:5][H:12])[H:14]"
C       -1.51663217      -0.09955222      -0.24798410
C       -0.56389855      -0.50533661       0.88364571
O        0.27746753      -1.45996381       0.23413314
C        0.75788341      -0.67857990      -0.83382656
C        1.70726334       0.80631652       0.57224578
C        0.22272729       0.84181067       0.62068615
C       -0.23149057       0.50856458      -0.82440549
H       -2.00708169      -0.91409507      -0.78136647
H       -2.22754525       0.67150146       0.04683516
H       -0.87352540      -0.86873939       1.85918861
H        0.88851009      -1.28566223      -1.73027254
H        2.12430420       0.19580562       1.39182084
H        1.84128414      -0.15277251      -0.65138249
H       -0.21318454       1.71719946       1.10104730
H       -0.18608185       1.22350344      -1.64036504
15
Frame=4 idx=008178 GeodesicLength=0.24531512554821458 rxn_smarts="[C:1]1([H:8])([H:9])[C@@:2]2([H:10])[O:3][C@:4]3([H:11])[C:5]([H:12])([H:13])[C@@:6]2([H:14])[C@:7]13[H:15]>>[C:1]1([H:8])([H:9])[C@@:2]2([H:10])[O:3][C:4]([H:11])([H:13])[C@:7]1([H:15])[C@@:6]2([C:5][H:12])[H:14]"
C       -1.51763871      -0.09941266      -0.24802009
C       -0.56487068      -0.50561617       0.88338351
O        0.27517020      -1.46113091       0.23558160
C        0.76013504      -0.67739687      -0.83143168
C        1.70553646       0.78632595       0.57072252
C        0.22247774       0.84189902       0.62006681
C       -0.23257510       0.50743302      -0.82532036
H       -2.00779483      -0.91407787      -0.78153098
H       -2.22785518       0.67210939       0.04732021
H       -0.87388782      -0.86561416       1.86040531
H        0.88264660      -1.28635792      -1.72789158
H        2.12299049       0.20183085       1.40784994
H        1.85751366      -0.13790850      -0.67089917
H       -0.21322744       1.71634295       1.10191010
H       -0.18862043       1.22157389      -1.64214613
15
Frame=5 idx=008178 GeodesicLength=0.30663091743029325 rxn_smarts="[C:1]1([H:8])([H:9])[C@@:2]2([H:10])[O:3][C@:4]3([H:11])[C:5]([H:12])([H:13])[C@@:6]2([H:14])[C@:7]13[H:15]>>[C:1]1([H:8])([H:9])[C@@:2]2([H:10])[O:3][C:4]([H:11])([H:13])[C@:7]1([H:15])[C@@:6]2([C:5][H:12])[H:14]"
C       -1.51867784      -0.09920383      -0.24802863
C       -0.56592672      -0.50599439       0.88312551
O        0.27250951      -1.46256098       0.23690469
C        0.76239453      -0.67642049      -0.82897718
C        1.70375897       0.76581267       0.56917821
C        0.22237251       0.84178405       0.61949093
C       -0.23360437       0.50615979      -0.82619901
H       -2.00867015      -0.91387996      -0.78170764
H       -2.22806735       0.67289235       0.04785993
H       -0.87437750      -0.86258510       1.86159471
H        0.87724316      -1.28705760      -1.72543396
H        2.12180611       0.20866072       1.42350981
H        1.87330846      -0.12243437      -0.69024558
H       -0.21305050       1.71532316       1.10280332
H       -0.19101882       1.21950398      -1.64387510
15
Frame=6 idx=008178 GeodesicLength=0.36793854925662944 rxn_smarts="[C:1]1([H:8])([H:9])[C@@:2]2([H:10])[O:3][C@:4]3([H:11])[C:5]([H:12])([H:13])[C@@:6]2([H:14])[C@:7]13[H:15]>>[C:1]1([H:8])([H:9])[C@@:2]2([H:10])[O:3][C:4]([H:11])([H:13])[C@:7]1([H:15])[C@@:6]2([C:5][H:12])[H:14]"
C       -1.51975212      -0.09892235      -0.24801750
C       -0.56706786      -0.50648402       0.88287193
O        0.26947668      -1.46427331       0.23809678
C        0.76464168      -0.67566907      -0.82647751
C        1.70192622       0.74479461       0.56763269
C        0.22241742       0.84146080       0.61896587
C       -0.23457647       0.50474914      -0.82704624
H       -2.00972112      -0.91349875      -0.78190999
H       -2.22817886       0.67386109       0.04844962
H       -0.87499356      -0.85967202       1.86276148
H        0.87228270      -1.28777708      -1.72293368
H        2.12079353       0.21635445       1.43872828
H        1.88867336      -0.10637071      -0.70930025
H       -0.21265093       1.71413937       1.10373743
H       -0.19327066       1.21730786      -1.64555892
15
Frame=7 idx=008178 GeodesicLength=0.4292386068000784 rxn_smarts="[C:1]1([H:8])([H:9])[C@@:2]2([H:10])[O:3][C@:4]3([H:11])[C:5]([H:12])([H:13])[C@@:6]2([H:14])[C@:7]13[H:15]>>[C:1]1([H:8])([H:9])[C@@:2]2([H:10])[O:3][C:4]([H:11])([H:13])[C@:7]1([H:15])[C@@:6]2([C:5][H:12])[H:14]"
C       -1.52086145      -0.09856314      -0.24798850
C       -0.56829945      -0.50709180       0.88261684
O        0.26606425      -1.46627034       0.23915004
C        0.76685855      -0.67515453      -0.82394224
C        1.70002501       0.72328349       0.56609605
C        0.22261175       0.84091601       0.61849450
C       -0.23548644       0.50320076      -0.82785852
H       -2.01095380      -0.91292122      -0.78214064
H       -2.22818609       0.67502002       0.04909037
H       -0.87574384      -0.85688494       1.86389608
H        0.86775089      -1.28852121      -1.72041228
H        2.11999299       0.22496769       1.45340538
H        1.90362588      -0.08974191      -0.72793505
H       -0.21203563       1.71277334       1.10471662
H       -0.19536262       1.21498777      -1.64718865
15
Frame=8 idx=008178 GeodesicLength=0.4905329184086552 rxn_smarts="[C:1]1([H:8])([H:9])[C@@:2]2([H:10])[O:3][C@:4]3([H:11])[C:5]([H:12])([H:13])[C@@:6]2([H:14])[C@:7]13[H:15]>>[C:1]1([H:8])([H:9])[C@@:2]2([H:10])[O:3][C:4]([H:11])([H:13])[C@:7]1([H:15])[C@@:6]2([C:5][H:12])[H:14]"
C       -1.52200719      -0.09812193      -0.24794555
C       -0.56962736      -0.50782551       0.88235616
O        0.26226642      -1.46855634       0.24005954
C        0.76902599      -0.67488947      -0.82138066
C        1.69804197       0.70129585       0.56458326
C        0.22295321       0.84013921       0.61808230
C       -0.23633097       0.50151661      -0.82863360
H       -2.01237529      -0.91213764      -0.78240619
H       -2.22808788       0.67637377       0.04978042
H       -0.87663670      -0.85423630       1.86499235
H        0.86362786      -1.28929800      -1.71789185
H        2.11945255       0.23455217       1.46743455
H        1.91819374      -0.07257387      -0.74602055
H       -0.21121330       1.71121138       1.10574813
H       -0.19728306       1.21255008      -1.64875830
15
Frame=9 idx=008178 GeodesicLength=0.5518172692610392 rxn_smarts="[C:1]1([H:8])([H:9])[C@@:2]2([H:10])[O:3][C@:4]3([H:11])[C:5]([H:12])([H:13])[C@@:6]2([H:14])[C@:7]13[H:15]>>[C:1]1([H:8])([H:9])[C@@:2]2([H:10])[O:3][C:4]([H:11])([H:13])[C@:7]1([H:15])[C@@:6]2([C:5][H:12])[H:14]"
C       -1.52318992      -0.09759490      -0.24789267
C       -0.57105793      -0.50869185       0.88208599
O        0.25807904      -1.47113347       0.24082211
C        0.77112549      -0.67488530      -0.81880012
C        1.69596221       0.67884968       0.56311190
C        0.22343715       0.83912115       0.61773523
C       -0.23710702       0.49969900      -0.82936833
H       -2.01398993      -0.91113945      -0.78271302
H       -2.22788325       0.67792564       0.05051747
H       -0.87768120      -0.85173702       1.86604384
H        0.85989129      -1.29011579      -1.71539088
H        2.11921944       0.24515052       1.48069981
H        1.93241046      -0.05489006      -0.76342988
H       -0.21019545       1.70944100       1.10683928
H       -0.19902037       1.21000086      -1.65026072
15
Frame=10 idx=008178 GeodesicLength=0.613095784268237 rxn_smarts="[C:1]1([H:8])([H:9])[C@@:2]2([H:10])[O:3][C@:4]3([H:11])[C:5]([H:12])([H:13])[C@@:6]2([H:14])[C@:7]13[H:15]>>[C:1]1([H:8])([H:9])[C@@:2]2([H:10])[O:3][C:4]([H:11])([H:13])[C@:7]1([H:15])[C@@:6]2([C:5][H:12])[H:14]"
C       -1.52441215      -0.09697905      -0.24783481
C       -0.57259993      -0.50969831       0.88180383
O        0.25349752      -1.47400359       0.24143758
C        0.77313830      -0.67515319      -0.81620581
C        1.69377007       0.65596442       0.56170054
C        0.22405701       0.83785273       0.61746130
C       -0.23781228       0.49775097      -0.83005951
H       -2.01580350      -0.90991910      -0.78306990
H       -2.22757381       0.67967802       0.05129701
H       -0.87889074      -0.84939959       1.86704576
H        0.85651581      -1.29098359      -1.71292536
H        2.11935099       0.25680379       1.49307699
H        1.94631998      -0.03671119      -0.78003758
H       -0.20899516       1.70745001       1.10799948
H       -0.20056211       1.20734765      -1.65168951
15
Frame=11 idx=008178 GeodesicLength=0.6743677248811207 rxn_smarts="[C:1]1([H:8])([H:9])[C@@:2]2([H:10])[O:3][C@:4]3([H:11])[C:5]([H:12])([H:13])[C@@:6]2([H:14])[C@:7]13[H:15]>>[C:1]1([H:8])([H:9])[C@@:2]2([H:10])[O:3][C:4]([H:11])([H:13])[C@:7]1([H:15])[C@@:6]2([C:5][H:12])[H:14]"
C       -1.52567559      -0.09627176      -0.24777687
C       -0.57426281      -0.51085129       0.88150741
O        0.24851814      -1.47716695       0.24190741
C        0.77504716      -0.67570339      -0.81360038
C        1.69144877       0.63265875       0.56036955
C        0.22480426       0.83632560       0.61726907
C       -0.23844448       0.49567536      -0.83070293
H       -2.01781905      -0.90846980      -0.78348544
H       -2.22716104       0.68163233       0.05211400
H       -0.88027983      -0.84723483       1.86799310
H        0.85347508      -1.29191088      -1.71050690
H        2.11990299       0.26954488       1.50443412
H        1.95996942      -0.01805210      -0.79572340
H       -0.20762741       1.70522707       1.10923830
H       -0.20189560       1.20459703      -1.65303704
15
Frame=12 idx=008178 GeodesicLength=0.7356326247432459 rxn_smarts="[C:1]1([H:8])([H:9])[C@@:2]2([H:10])[O:3][C@:4]3([H:11])[C:5]([H:12])([H:13])[C@@:6]2([H:14])[C@:7]13[H:15]>>[C:1]1([H:8])([H:9])[C@@:2]2([H:10])[O:3][C:4]([H:11])([H:13])[C@:7]1([H:15])[C@@:6]2([C:5][H:12])[H:14]"
C       -1.52698197      -0.09547102      -0.24772408
C       -0.57605714      -0.51215689       0.88119509
O        0.24313704      -1.48062300       0.24223500
C        0.77683611      -0.67654546      -0.81098382
C        1.68898130       0.60895054       0.55914047
C        0.22566908       0.83453183       0.61716793
C       -0.23900141       0.49347488      -0.83129383
H       -2.02003855      -0.90678589      -0.78396873
H       -2.22664694       0.68378895       0.05296229
H       -0.88186495      -0.84525302       1.86888135
H        0.85074158      -1.29290761      -1.70814299
H        2.12093211       0.28340057       1.51463206
H        1.97340938       0.00107933      -0.81037129
H       -0.20610790       1.70276156       1.11056581
H       -0.20300773       1.20175522      -1.65429527
15
Frame=13 idx=008178 GeodesicLength=0.7968910333344681 rxn_smarts="[C:1]1([H:8])([H:9])[C@@:2]2([H:10])[O:3][C@:4]3([H:11])[C:5]([H:12])([H:13])[C@@:6]2([H:14])[C@:7]13[H:15]>>[C:1]1([H:8])([H:9])[C@@:2]2([H:10])[O:3][C:4]([H:11])([H:13])[C@:7]1([H:15])[C@@:6]2([C:5][H:12])[H:14]"
C       -1.52833349      -0.09457524      -0.24768208
C       -0.57799506      -0.51362095       0.88086631
O        0.23735025      -1.48437076       0.24242592
C        0.77849087      -0.67768857      -0.80835335
C        1.68635040       0.58485621       0.55803619
C        0.22664012       0.83246362       0.61716898
C       -0.23948087       0.49115209      -0.83182675
H       -2.02246306      -0.90486222      -0.78453015
H       -2.22603471       0.68614787       0.05383429
H       -0.88366558      -0.84346402       1.86970701
H        0.84828802      -1.29398447      -1.70583728
H        2.12249804       0.29839298       1.52352243
H        1.98669325       0.02068207      -0.82386917
H       -0.20445364       1.70004327       1.11199355
H       -0.20388454       1.19882812      -1.65545589
15
Frame=14 idx=008178 GeodesicLength=0.8581432282774184 rxn_smarts="[C:1]1([H:8])([H:9])[C@@:2]2([H:10])[O:3][C@:4]3([H:11])[C:5]([H:12])([H:13])[C@@:6]2([H:14])[C@:7]13[H:15]>>[C:1]1([H:8])([H:9])[C@@:2]2([H:10])[O:3][C:4]([H:11])([H:13])[C@:7]1([H:15])[C@@:6]2([C:5][H:12])[H:14]"
C       -1.52973194      -0.09358322      -0.24765661
C       -0.58008958      -0.51524914       0.88052081
O        0.23115311      -1.48840891       0.24248688
C        0.77999874      -0.67914154      -0.80570370
C        1.68353904       0.56038980       0.55708007
C        0.22770545       0.83011305       0.61728387
C       -0.23988029       0.48870898      -0.83229558
H       -2.02509240      -0.90269417      -0.78518034
H       -2.22532709       0.68870842       0.05472184
H       -0.88570270      -0.84187739       1.87046658
H        0.84608702      -1.29515260      -1.70358944
H        2.12465875       0.31454071       1.53094929
H        1.99987428       0.04076293      -0.83610755
H       -0.20268120       1.69706213       1.11353356
H       -0.20451121       1.19582094      -1.65650970
15
Frame=15 idx=008178 GeodesicLength=0.9193893661633964 rxn_smarts="[C:1]1([H:8])([H:9])[C@@:2]2([H:10])[O:3][C@:4]3([H:11])[C:5]([H:12])([H:13])[C@@:6]2([H:14])[C@:7]13[H:15]>>[C:1]1([H:8])([H:9])[C@@:2]2([H:10])[O:3][C:4]([H:11])([H:13])[C@:7]1([H:15])[C@@:6]2([C:5][H:12])[H:14]"
C       -1.53117883      -0.09249402      -0.24765366
C       -0.58235478      -0.51704706       0.88015895
O        0.22454040      -1.49273619       0.24242603
C        0.78134880      -0.68091305      -0.80302689
C        1.68053050       0.53556313       0.55629659
C        0.22885246       0.82747194       0.61752562
C       -0.24019662       0.48614703      -0.83269334
H       -2.02792517      -0.90027728      -0.78593090
H       -2.22452676       0.69146982       0.05561591
H       -0.88799947      -0.84050242       1.87115692
H        0.84411225      -1.29642378      -1.70139528
H        2.12747125       0.33185933       1.53674557
H        2.01300481       0.06133613      -0.84697823
H       -0.20080720       1.69380808       1.11519928
H       -0.20487166       1.19273833      -1.65744658
15
Frame=16 idx=008178 GeodesicLength=0.9806308172154277 rxn_smarts="[C:1]1([H:8])([H:9])[C@@:2]2([H:10])[O:3][C@:4]3([H:11])[C:5]([H:12])([H:13])[C@@:6]2([H:14])[C@:7]13[H:15]>>[C:1]1([H:8])([H:9])[C@@:2]2([H:10])[O:3][C:4]([H:11])([H:13])[C@:7]1([H:15])[C@@:6]2([C:5][H:12])[H:14]"
C       -1.53267568      -0.09130676      -0.24767954
C       -0.58480619      -0.51902072       0.87978170
O        0.21750589      -1.49735171       0.24225264
C        0.78253167      -0.68301199      -0.80031249
C        1.67730854       0.51038495       0.55571119
C        0.23006801       0.82453108       0.61790898
C       -0.24042610       0.48346718      -0.83301208
H       -2.03095921      -0.89760663      -0.78679494
H       -2.22363634       0.69443135       0.05650660
H       -0.89058209      -0.83934910       1.87177503
H        0.84233840      -1.29781034      -1.69924730
H        2.13099315       0.35036597       1.54073073
H        2.02613578       0.08242191      -0.85637183
H       -0.19884799       1.69027002       1.11700633
H       -0.20494784       1.18958480      -1.65825502
