13
Frame=0 idx=003225 GeodesicLength=0.0 rxn_smarts="[C:1]([C@@:2]1([H:9])[C:3]([H:10])([H:11])[C:4]([H:12])([H:13])[O:5]1)([H:6])([H:7])[H:8]>>[C:1]([C:2][C:3]([C:4]([O:5][H:9])([H:12])[H:13])([H:10])[H:11])([H:6])([H:7])[H:8]"
C        1.74514719      -0.41072562      -0.10122444
C        0.46298441       0.08284291      -0.63092427
C       -0.78979977      -0.62114851      -0.16781298
C       -1.44758697       0.65130924       0.36283947
O       -0.29605069       1.51109912       0.46836699
H        2.56003418       0.30405771      -0.20789406
H        1.69419153      -0.78878439       0.92633294
H        1.97977585      -1.26878537      -0.74911263
H        0.11383244       1.38331054      -0.57114190
H       -1.31890532      -1.11997436      -0.98295153
H       -0.61288540      -1.34705246       0.63367342
H       -1.90558622       0.54867612       1.34529849
H       -2.18515129       1.07517505      -0.32544953
13
Frame=1 idx=003225 GeodesicLength=0.046763497121026405 rxn_smarts="[C:1]([C@@:2]1([H:9])[C:3]([H:10])([H:11])[C:4]([H:12])([H:13])[O:5]1)([H:6])([H:7])[H:8]>>[C:1]([C:2][C:3]([C:4]([O:5][H:9])([H:12])[H:13])([H:10])[H:11])([H:6])([H:7])[H:8]"
C        1.75008121      -0.41808770      -0.10425791
C        0.46489501       0.08780744      -0.61382954
C       -0.78795348      -0.61751912      -0.15812288
C       -1.45629873       0.65485241       0.36010650
O       -0.30780138       1.51608315       0.46898836
H        2.56439123       0.29959506      -0.19571655
H        1.70549966      -0.82236666       0.91347096
H        1.98247006      -1.25822740      -0.77592006
H        0.11631923       1.39489870      -0.57701326
H       -1.30810389      -1.12835368      -0.97152748
H       -0.61027545      -1.33423944       0.65169136
H       -1.92267045       0.55523750       1.33911847
H       -2.19055301       1.07031975      -0.33698799
13
Frame=2 idx=003225 GeodesicLength=0.09344052621702462 rxn_smarts="[C:1]([C@@:2]1([H:9])[C:3]([H:10])([H:11])[C:4]([H:12])([H:13])[O:5]1)([H:6])([H:7])[H:8]>>[C:1]([C:2][C:3]([C:4]([O:5][H:9])([H:12])[H:13])([H:10])[H:11])([H:6])([H:7])[H:8]"
C        1.75495428      -0.42555370      -0.10737630
C        0.46698749       0.09297646      -0.59606134
C       -0.78596823      -0.61380179      -0.14808643
C       -1.46507296       0.65834957       0.35725771
O       -0.31988689       1.52139943       0.46925143
H        2.56892181       0.29451374      -0.18283368
H        1.71652047      -0.85675061       0.89939906
H        1.98479443      -1.24654512      -0.80307703
H        0.11895518       1.40636085      -0.58303990
H       -1.29686551      -1.13678232      -0.95957566
H       -0.60759840      -1.32103011       0.67015693
H       -1.93981742       0.56186079       1.33273885
H       -2.19592425       1.06500280      -0.34875363
13
Frame=3 idx=003225 GeodesicLength=0.1399721090544771 rxn_smarts="[C:1]([C@@:2]1([H:9])[C:3]([H:10])([H:11])[C:4]([H:12])([H:13])[O:5]1)([H:6])([H:7])[H:8]>>[C:1]([C:2][C:3]([C:4]([O:5][H:9])([H:12])[H:13])([H:10])[H:11])([H:6])([H:7])[H:8]"
C        1.75974774      -0.43310282      -0.11056717
C        0.46928075       0.09836545      -0.57760504
C       -0.78383817      -0.60998727      -0.13775230
C       -1.47388323       0.66176537       0.35431227
O       -0.33229249       1.52702287       0.46914231
H        2.57365961       0.28872017      -0.16936656
H        1.72716668      -0.89170241       0.88412989
H        1.98667755      -1.23377541      -0.83037522
H        0.12174681       1.41766446      -0.58923967
H       -1.28519242      -1.14518241      -0.94716136
H       -0.60485989      -1.30745789       0.68896381
H       -1.95695294       0.56846739       1.32619028
H       -2.20126002       1.05920249      -0.36067124
13
Frame=4 idx=003225 GeodesicLength=0.18638257189269059 rxn_smarts="[C:1]([C@@:2]1([H:9])[C:3]([H:10])([H:11])[C:4]([H:12])([H:13])[O:5]1)([H:6])([H:7])[H:8]>>[C:1]([C:2][C:3]([C:4]([O:5][H:9])([H:12])[H:13])([H:10])[H:11])([H:6])([H:7])[H:8]"
C        1.76444434      -0.44070790      -0.11381780
C        0.47179240       0.10397776      -0.55845162
C       -0.78156354      -0.60608349      -0.12718223
C       -1.48270211       0.66506734       0.35129778
O       -0.34499512       1.53294220       0.46867053
H        2.57865185       0.28214375      -0.15548073
H        1.73734235      -0.92694719       0.86771042
H        1.98804631      -1.21999025      -0.85758152
H        0.12471535       1.42879747      -0.59563740
H       -1.27309348      -1.15349050      -0.93438468
H       -0.60208394      -1.29359999       0.70799715
H       -1.97400500       0.57497270       1.31952790
H       -2.20654940       1.05291810      -0.37266782
13
Frame=5 idx=003225 GeodesicLength=0.23247325246212933 rxn_smarts="[C:1]([C@@:2]1([H:9])[C:3]([H:10])([H:11])[C:4]([H:12])([H:13])[O:5]1)([H:6])([H:7])[H:8]>>[C:1]([C:2][C:3]([C:4]([O:5][H:9])([H:12])[H:13])([H:10])[H:11])([H:6])([H:7])[H:8]"
C        1.76902385      -0.44832303      -0.11709189
C        0.47452365       0.10980678      -0.53867503
C       -0.77915210      -0.60209328      -0.11650579
C       -1.49148195       0.66822033       0.34825885
O       -0.35794031       1.53908700       0.46781963
H        2.58384615       0.27474087      -0.14136867
H        1.74703661      -0.96202260       0.85040839
H        1.98885137      -1.20545793      -0.88446914
H        0.12783123       1.43971703      -0.60222721
H       -1.26061749      -1.16157069      -0.92145258
H       -0.59928646      -1.27958091       0.72705576
H       -1.99082653       0.58127521       1.31284452
H       -2.21180803       1.04620123      -0.38459684
13
Frame=6 idx=003225 GeodesicLength=0.2784649402810137 rxn_smarts="[C:1]([C@@:2]1([H:9])[C:3]([H:10])([H:11])[C:4]([H:12])([H:13])[O:5]1)([H:6])([H:7])[H:8]>>[C:1]([C:2][C:3]([C:4]([O:5][H:9])([H:12])[H:13])([H:10])[H:11])([H:6])([H:7])[H:8]"
C        1.77349340      -0.45596518      -0.12043133
C        0.47749115       0.11586664      -0.51816538
C       -0.77659243      -0.59800426      -0.10563394
C       -1.50025755       0.67122987       0.34516825
O       -0.37116796       1.54547380       0.46661172
H        2.58931979       0.26647916      -0.12700790
H        1.75621115      -0.99712993       0.83200571
H        1.98909959      -1.18997416      -0.91107114
H        0.13114969       1.45040516      -0.60902750
H       -1.24770503      -1.16947107      -0.90822296
H       -0.59649470      -1.26532482       0.74624906
H       -2.00755477       0.58741049       1.30607666
H       -2.21699234       1.03900430      -0.39655124
13
Frame=7 idx=003225 GeodesicLength=0.3242447576698339 rxn_smarts="[C:1]([C@@:2]1([H:9])[C:3]([H:10])([H:11])[C:4]([H:12])([H:13])[O:5]1)([H:6])([H:7])[H:8]>>[C:1]([C:2][C:3]([C:4]([O:5][H:9])([H:12])[H:13])([H:10])[H:11])([H:6])([H:7])[H:8]"
C        1.77780719      -0.46364538      -0.12386901
C        0.48071815       0.12222984      -0.49670342
C       -0.77383542      -0.59380118      -0.09439307
C       -1.50904111       0.67411037       0.34194884
O       -0.38470086       1.55215638       0.46496240
H        2.59505729       0.25730185      -0.11215128
H        1.76471021      -1.03273000       0.81215950
H        1.98879072      -1.17312154      -0.93769661
H        0.13473005       1.46081321      -0.61600419
H       -1.23427600      -1.17734046      -0.89444189
H       -0.59361724      -1.25066845       0.76582694
H       -2.02427108       0.59351055       1.29906358
H       -2.22207190       1.03118481      -0.40870178
13
Frame=8 idx=003225 GeodesicLength=0.36985274489728465 rxn_smarts="[C:1]([C@@:2]1([H:9])[C:3]([H:10])([H:11])[C:4]([H:12])([H:13])[O:5]1)([H:6])([H:7])[H:8]>>[C:1]([C:2][C:3]([C:4]([O:5][H:9])([H:12])[H:13])([H:10])[H:11])([H:6])([H:7])[H:8]"
C        1.78196965      -0.47129192      -0.12735468
C        0.48416519       0.12879465      -0.47448444
C       -0.77093307      -0.58950354      -0.08301126
C       -1.51776381       0.67681555       0.33869174
O       -0.39847058       1.55898246       0.46295628
H        2.60101560       0.24719808      -0.09718761
H        1.77268832      -1.06799860       0.79129882
H        1.98784536      -1.15539571      -0.96386950
H        0.13852177       1.47088081      -0.62319070
H       -1.22040974      -1.18491552      -0.88047752
H       -0.59081612      -1.23586077       0.78546313
H       -2.04082175       0.59937578       1.29200430
H       -2.22699080       1.02291873      -0.42083856
13
Frame=9 idx=003225 GeodesicLength=0.41528976626368225 rxn_smarts="[C:1]([C@@:2]1([H:9])[C:3]([H:10])([H:11])[C:4]([H:12])([H:13])[O:5]1)([H:6])([H:7])[H:8]>>[C:1]([C:2][C:3]([C:4]([O:5][H:9])([H:12])[H:13])([H:10])[H:11])([H:6])([H:7])[H:8]"
C        1.78593875      -0.47892755      -0.13094678
C        0.48791836       0.13564989      -0.45119567
C       -0.76781493      -0.58510441      -0.07126807
C       -1.52647567       0.67937034       0.33531400
O       -0.41252800       1.56607231       0.46048045
H        2.60726755       0.23607138      -0.08188504
H        1.77985276      -1.10352121       0.76890803
H        1.98628057      -1.13621687      -0.98986635
H        0.14265541       1.48055413      -0.63056476
H       -1.20598664      -1.19241438      -0.86599982
H       -0.58798621      -1.22072883       0.80545373
H       -2.05736232       0.60517621       1.28472587
H       -2.23175963       1.01401897      -0.43315558
13
Frame=10 idx=003225 GeodesicLength=0.46056478880139545 rxn_smarts="[C:1]([C@@:2]1([H:9])[C:3]([H:10])([H:11])[C:4]([H:12])([H:13])[O:5]1)([H:6])([H:7])[H:8]>>[C:1]([C:2][C:3]([C:4]([O:5][H:9])([H:12])[H:13])([H:10])[H:11])([H:6])([H:7])[H:8]"
C        1.78971095      -0.48647373      -0.13458942
C        0.49190723       0.14270864      -0.42707317
C       -0.76454589      -0.58062950      -0.05941038
C       -1.53509432       0.68172787       0.33190418
O       -0.42674798       1.57328020       0.45762741
H        2.61374379       0.22397161      -0.06661928
H        1.78632054      -1.13850219       0.74552489
H        1.98405609      -1.11612617      -1.01524244
H        0.14708407       1.48981618      -0.63815762
H       -1.19115934      -1.19961772      -0.85137911
H       -0.58524644      -1.20553228       0.82542701
H       -2.07367417       0.61071849       1.27740505
H       -2.23635454       1.00465859      -0.44541712
13
Frame=11 idx=003225 GeodesicLength=0.5056297727554729 rxn_smarts="[C:1]([C@@:2]1([H:9])[C:3]([H:10])([H:11])[C:4]([H:12])([H:13])[O:5]1)([H:6])([H:7])[H:8]>>[C:1]([C:2][C:3]([C:4]([O:5][H:9])([H:12])[H:13])([H:10])[H:11])([H:6])([H:7])[H:8]"
C        1.79323077      -0.49392840      -0.13832716
C        0.49619681       0.15004179      -0.40180694
C       -0.76106667      -0.57604953      -0.04724280
C       -1.54364232       0.68388974       0.32838876
O       -0.44118626       1.58062853       0.45428224
H        2.62048556       0.21080688      -0.05123948
H        1.79190632      -1.17335668       0.72069163
H        1.98112431      -1.09461431      -1.04020223
H        0.15192950       1.49851348      -0.64594481
H       -1.17578255      -1.20661978      -0.83633991
H       -0.58258713      -1.19010261       0.84564493
H       -2.08990549       0.61612400       1.26988994
H       -2.24070286       0.99466689      -0.45779418
13
Frame=12 idx=003225 GeodesicLength=0.5505233403231601 rxn_smarts="[C:1]([C@@:2]1([H:9])[C:3]([H:10])([H:11])[C:4]([H:12])([H:13])[O:5]1)([H:6])([H:7])[H:8]>>[C:1]([C:2][C:3]([C:4]([O:5][H:9])([H:12])[H:13])([H:10])[H:11])([H:6])([H:7])[H:8]"
C        1.79648286      -0.50121684      -0.14210324
C        0.50074845       0.15757913      -0.37562989
C       -0.75741856      -0.57139344      -0.03500537
C       -1.55205185       0.68582066       0.32485071
O       -0.45571220       1.58799970       0.45056406
H        2.62743902       0.19669918      -0.03615405
H        1.79667357      -1.20739056       0.69498286
H        1.97741334      -1.07224196      -1.06434436
H        0.15717861       1.50665510      -0.65392404
H       -1.15999789      -1.21325543      -0.82123782
H       -0.58007090      -1.17468660       0.86574093
H       -2.10587134       0.62122114       1.26233625
H       -2.24481311       0.98420992      -0.47007606
13
Frame=13 idx=003225 GeodesicLength=0.595225105796262 rxn_smarts="[C:1]([C@@:2]1([H:9])[C:3]([H:10])([H:11])[C:4]([H:12])([H:13])[O:5]1)([H:6])([H:7])[H:8]>>[C:1]([C:2][C:3]([C:4]([O:5][H:9])([H:12])[H:13])([H:10])[H:11])([H:6])([H:7])[H:8]"
C        1.79942446      -0.50831280      -0.14594827
C        0.50554981       0.16531784      -0.34839129
C       -0.75360123      -0.56666698      -0.02258060
C       -1.56031112       0.68752614       0.32124727
O       -0.47029460       1.59537637       0.44637892
H        2.63456309       0.18163113      -0.02121666
H        1.80050910      -1.24082939       0.66811541
H        1.97300519      -1.04863492      -1.08779239
H        0.16292121       1.51410263      -0.66211819
H       -1.14379545      -1.21960129      -0.80589143
H       -0.57774165      -1.15922843       0.88588141
H       -2.12161308       0.62610685       1.25466445
H       -2.24861573       0.97321284      -0.48234863
13
Frame=14 idx=003225 GeodesicLength=0.6397831259827307 rxn_smarts="[C:1]([C@@:2]1([H:9])[C:3]([H:10])([H:11])[C:4]([H:12])([H:13])[O:5]1)([H:6])([H:7])[H:8]>>[C:1]([C:2][C:3]([C:4]([O:5][H:9])([H:12])[H:13])([H:10])[H:11])([H:6])([H:7])[H:8]"
C        1.80201100      -0.51517637      -0.14989150
C        0.51059532       0.17319226      -0.31999244
C       -0.74960083      -0.56190016      -0.00989210
C       -1.56840711       0.68902492       0.31754761
O       -0.48489603       1.60274662       0.44170312
H        2.64178078       0.16557024      -0.00636258
H        1.80333105      -1.27372930       0.63987038
H        1.96794032      -1.02353195      -1.11058936
H        0.16923293       1.52073791      -0.67051276
H       -1.12715399      -1.22574708      -0.79018970
H       -0.57561333      -1.14372315       0.90618985
H       -2.13717118       0.63087319       1.24682092
H       -2.25204893       0.96166288      -0.49470144
13
Frame=15 idx=003225 GeodesicLength=0.6842083145584408 rxn_smarts="[C:1]([C@@:2]1([H:9])[C:3]([H:10])([H:11])[C:4]([H:12])([H:13])[O:5]1)([H:6])([H:7])[H:8]>>[C:1]([C:2][C:3]([C:4]([O:5][H:9])([H:12])[H:13])([H:10])[H:11])([H:6])([H:7])[H:8]"
C        1.80420525      -0.52172553      -0.15386503
C        0.51584949       0.18113966      -0.29065617
C       -0.74545932      -0.55711605       0.00286662
C       -1.57626542       0.69028380       0.31382632
O       -0.49936925       1.60997136       0.43657770
H        2.64904077       0.14867755       0.00815681
H        1.80514054      -1.30558416       0.61065281
H        1.96217172      -0.99729045      -1.13237988
H        0.17613762       1.52647760      -0.67916638
H       -1.11022749      -1.23155120      -0.77440982
H       -0.57375358      -1.12836603       0.92637112
H       -2.15235581       0.63540479       1.23895880
H       -2.25511453       0.94967866      -0.50693291
13
Frame=16 idx=003225 GeodesicLength=0.7284529347249098 rxn_smarts="[C:1]([C@@:2]1([H:9])[C:3]([H:10])([H:11])[C:4]([H:12])([H:13])[O:5]1)([H:6])([H:7])[H:8]>>[C:1]([C:2][C:3]([C:4]([O:5][H:9])([H:12])[H:13])([H:10])[H:11])([H:6])([H:7])[H:8]"
C        1.80596618      -0.52790197      -0.15788034
C        0.52126535       0.18912616      -0.26043604
C       -0.74119938      -0.55232094       0.01569143
C       -1.58385382       0.69129727       0.31007915
O       -0.51361104       1.61695439       0.43100459
H        2.65625058       0.13104595       0.02230299
H        1.80588524      -1.33633328       0.58051551
H        1.95578961      -0.96987377      -1.15315636
H        0.18371570       1.53121079      -0.68804986
H       -1.09308975      -1.23703321      -0.75850112
H       -0.57220352      -1.11316661       0.94639846
H       -2.16715186       0.63971719       1.23104609
H       -2.25776329       0.93727804      -0.51901450
