13
Frame=0 idx=002249 GeodesicLength=0.0 rxn_smarts="[O:1]([C:2]1([H:7])[C:3]([H:8])([H:9])[C:4]([H:10])([H:11])[C:5]1([H:12])[H:13])[H:6]>>[H:8][H:11].[O:1]([C@@:2]1([H:7])[C:3]([H:9])=[C:4]([H:10])[C:5]1([H:12])[H:13])[H:6]"
O        1.83971025       0.70415506      -0.24396286
C        0.87270985      -0.28670776      -0.49782732
C       -0.07382930      -0.63758245       0.66808941
C       -0.95488259       0.40481071       0.29196037
C       -0.39678051       0.44585137      -1.12422231
H        2.49097171       0.34376946       0.36002986
H        1.30074730      -1.11059050      -1.08112373
H       -0.78324866      -0.49647310       1.96073239
H       -0.39984404      -1.66818635       0.72164464
H       -1.07887164       1.31955505       0.85022112
H       -1.72111099      -0.20102262       1.51210271
H       -0.19380467       1.40697163      -1.59848077
H       -0.90176665      -0.22455044      -1.81916352
13
Frame=1 idx=002249 GeodesicLength=0.20508766822920593 rxn_smarts="[O:1]([C:2]1([H:7])[C:3]([H:8])([H:9])[C:4]([H:10])([H:11])[C:5]1([H:12])[H:13])[H:6]>>[H:8][H:11].[O:1]([C@@:2]1([H:7])[C:3]([H:9])=[C:4]([H:10])[C:5]1([H:12])[H:13])[H:6]"
O        1.85944736       0.68190683      -0.23510168
C        0.87036900      -0.28214549      -0.50347574
C       -0.06875536      -0.62850109       0.66379355
C       -0.97293367       0.39011067       0.27481765
C       -0.39104822       0.45465559      -1.12773720
H        2.51774930       0.29283659       0.34284466
H        1.28970431      -1.11620228      -1.07861563
H       -0.72963821      -0.43818216       2.00521999
H       -0.35188228      -1.66842560       0.76186336
H       -1.15019969       1.30793110       0.81486096
H       -1.77270531      -0.24383289       1.49952803
H       -0.19527800       1.43194764      -1.57092917
H       -0.90482922      -0.18209893      -1.84706878
13
Frame=2 idx=002249 GeodesicLength=0.40996881739233537 rxn_smarts="[O:1]([C:2]1([H:7])[C:3]([H:8])([H:9])[C:4]([H:10])([H:11])[C:5]1([H:12])[H:13])[H:6]>>[H:8][H:11].[O:1]([C@@:2]1([H:7])[C:3]([H:9])=[C:4]([H:10])[C:5]1([H:12])[H:13])[H:6]"
O        1.88002914       0.65699409      -0.22689689
C        0.86781264      -0.27804152      -0.50860705
C       -0.06377945      -0.61900310       0.66055867
C       -0.99108018       0.37417811       0.25774230
C       -0.38507235       0.46462812      -1.13001860
H        2.54400643       0.23889250       0.32357884
H        1.27644995      -1.12273849      -1.07598910
H       -0.67014015      -0.36804730       2.04811655
H       -0.30169448      -1.66473383       0.80569513
H       -1.22451534       1.29109814       0.77916800
H       -1.82881592      -0.29557928       1.48076790
H       -0.19631720       1.45780433      -1.53975119
H       -0.90688308      -0.13545177      -1.87436456
13
Frame=3 idx=002249 GeodesicLength=0.6144604359957861 rxn_smarts="[O:1]([C:2]1([H:7])[C:3]([H:8])([H:9])[C:4]([H:10])([H:11])[C:5]1([H:12])[H:13])[H:6]>>[H:8][H:11].[O:1]([C@@:2]1([H:7])[C:3]([H:9])=[C:4]([H:10])[C:5]1([H:12])[H:13])[H:6]"
O        1.90182982       0.62858355      -0.22022449
C        0.86484349      -0.27468228      -0.51302434
C       -0.05872758      -0.60872478       0.65908274
C       -1.00903650       0.35723566       0.24136789
C       -0.37889914       0.47614570      -1.13036019
H        2.56949998       0.18141043       0.30216326
H        1.26004355      -1.13072045      -1.07309171
H       -0.60141248      -0.28242265       2.08885348
H       -0.24946287      -1.65597765       0.85445543
H       -1.30191736       1.26842371       0.74399851
H       -1.89185488      -0.36025393       1.45087254
H       -0.19677077       1.48475397      -1.50398648
H       -0.90813527      -0.08377128      -1.90010665
13
Frame=4 idx=002249 GeodesicLength=0.8182703966668792 rxn_smarts="[O:1]([C:2]1([H:7])[C:3]([H:8])([H:9])[C:4]([H:10])([H:11])[C:5]1([H:12])[H:13])[H:6]>>[H:8][H:11].[O:1]([C@@:2]1([H:7])[C:3]([H:9])=[C:4]([H:10])[C:5]1([H:12])[H:13])[H:6]"
O        1.92540076       0.59531270      -0.21637975
C        0.86100580      -0.27249834      -0.51615159
C       -0.05328335      -0.59660939       0.66098406
C       -1.02654298       0.33982663       0.22696352
C       -0.37264609       0.48988543      -1.12741909
H        2.59449375       0.11884960       0.27745017
H        1.23864913      -1.14111749      -1.06922233
H       -0.51798108      -0.17494535       2.12629199
H       -0.19507821      -1.64007141       0.91096336
H       -1.38312791       1.23900165       0.71107217
H       -1.96551569      -0.44521743       1.39995517
H       -0.19641057       1.51330482      -1.46184346
H       -0.90896354      -0.02572143      -1.92266421
13
Frame=5 idx=002249 GeodesicLength=1.0208569105196361 rxn_smarts="[O:1]([C:2]1([H:7])[C:3]([H:8])([H:9])[C:4]([H:10])([H:11])[C:5]1([H:12])[H:13])[H:6]>>[H:8][H:11].[O:1]([C@@:2]1([H:7])[C:3]([H:9])=[C:4]([H:10])[C:5]1([H:12])[H:13])[H:6]"
O        1.95170331       0.55435054      -0.21785014
C        0.85519953      -0.27238090      -0.51665241
C       -0.04674381      -0.58011453       0.66992408
C       -1.04356419       0.32282491       0.21719837
C       -0.36661963       0.50723236      -1.11841244
H        2.61964304       0.04761617       0.24649481
H        1.20826097      -1.15603300      -1.06254195
H       -0.41024769      -0.03365323       2.15774039
H       -0.13807024      -1.61266924       0.98152918
H       -1.47082625       1.20090236       0.68353003
H       -2.05385291      -0.56418957       1.30754710
H       -0.19484342       1.54474179      -1.40941579
H       -0.91003871       0.04137233      -1.93909122
13
Frame=6 idx=002249 GeodesicLength=1.2203286347269153 rxn_smarts="[O:1]([C:2]1([H:7])[C:3]([H:8])([H:9])[C:4]([H:10])([H:11])[C:5]1([H:12])[H:13])[H:6]>>[H:8][H:11].[O:1]([C@@:2]1([H:7])[C:3]([H:9])=[C:4]([H:10])[C:5]1([H:12])[H:13])[H:6]"
O        1.98051709       0.50090949      -0.22731431
C        0.84455556      -0.27593494      -0.51140942
C       -0.03897500      -0.55487290       0.69233302
C       -1.06146620       0.30687512       0.21678621
C       -0.36205834       0.53005340      -1.09809313
H        2.64426253      -0.03840687       0.20514742
H        1.16155819      -1.17881874      -1.04835821
H       -0.26220881       0.16080363       2.17425432
H       -0.07944049      -1.56618266       1.07614961
H       -1.56862781       1.14990855       0.66775886
H       -2.15334247      -0.73628912       1.13646591
H       -0.19206518       1.58061768      -1.33966202
H       -0.91270908       0.12133737      -1.94405825
13
Frame=7 idx=002249 GeodesicLength=1.4126868863326487 rxn_smarts="[O:1]([C:2]1([H:7])[C:3]([H:8])([H:9])[C:4]([H:10])([H:11])[C:5]1([H:12])[H:13])[H:6]>>[H:8][H:11].[O:1]([C@@:2]1([H:7])[C:3]([H:9])=[C:4]([H:10])[C:5]1([H:12])[H:13])[H:6]"
O        2.00809039       0.43153413      -0.24622685
C        0.82542061      -0.28475565      -0.49658796
C       -0.03042101      -0.51741070       0.73432655
C       -1.08364213       0.28962241       0.23020774
C       -0.36170161       0.55819770      -1.06139882
H        2.66282183      -0.14203638       0.15470860
H        1.09269955      -1.21142019      -1.02050253
H       -0.07162642       0.41414900       2.15529393
H       -0.02691483      -1.49557572       1.19823858
H       -1.67534154       1.08187216       0.66995890
H       -2.23030212      -0.95981736       0.86075511
H       -0.19041781       1.62013779      -1.24644356
H       -0.91866489       0.21550281      -1.93232967
13
Frame=8 idx=002249 GeodesicLength=1.5997286995671414 rxn_smarts="[O:1]([C:2]1([H:7])[C:3]([H:8])([H:9])[C:4]([H:10])([H:11])[C:5]1([H:12])[H:13])[H:6]>>[H:8][H:11].[O:1]([C@@:2]1([H:7])[C:3]([H:9])=[C:4]([H:10])[C:5]1([H:12])[H:13])[H:6]"
O        2.02730875       0.35338226      -0.26789516
C        0.79858816      -0.29675218      -0.47288770
C       -0.02310704      -0.47268821       0.78926245
C       -1.11102928       0.26674357       0.25375472
C       -0.36744286       0.58595981      -1.01267641
H        2.66797886      -0.25296170       0.10645208
H        1.01029813      -1.24765906      -0.97890139
H        0.12692931       0.68428095       2.08492280
H        0.01005716      -1.41209112       1.32682634
H       -1.77544081       1.00277712       0.68721363
H       -2.24090002      -1.18184429       0.52744988
H       -0.19462132       1.65651963      -1.13770751
H       -0.92861903       0.31433322      -1.90581373
13
Frame=9 idx=002249 GeodesicLength=1.7887093312367344 rxn_smarts="[O:1]([C:2]1([H:7])[C:3]([H:8])([H:9])[C:4]([H:10])([H:11])[C:5]1([H:12])[H:13])[H:6]>>[H:8][H:11].[O:1]([C@@:2]1([H:7])[C:3]([H:9])=[C:4]([H:10])[C:5]1([H:12])[H:13])[H:6]"
O        2.03598627       0.27709738      -0.28580919
C        0.76866357      -0.30869076      -0.44406424
C       -0.01824109      -0.42792870       0.84685749
C       -1.14056894       0.23822273       0.28185429
C       -0.37905596       0.60779124      -0.96043618
H        2.66003867      -0.35760089       0.06894334
H        0.92873594      -1.28092071      -0.92859321
H        0.31128725       0.92772108       1.97207042
H        0.03388015      -1.33032027       1.44397302
H       -1.85852779       0.92336026       0.71402907
H       -2.19127236      -1.35793735       0.18995696
H       -0.20761135       1.68383394      -1.02880002
H       -0.94331437       0.40537206      -1.86998173
13
Frame=10 idx=002249 GeodesicLength=1.9804058062913694 rxn_smarts="[O:1]([C:2]1([H:7])[C:3]([H:8])([H:9])[C:4]([H:10])([H:11])[C:5]1([H:12])[H:13])[H:6]>>[H:8][H:11].[O:1]([C@@:2]1([H:7])[C:3]([H:9])=[C:4]([H:10])[C:5]1([H:12])[H:13])[H:6]"
O        2.03663366       0.20728507      -0.29905325
C        0.73901886      -0.31941935      -0.41263682
C       -0.01480835      -0.38504298       0.90289507
C       -1.16965875       0.20422409       0.31149021
C       -0.39516943       0.62210931      -0.90896157
H        2.64387320      -0.45050835       0.04244338
H        0.85498673      -1.30997855      -0.87262119
H        0.47944679       1.13170223       1.83180511
H        0.05201181      -1.25378546       1.54775966
H       -1.92627647       0.84584300       0.74580636
H       -2.10802848      -1.47761422      -0.13359125
H       -0.22969687       1.70130253      -0.92651915
H       -0.96233271       0.48388267      -1.82881658
13
Frame=11 idx=002249 GeodesicLength=2.173616988761982 rxn_smarts="[O:1]([C:2]1([H:7])[C:3]([H:8])([H:9])[C:4]([H:10])([H:11])[C:5]1([H:12])[H:13])[H:6]>>[H:8][H:11].[O:1]([C@@:2]1([H:7])[C:3]([H:9])=[C:4]([H:10])[C:5]1([H:12])[H:13])[H:6]"
O        2.03192985       0.14380498      -0.30942164
C        0.71088922      -0.32927914      -0.37969437
C       -0.01143220      -0.34279071       0.95677562
C       -1.19700063       0.16396872       0.34148382
C       -0.41463545       0.62935302      -0.85922304
H        2.62316550      -0.53149519       0.02579012
H        0.78996858      -1.33632377      -0.81160294
H        0.63586729       1.29910297       1.67320629
H        0.07022486      -1.17904697       1.64290209
H       -1.98358402       0.76662688       0.78007295
H       -2.01014291      -1.54413728      -0.44469985
H       -0.26023625       1.71019423      -0.83138696
H       -0.98501382       0.55002226      -1.78420208
13
Frame=12 idx=002249 GeodesicLength=2.3673360218549258 rxn_smarts="[O:1]([C:2]1([H:7])[C:3]([H:8])([H:9])[C:4]([H:10])([H:11])[C:5]1([H:12])[H:13])[H:6]>>[H:8][H:11].[O:1]([C@@:2]1([H:7])[C:3]([H:9])=[C:4]([H:10])[C:5]1([H:12])[H:13])[H:6]"
O        2.02348474       0.08390113      -0.31862863
C        0.68405818      -0.33908296      -0.34544472
C       -0.00770547      -0.29876542       1.00901977
C       -1.22218712       0.11643513       0.37146975
C       -0.43676942       0.63100871      -0.81060949
H        2.59968157      -0.60389812       0.01724274
H        0.73140050      -1.36177032      -0.74497253
H        0.78410004       1.43643122       1.49880752
H        0.09110823      -1.10062059       1.73424699
H       -2.03506799       0.68085575       0.81501117
H       -1.90300715      -1.56359020      -0.74849297
H       -0.29842372       1.71239325      -0.74094598
H       -1.01067240       0.60670241      -1.73670363
13
Frame=13 idx=002249 GeodesicLength=2.561183508296677 rxn_smarts="[O:1]([C:2]1([H:7])[C:3]([H:8])([H:9])[C:4]([H:10])([H:11])[C:5]1([H:12])[H:13])[H:6]>>[H:8][H:11].[O:1]([C@@:2]1([H:7])[C:3]([H:9])=[C:4]([H:10])[C:5]1([H:12])[H:13])[H:6]"
O        2.01164206       0.02433135      -0.32737294
C        0.65759544      -0.34935260      -0.30992015
C       -0.00438019      -0.25111049       1.05958316
C       -1.24489408       0.06160586       0.40149801
C       -0.46139923       0.62873716      -0.76228206
H        2.57325562      -0.67175307       0.01593855
H        0.67605763      -1.38709215      -0.67256768
H        0.92594266       1.54796365       1.30692966
H        0.11446717      -1.01420577       1.82394258
H       -2.08323093       0.58532045       0.84974599
H       -1.78215608      -1.54110986      -1.04706938
H       -0.34332384       1.70950772      -0.65257355
H       -1.03957622       0.65715775      -1.68585218
13
Frame=14 idx=002249 GeodesicLength=2.755085759746743 rxn_smarts="[O:1]([C:2]1([H:7])[C:3]([H:8])([H:9])[C:4]([H:10])([H:11])[C:5]1([H:12])[H:13])[H:6]>>[H:8][H:11].[O:1]([C@@:2]1([H:7])[C:3]([H:9])=[C:4]([H:10])[C:5]1([H:12])[H:13])[H:6]"
O        1.99612623      -0.03746844      -0.33531723
C        0.63054553      -0.36017160      -0.27345779
C       -0.00273654      -0.19990715       1.10767411
C       -1.26468436       0.00142178       0.43242783
C       -0.48880818       0.62387777      -0.71378296
H        2.54294298      -0.73823249       0.02197240
H        0.62108616      -1.41174545      -0.59617063
H        1.05958216       1.63513766       1.09358647
H        0.13812884      -0.91930477       1.91095170
H       -2.12784756       0.48072224       0.88533788
H       -1.63769742      -1.48046792      -1.33772441
H       -0.39330640       1.70257877      -0.56488800
H       -1.07333144       0.70355960      -1.63060936
13
Frame=15 idx=002249 GeodesicLength=2.9491121667353677 rxn_smarts="[O:1]([C:2]1([H:7])[C:3]([H:8])([H:9])[C:4]([H:10])([H:11])[C:5]1([H:12])[H:13])[H:6]>>[H:8][H:11].[O:1]([C@@:2]1([H:7])[C:3]([H:9])=[C:4]([H:10])[C:5]1([H:12])[H:13])[H:6]"
O        1.97644023      -0.10269132      -0.34130452
C        0.60221954      -0.37158046      -0.23647884
C       -0.00364876      -0.14740924       1.15262106
C       -1.28137518      -0.06060944       0.46619130
C       -0.51957837       0.61683372      -0.66496205
H        2.50799497      -0.80492060       0.03551232
H        0.56448829      -1.43467853      -0.51942667
H        1.17878836       1.69776662       0.85343844
H        0.15962329      -0.81964259       1.99279992
H       -2.16674549       0.37199537       0.92512770
H       -1.45834834      -1.38260392      -1.61542507
H       -0.44556549       1.69185613      -0.47825031
H       -1.11429303       0.74568425      -1.56984328
13
Frame=16 idx=002249 GeodesicLength=3.143324731550688 rxn_smarts="[O:1]([C:2]1([H:7])[C:3]([H:8])([H:9])[C:4]([H:10])([H:11])[C:5]1([H:12])[H:13])[H:6]>>[H:8][H:11].[O:1]([C@@:2]1([H:7])[C:3]([H:9])=[C:4]([H:10])[C:5]1([H:12])[H:13])[H:6]"
O        1.95190156      -0.17126290      -0.34398081
C        0.57202320      -0.38411386      -0.19884998
C       -0.00717131      -0.09645990       1.19480605
C       -1.29555387      -0.12125174       0.50547171
C       -0.55457704       0.60665587      -0.61562698
H        2.46812720      -0.87209544       0.05594455
H        0.50471056      -1.45547883      -0.44623736
H        1.27481460       1.73389827       0.57982585
H        0.17783804      -0.72021688       2.06821585
H       -2.19808304       0.26551309       0.97351834
H       -1.23290660      -1.24199335      -1.87523557
H       -0.49682437       1.67682081      -0.39466235
H       -1.16429892       0.77998486      -1.50318932
