14
Frame=0 idx=011764 GeodesicLength=0.0 rxn_smarts="[C:1]1([H:8])([H:9])[C@:2]2([H:10])[O:3][C@:4]3([H:11])[C:5]([H:12])([H:13])[N:6]1[C@:7]23[H:14]>>[C:1]([C@@:2]12[O:3][C@@:4]3([H:11])[C:5]([H:12])([H:13])[N:6]1[C@@:7]23[H:14])([H:8])([H:9])[H:10]"
C       -1.69797817      -0.89202408       0.13124268
C       -0.95730886       0.21647460      -0.24827523
O       -0.51410362       1.21440604       0.55173886
C        0.85750395       1.04933771       0.00883135
C        1.57434201      -0.10219118       0.72460776
N        0.90786165      -1.09546425      -0.13683005
C        0.33729331      -0.02169285      -0.95973679
H       -2.30167572      -0.91360441       1.03343138
H       -1.79393285      -1.67661628      -0.60827923
H       -2.16791085       0.42798439      -0.65078263
H        1.30244718       2.01998973      -0.20297606
H        2.66992534      -0.04685804       0.60505018
H        1.36653488      -0.15036258       1.80227973
H        0.41700181      -0.02937884      -2.05030195
14
Frame=1 idx=011764 GeodesicLength=0.08720997590896902 rxn_smarts="[C:1]1([H:8])([H:9])[C@:2]2([H:10])[O:3][C@:4]3([H:11])[C:5]([H:12])([H:13])[N:6]1[C@:7]23[H:14]>>[C:1]([C@@:2]12[O:3][C@@:4]3([H:11])[C:5]([H:12])([H:13])[N:6]1[C@@:7]23[H:14])([H:8])([H:9])[H:10]"
C       -1.67938203      -0.89569355       0.13044292
C       -0.95206433       0.22417426      -0.25922078
O       -0.51244626       1.23033702       0.53887352
C        0.85981962       1.05684531       0.00706934
C        1.55514184      -0.10352888       0.72885194
N        0.86508447      -1.08804909      -0.12582862
C        0.34147190      -0.00622416      -0.97227158
H       -2.25387882      -0.92683926       1.05139263
H       -1.79017797      -1.67793882      -0.60989471
H       -2.18204500       0.40952326      -0.64033213
H        1.31780923       2.02302757      -0.19670866
H        2.65007565      -0.07583354       0.60188304
H        1.34897387      -0.14474416       1.80667975
H        0.43161781      -0.02505595      -2.06093666
14
Frame=2 idx=011764 GeodesicLength=0.17449068020841474 rxn_smarts="[C:1]1([H:8])([H:9])[C@:2]2([H:10])[O:3][C@:4]3([H:11])[C:5]([H:12])([H:13])[N:6]1[C@:7]23[H:14]>>[C:1]([C@@:2]12[O:3][C@@:4]3([H:11])[C:5]([H:12])([H:13])[N:6]1[C@@:7]23[H:14])([H:8])([H:9])[H:10]"
C       -1.66164731      -0.89901505       0.12975514
C       -0.94693304       0.23152322      -0.26984604
O       -0.51060895       1.24548548       0.52667611
C        0.86201127       1.06400820       0.00536670
C        1.53636977      -0.10465946       0.73274386
N        0.82423751      -1.07977700      -0.11640813
C        0.34560609       0.00845762      -0.98423611
H       -2.20758190      -0.93855944       1.06776831
H       -1.78641877      -1.67973804      -0.61037708
H       -2.19520410       0.39124580      -0.62964757
H        1.33251305       2.02570641      -0.19047584
H        2.62998935      -0.10357633       0.59894120
H        1.33164142      -0.14001080       1.81061072
H        0.44602561      -0.02109062      -2.07087128
14
Frame=3 idx=011764 GeodesicLength=0.2618305473916925 rxn_smarts="[C:1]1([H:8])([H:9])[C@:2]2([H:10])[O:3][C@:4]3([H:11])[C:5]([H:12])([H:13])[N:6]1[C@:7]23[H:14]>>[C:1]([C@@:2]12[O:3][C@@:4]3([H:11])[C:5]([H:12])([H:13])[N:6]1[C@@:7]23[H:14])([H:8])([H:9])[H:10]"
C       -1.64471119      -0.90203455       0.12919237
C       -0.94190843       0.23854902      -0.28016177
O       -0.50860414       1.25991864       0.51511282
C        0.86409188       1.07085558       0.00372265
C        1.51801098      -0.10560142       0.73630392
N        0.78520084      -1.07080653      -0.10840607
C        0.34968313       0.02244445      -0.99569162
H       -2.16278843      -0.94889372       1.08271729
H       -1.78262496      -1.68196799      -0.60985918
H       -2.20745650       0.37314623      -0.61876926
H        1.34661337       2.02805706      -0.18426805
H        2.60972274      -0.13015915       0.59616029
H        1.31452908      -0.13606822       1.81411527
H        0.46024163      -0.01743942      -2.08016867
14
Frame=4 idx=011764 GeodesicLength=0.3492100400166363 rxn_smarts="[C:1]1([H:8])([H:9])[C@:2]2([H:10])[O:3][C@:4]3([H:11])[C:5]([H:12])([H:13])[N:6]1[C@:7]23[H:14]>>[C:1]([C@@:2]12[O:3][C@@:4]3([H:11])[C:5]([H:12])([H:13])[N:6]1[C@@:7]23[H:14])([H:8])([H:9])[H:10]"
C       -1.62851629      -0.90479094       0.12876163
C       -0.93698468       0.24527725      -0.29017852
O       -0.50644348       1.27369530       0.50415298
C        0.86607374       1.07741344       0.00213666
C        1.50005258      -0.10637173       0.73955010
N        0.74786616      -1.06126343      -0.10168411
C        0.35369506       0.03581446      -1.00669000
H       -2.11949915      -0.95795442       1.09637882
H       -1.77876908      -1.68458957      -0.60845071
H       -2.21886586       0.35521794      -0.60773268
H        1.36015933       2.03010568      -0.17807845
H        2.58931982      -0.15564822       0.59348821
H        1.29763266      -0.13283838       1.81722753
H        0.47427919      -0.01406739      -2.08888145
14
Frame=5 idx=011764 GeodesicLength=0.43662023493258634 rxn_smarts="[C:1]1([H:8])([H:9])[C@:2]2([H:10])[O:3][C@:4]3([H:11])[C:5]([H:12])([H:13])[N:6]1[C@:7]23[H:14]>>[C:1]([C@@:2]12[O:3][C@@:4]3([H:11])[C:5]([H:12])([H:13])[N:6]1[C@@:7]23[H:14])([H:8])([H:9])[H:10]"
C       -1.61300995      -0.90731446       0.12846480
C       -0.93215762       0.25173452      -0.29991079
O       -0.50413866       1.28687262       0.49376358
C        0.86796700       1.08370511       0.00060732
C        1.48247657      -0.10698934       0.74249928
N        0.71212295      -1.05124903      -0.09612169
C        0.35763468       0.04863644      -1.01727688
H       -2.07768446      -0.96585350       1.10888867
H       -1.77482617      -1.68756651      -0.60624272
H       -2.22949416       0.33745571      -0.59657561
H        1.37320129       2.03187588      -0.17190145
H        2.56882430      -0.18010822       0.59088454
H        1.28093436      -0.13025504       1.81997744
H        0.48814988      -0.01094417      -2.09705647
14
Frame=6 idx=011764 GeodesicLength=0.5240398436689122 rxn_smarts="[C:1]1([H:8])([H:9])[C@:2]2([H:10])[O:3][C@:4]3([H:11])[C:5]([H:12])([H:13])[N:6]1[C@:7]23[H:14]>>[C:1]([C@@:2]12[O:3][C@@:4]3([H:11])[C:5]([H:12])([H:13])[N:6]1[C@@:7]23[H:14])([H:8])([H:9])[H:10]"
C       -1.59814753      -0.90963099       0.12830311
C       -0.92742376       0.25794390      -0.30937100
O       -0.50169881       1.29949687       0.48391731
C        0.86978109       1.08974835      -0.00086547
C        1.46526993      -0.10746609       0.74516906
N        0.67787521      -1.04084682      -0.09160835
C        0.36149863       0.06096396      -1.02748750
H       -2.03731815      -0.97268034       1.12034981
H       -1.77077975      -1.69086526      -0.60331915
H       -2.23939727       0.31984958      -0.58532471
H        1.38577770       2.03338178      -0.16573249
H        2.54826117      -0.20359437       0.58831097
H        1.26443825      -0.12825722       1.82239120
H        0.50186328      -0.00804335      -2.10473281
14
Frame=7 idx=011764 GeodesicLength=0.6114751514774961 rxn_smarts="[C:1]1([H:8])([H:9])[C@:2]2([H:10])[O:3][C@:4]3([H:11])[C:5]([H:12])([H:13])[N:6]1[C@:7]23[H:14]>>[C:1]([C@@:2]12[O:3][C@@:4]3([H:11])[C:5]([H:12])([H:13])[N:6]1[C@@:7]23[H:14])([H:8])([H:9])[H:10]"
C       -1.58388069      -0.91176316       0.12827560
C       -0.92278083       0.26393276      -0.31857566
O       -0.49913369       1.31161743       0.47458417
C        0.87152419       1.09556206      -0.00228401
C        1.44841428      -0.10781742       0.74757492
N        0.64501912      -1.03012731      -0.08804691
C        0.36528364       0.07284971      -1.03735701
H       -1.99834390      -0.97853030       1.13087512
H       -1.76661394      -1.69445224      -0.59975972
H       -2.24863452       0.30238884      -0.57400684
H        1.39793337       2.03464093      -0.15957208
H        2.52765523      -0.22616816       0.58574011
H        1.24812728      -0.12678954       1.82449304
H        0.51543043      -0.00534361      -2.11194073
14
Frame=8 idx=011764 GeodesicLength=0.698908033769222 rxn_smarts="[C:1]1([H:8])([H:9])[C@:2]2([H:10])[O:3][C@:4]3([H:11])[C:5]([H:12])([H:13])[N:6]1[C@:7]23[H:14]>>[C:1]([C@@:2]12[O:3][C@@:4]3([H:11])[C:5]([H:12])([H:13])[N:6]1[C@@:7]23[H:14])([H:8])([H:9])[H:10]"
C       -1.57017240      -0.91372698       0.12837892
C       -0.91822626       0.26971990      -0.32753852
O       -0.49644973       1.32327160       0.46573661
C        0.87320286       1.10116088      -0.00364958
C        1.43189588      -0.10805291       0.74973185
N        0.61346815      -1.01914541      -0.08535596
C        0.36898861       0.08433383      -1.04691312
H       -1.96071164      -0.98347927       1.14055591
H       -1.76231704      -1.69830164      -0.59562689
H       -2.25724974       0.28506920      -0.56264360
H        1.40969607       2.03566459      -0.15341649
H        2.50702262      -0.24788148       0.58314900
H        1.23199320      -0.12580605       1.82630268
H        0.52885942      -0.00282626      -2.11871082
14
Frame=9 idx=011764 GeodesicLength=0.7862396905602249 rxn_smarts="[C:1]1([H:8])([H:9])[C@:2]2([H:10])[O:3][C@:4]3([H:11])[C:5]([H:12])([H:13])[N:6]1[C@:7]23[H:14]>>[C:1]([C@@:2]12[O:3][C@@:4]3([H:11])[C:5]([H:12])([H:13])[N:6]1[C@@:7]23[H:14])([H:8])([H:9])[H:10]"
C       -1.55706841      -0.91551704       0.12860617
C       -0.91373446       0.27528622      -0.33624165
O       -0.49364451       1.33444526       0.45739310
C        0.87482890       1.10654509      -0.00495879
C        1.41573669      -0.10817955       0.75165062
N        0.58318713      -1.00791051      -0.08344561
C        0.37262622       0.09542269      -1.05616280
H       -1.92451318      -0.98754412       1.14938881
H       -1.75784734      -1.70242405      -0.59087422
H       -2.26530082       0.26786664      -0.55132910
H        1.42108619       2.03646645      -0.14726751
H        2.48641630      -0.26876176       0.58049712
H        1.21610181      -0.12528602       1.82782687
H        0.54212549      -0.00040932      -2.12508301
14
Frame=10 idx=011764 GeodesicLength=0.8735753024646272 rxn_smarts="[C:1]1([H:8])([H:9])[C@:2]2([H:10])[O:3][C@:4]3([H:11])[C:5]([H:12])([H:13])[N:6]1[C@:7]23[H:14]>>[C:1]([C@@:2]12[O:3][C@@:4]3([H:11])[C:5]([H:12])([H:13])[N:6]1[C@@:7]23[H:14])([H:8])([H:9])[H:10]"
C       -1.54444713      -0.91716711       0.12895392
C       -0.90933126       0.28070255      -0.34473825
O       -0.49073707       1.34523352       0.44948138
C        0.87640324       1.11174344      -0.00621933
C        1.39987668      -0.10821213       0.75335160
N        0.55402604      -0.99651771      -0.08223791
C        0.37617945       0.10618803      -1.06514995
H       -1.88950597      -0.99087528       1.15755849
H       -1.75323079      -1.70674865      -0.58568221
H       -2.27283155       0.25079450      -0.54001007
H        1.43214910       2.03705387      -0.14112453
H        2.46580940      -0.28888901       0.57778656
H        1.20036646      -0.12515541       1.82910110
H        0.55527339       0.00184939      -2.13107080
14
Frame=11 idx=011764 GeodesicLength=0.9609266491753401 rxn_smarts="[C:1]1([H:8])([H:9])[C@:2]2([H:10])[O:3][C@:4]3([H:11])[C:5]([H:12])([H:13])[N:6]1[C@:7]23[H:14]>>[C:1]([C@@:2]12[O:3][C@@:4]3([H:11])[C:5]([H:12])([H:13])[N:6]1[C@@:7]23[H:14])([H:8])([H:9])[H:10]"
C       -1.53228315      -0.91868510       0.12940904
C       -0.90501527       0.28598771      -0.35304147
O       -0.48773512       1.35566768       0.44198261
C        0.87792954       1.11676693      -0.00743115
C        1.38430023      -0.10816108       0.75484608
N        0.52590055      -0.98500297      -0.08165743
C        0.37964789       0.11666212      -1.07389518
H       -1.85562228      -0.99353864       1.16513401
H       -1.74846025      -1.71125234      -0.58009435
H       -2.27989017       0.23384568      -0.52871449
H        1.44291345       2.03743782      -0.13498698
H        2.44521766      -0.30830563       0.57499611
H        1.18478545      -0.12538015       1.83014044
H        0.56831145       0.00395798      -2.13668725
14
Frame=12 idx=011764 GeodesicLength=1.048296889472997 rxn_smarts="[C:1]1([H:8])([H:9])[C@:2]2([H:10])[O:3][C@:4]3([H:11])[C:5]([H:12])([H:13])[N:6]1[C@:7]23[H:14]>>[C:1]([C@@:2]12[O:3][C@@:4]3([H:11])[C:5]([H:12])([H:13])[N:6]1[C@@:7]23[H:14])([H:8])([H:9])[H:10]"
C       -1.52054833      -0.92007943       0.12996564
C       -0.90078600       0.29116116      -0.36116429
O       -0.48464341       1.36577545       0.43487805
C        0.87941380       1.12162558      -0.00859644
C        1.36899361      -0.10803351       0.75614635
N        0.49873749      -0.97339345      -0.08164013
C        0.38303188       0.12686986      -1.08241520
H       -1.82279695      -0.99559128       1.17216729
H       -1.74352815      -1.71591531      -0.57414883
H       -2.28651373       0.21701325      -0.51745682
H        1.45339929       2.03762227      -0.12885608
H        2.42464273      -0.32705590       0.57211499
H        1.16935480      -0.12592672       1.83095957
H        0.58124297       0.00592803      -2.14195409
14
Frame=13 idx=011764 GeodesicLength=1.1357132512677606 rxn_smarts="[C:1]1([H:8])([H:9])[C@:2]2([H:10])[O:3][C@:4]3([H:11])[C:5]([H:12])([H:13])[N:6]1[C@:7]23[H:14]>>[C:1]([C@@:2]12[O:3][C@@:4]3([H:11])[C:5]([H:12])([H:13])[N:6]1[C@@:7]23[H:14])([H:8])([H:9])[H:10]"
C       -1.50921526      -0.92135733       0.13061395
C       -0.89664337       0.29624241      -0.36912019
O       -0.48146790       1.37558561       0.42814850
C        0.88085993       1.12632929      -0.00971693
C        1.35394056      -0.10783672       0.75726426
N        0.47245798      -0.96171375      -0.08212517
C        0.38633178       0.13683582      -1.09072587
H       -1.79095041      -0.99709458       1.17871832
H       -1.73843175      -1.72071656      -0.56788896
H       -2.29274696       0.20029031      -0.50625468
H        1.46363502       2.03761563      -0.12273484
H        2.40409114      -0.34518231       0.56913320
H        1.15406535      -0.12676284       1.83157271
H        0.59407390       0.00776503      -2.14688430
14
Frame=14 idx=011764 GeodesicLength=1.2231773590541617 rxn_smarts="[C:1]1([H:8])([H:9])[C@:2]2([H:10])[O:3][C@:4]3([H:11])[C:5]([H:12])([H:13])[N:6]1[C@:7]23[H:14]>>[C:1]([C@@:2]12[O:3][C@@:4]3([H:11])[C:5]([H:12])([H:13])[N:6]1[C@@:7]23[H:14])([H:8])([H:9])[H:10]"
C       -1.49826533      -0.92252359       0.13134754
C       -0.89258664       0.30124500      -0.37692045
O       -0.47821151       1.38511860       0.42177755
C        0.88227084       1.13088470      -0.01079363
C        1.33912952      -0.10757581       0.75821091
N        0.44699903      -0.94998039      -0.08306106
C        0.38954913       0.14657723      -1.09883968
H       -1.76002113      -0.99809245       1.18482216
H       -1.73316848      -1.72563957      -0.56134614
H       -2.29861801       0.18367056      -0.49511619
H        1.47363528       2.03742141      -0.11662482
H        2.38356407      -0.36271807       0.56604198
H        1.13891638      -0.12786257       1.83199283
H        0.60680684       0.00947494      -2.15149098
14
Frame=15 idx=011764 GeodesicLength=1.310705873544067 rxn_smarts="[C:1]1([H:8])([H:9])[C@:2]2([H:10])[O:3][C@:4]3([H:11])[C:5]([H:12])([H:13])[N:6]1[C@:7]23[H:14]>>[C:1]([C@@:2]12[O:3][C@@:4]3([H:11])[C:5]([H:12])([H:13])[N:6]1[C@@:7]23[H:14])([H:8])([H:9])[H:10]"
C       -1.48767881      -0.92358270       0.13215816
C       -0.88861452       0.30618297      -0.38457558
O       -0.47487731       1.39439509       0.41575017
C        0.88365028       1.13529892      -0.01182803
C        1.32454882      -0.10725598       0.75899736
N        0.42229727      -0.93820715      -0.08440125
C        0.39268618       0.15611077      -1.10676858
H       -1.72994495      -0.99862964       1.19051712
H       -1.72773523      -1.73066920      -0.55454881
H       -2.30416198       0.16714636      -0.48405326
H        1.48342001       2.03704511      -0.11053035
H        2.36306381      -0.37969771       0.56283633
H        1.12390284      -0.12920164       1.83223145
H        0.61944361       0.01106480      -2.15578472
14
Frame=16 idx=011764 GeodesicLength=1.3983089777166648 rxn_smarts="[C:1]1([H:8])([H:9])[C@:2]2([H:10])[O:3][C@:4]3([H:11])[C:5]([H:12])([H:13])[N:6]1[C@:7]23[H:14]>>[C:1]([C@@:2]12[O:3][C@@:4]3([H:11])[C:5]([H:12])([H:13])[N:6]1[C@@:7]23[H:14])([H:8])([H:9])[H:10]"
C       -1.47743797      -0.92453846       0.13303847
C       -0.88472596       0.31106923      -0.39209496
O       -0.47146761       1.40343367       0.41005281
C        0.88500205       1.13957771      -0.01282133
C        1.31018758      -0.10688171       0.75963397
N        0.39829666      -0.92640475      -0.08610310
C        0.39574503       0.16545019      -1.11452214
H       -1.70066431      -0.99874419       1.19583115
H       -1.72212894      -1.73579171      -0.54752293
H       -2.30940931       0.15070922      -0.47307138
H        1.49300562       2.03648931      -0.10445471
H        2.34259060      -0.39615161       0.55951214
H        1.10902160      -0.13075669       1.83230012
H        0.63198495       0.01253979      -2.15977812
