13
Frame=0 idx=002867 GeodesicLength=0.0 rxn_smarts="[C:1]([C@@:2]([C:3]([O:4][H:13])([H:11])[H:12])([C:5]#[N:6])[H:10])([H:7])([H:8])[H:9]>>[C:1]([C:2]([C:5]#[N:6])([H:10])[H:11])([H:7])([H:8])[H:9].[C:3]([O:4][H:13])[H:12]"
C       -0.49665348       1.26197037      -0.00509889
C       -0.58078959      -0.10871622      -0.63414599
C        1.27541948      -1.07744581       0.32281018
O        1.99776647      -0.08368116       0.82661567
C       -1.61947940      -0.96740547      -0.13725002
N       -2.41593026      -1.68418319       0.28242917
H       -1.33879984       1.88672016      -0.30968413
H       -0.49073257       1.20140309       1.08270180
H        0.42034423       1.76480969      -0.31739600
H       -0.62140602      -0.06846252      -1.72550624
H        0.59171261      -0.85333429      -0.68059687
H        0.61508662      -1.45536485       1.10925608
H        2.66346174       0.18369019       0.18586525
13
Frame=1 idx=002867 GeodesicLength=0.09130176330554343 rxn_smarts="[C:1]([C@@:2]([C:3]([O:4][H:13])([H:11])[H:12])([C:5]#[N:6])[H:10])([H:7])([H:8])[H:9]>>[C:1]([C:2]([C:5]#[N:6])([H:10])[H:11])([H:7])([H:8])[H:9].[C:3]([O:4][H:13])[H:12]"
C       -0.51568532       1.27297240      -0.00102133
C       -0.57657796      -0.09638810      -0.63736377
C        1.24537503      -1.06869375       0.35352187
O        2.03319964      -0.09958475       0.80590296
C       -1.61915262      -0.96361910      -0.15888716
N       -2.37456520      -1.72282175       0.26186682
H       -1.36733705       1.88570379      -0.30327853
H       -0.51299421       1.20817206       1.08651665
H        0.39453806       1.79036310      -0.30898868
H       -0.61433107      -0.04385988      -1.72852340
H        0.59302976      -0.84901224      -0.69294814
H        0.60554925      -1.40171258       1.17684489
H        2.70895169       0.08848080       0.14635781
13
Frame=2 idx=002867 GeodesicLength=0.18207617865083972 rxn_smarts="[C:1]([C@@:2]([C:3]([O:4][H:13])([H:11])[H:12])([C:5]#[N:6])[H:10])([H:7])([H:8])[H:9]>>[C:1]([C:2]([C:5]#[N:6])([H:10])[H:11])([H:7])([H:8])[H:9].[C:3]([O:4][H:13])[H:12]"
C       -0.53594532       1.28442466       0.00266685
C       -0.57240196      -0.08372155      -0.64001074
C        1.21649199      -1.05617551       0.38291993
O        2.06860673      -0.11875920       0.78445824
C       -1.61694405      -0.96067108      -0.17835155
N       -2.33126630      -1.75943631       0.24090562
H       -1.39722828       1.88408556      -0.29817578
H       -0.53685132       1.21609121       1.08996539
H        0.36727591       1.81644475      -0.30058497
H       -0.60825593      -0.01959199      -1.73082891
H        0.59521523      -0.84304903      -0.70548312
H        0.60084593      -1.34544943       1.24108837
H        2.75045736      -0.01419208       0.11143068
13
Frame=3 idx=002867 GeodesicLength=0.27221593955735823 rxn_smarts="[C:1]([C@@:2]([C:3]([O:4][H:13])([H:11])[H:12])([C:5]#[N:6])[H:10])([H:7])([H:8])[H:9]>>[C:1]([C:2]([C:5]#[N:6])([H:10])[H:11])([H:7])([H:8])[H:9].[C:3]([O:4][H:13])[H:12]"
C       -0.55741328       1.29626483       0.00598963
C       -0.56813785      -0.07072373      -0.64206275
C        1.18933286      -1.03985712       0.41092482
O        2.10418199      -0.14127885       0.76234314
C       -1.61272666      -0.95860360      -0.19564948
N       -2.28687964      -1.79369320       0.21943696
H       -1.42853940       1.88168599      -0.29420173
H       -0.56212563       1.22502685       1.09307181
H        0.33838765       1.84316267      -0.29237722
H       -0.60309612       0.00430983      -1.73242863
H        0.59833418      -0.83549357      -0.71819719
H        0.60139075      -1.28710177       1.30175071
H        2.78729116      -0.12369834       0.08139992
13
Frame=4 idx=002867 GeodesicLength=0.36166183516364364 rxn_smarts="[C:1]([C@@:2]([C:3]([O:4][H:13])([H:11])[H:12])([C:5]#[N:6])[H:10])([H:7])([H:8])[H:9]>>[C:1]([C:2]([C:5]#[N:6])([H:10])[H:11])([H:7])([H:8])[H:9].[C:3]([O:4][H:13])[H:12]"
C       -0.58005284       1.30848124       0.00893364
C       -0.56366631      -0.05730462      -0.64360789
C        1.16427476      -1.01979757       0.43745002
O        2.13990750      -0.16735261       0.73967323
C       -1.60646671      -0.95731134      -0.21104021
N       -2.24144446      -1.82557591       0.19791218
H       -1.46126813       1.87842898      -0.29121803
H       -0.58866700       1.23483393       1.09581902
H        0.30774254       1.87065832      -0.28451852
H       -0.59872243       0.02797039      -1.73343526
H        0.60243027      -0.82632573      -0.73119755
H        0.60728201      -1.22725286       1.35859929
H        2.81865080      -0.23945222       0.05663008
13
Frame=5 idx=002867 GeodesicLength=0.45050121471296556 rxn_smarts="[C:1]([C@@:2]([C:3]([O:4][H:13])([H:11])[H:12])([C:5]#[N:6])[H:10])([H:7])([H:8])[H:9]>>[C:1]([C:2]([C:5]#[N:6])([H:10])[H:11])([H:7])([H:8])[H:9].[C:3]([O:4][H:13])[H:12]"
C       -0.60415921       1.32104730       0.01152396
C       -0.55892493      -0.04331747      -0.64480777
C        1.14182860      -0.99562657       0.46218174
O        2.17590403      -0.19673981       0.71598341
C       -1.59786206      -0.95693203      -0.22480506
N       -2.19528715      -1.85487787       0.17680489
H       -1.49594308       1.87398154      -0.28884285
H       -0.61648427       1.24529615       1.09822128
H        0.27472822       1.89923052      -0.27717120
H       -0.59522386       0.05162249      -1.73401278
H        0.60768915      -0.81514286      -0.74484369
H        0.61875143      -1.16580377       1.41129086
H        2.84498313      -0.36273762       0.03847720
13
Frame=6 idx=002867 GeodesicLength=0.5386533705181793 rxn_smarts="[C:1]([C@@:2]([C:3]([O:4][H:13])([H:11])[H:12])([C:5]#[N:6])[H:10])([H:7])([H:8])[H:9]>>[C:1]([C:2]([C:5]#[N:6])([H:10])[H:11])([H:7])([H:8])[H:9].[C:3]([O:4][H:13])[H:12]"
C       -0.62932178       1.33394808       0.01380545
C       -0.55369444      -0.02865431      -0.64566231
C        1.12192004      -0.96776622       0.48560641
O        2.21207851      -0.23072666       0.69175383
C       -1.58710232      -0.95702985      -0.23730212
N       -2.14719860      -1.88236949       0.15611605
H       -1.53188717       1.86852879      -0.28718263
H       -0.64533520       1.25631605       1.10032150
H        0.23977965       1.92878537      -0.27019385
H       -0.59205641       0.07540397      -1.73418736
H        0.61403233      -0.80226938      -0.75885955
H        0.63538921      -1.10299398       1.46035441
H        2.86339618      -0.49117239       0.02543015
13
Frame=7 idx=002867 GeodesicLength=0.6262207044406125 rxn_smarts="[C:1]([C@@:2]([C:3]([O:4][H:13])([H:11])[H:12])([C:5]#[N:6])[H:10])([H:7])([H:8])[H:9]>>[C:1]([C:2]([C:5]#[N:6])([H:10])[H:11])([H:7])([H:8])[H:9].[C:3]([O:4][H:13])[H:12]"
C       -0.65584922       1.34712491       0.01585706
C       -0.54788727      -0.01311995      -0.64635376
C        1.10505728      -0.93577297       0.50736269
O        2.24839798      -0.26943567       0.66638963
C       -1.57376278      -0.95775782      -0.24884290
N       -2.09700927      -1.90794537       0.13629229
H       -1.56961345       1.86168708      -0.28581809
H       -0.67526790       1.26761902       1.10218875
H        0.20225450       1.95959522      -0.26360130
H       -0.58930736       0.09964461      -1.73412861
H        0.62170461      -0.78719324      -0.77368518
H        0.65740334      -1.03818505       1.50544719
H        2.87387954      -0.62626077       0.01889222
13
Frame=8 idx=002867 GeodesicLength=0.7130417465606255 rxn_smarts="[C:1]([C@@:2]([C:3]([O:4][H:13])([H:11])[H:12])([C:5]#[N:6])[H:10])([H:7])([H:8])[H:9]>>[C:1]([C:2]([C:5]#[N:6])([H:10])[H:11])([H:7])([H:8])[H:9].[C:3]([O:4][H:13])[H:12]"
C       -0.68334727       1.36054609       0.01761474
C       -0.54126220       0.00329665      -0.64677026
C        1.09138399      -0.89980877       0.52780835
O        2.28443945      -0.31435489       0.64103030
C       -1.55773315      -0.95885297      -0.25928997
N       -2.04412410      -1.93196488       0.11712406
H       -1.60857970       1.85344103      -0.28486575
H       -0.70579322       1.27927459       1.10377010
H        0.16244693       1.99153681      -0.25765405
H       -0.58667496       0.12420759      -1.73374839
H        0.63083617      -0.77000444      -0.78912709
H        0.68450947      -0.97232037       1.54679651
H        2.87389861      -0.76499645       0.01731145
13
Frame=9 idx=002867 GeodesicLength=0.7991534650950328 rxn_smarts="[C:1]([C@@:2]([C:3]([O:4][H:13])([H:11])[H:12])([C:5]#[N:6])[H:10])([H:7])([H:8])[H:9]>>[C:1]([C:2]([C:5]#[N:6])([H:10])[H:11])([H:7])([H:8])[H:9].[C:3]([O:4][H:13])[H:12]"
C       -0.71189380       1.37414111       0.01914233
C       -0.53361294       0.02075208      -0.64695962
C        1.08136208      -0.85953901       0.54688877
O        2.31969037      -0.36627972       0.61574467
C       -1.53855079      -0.96034407      -0.26877019
N       -1.98792258      -1.95457871       0.09865856
H       -1.64892046       1.84346412      -0.28409811
H       -0.73681714       1.29113065       1.10513100
H        0.11997201       2.02475175      -0.25237923
H       -0.58402149       0.14927720      -1.73309193
H        0.64170854      -0.75033970      -0.80535257
H        0.71675137      -0.90499014       1.58438372
H        2.86225483      -0.90744556       0.02070260
13
Frame=10 idx=002867 GeodesicLength=0.8846673524888292 rxn_smarts="[C:1]([C@@:2]([C:3]([O:4][H:13])([H:11])[H:12])([C:5]#[N:6])[H:10])([H:7])([H:8])[H:9]>>[C:1]([C:2]([C:5]#[N:6])([H:10])[H:11])([H:7])([H:8])[H:9].[C:3]([O:4][H:13])[H:12]"
C       -0.74177119       1.38780230       0.02057892
C       -0.52479371       0.03959159      -0.64722793
C        1.07572075      -0.81446039       0.56377427
O        2.35337601      -0.42568732       0.58974496
C       -1.51549676      -0.96234689      -0.27766840
N       -1.92716564      -1.97576855       0.08172420
H       -1.69113928       1.83120302      -0.28285704
H       -0.76818392       1.30279880       1.10640446
H        0.07400561       2.05954884      -0.24777436
H       -0.58160285       0.17541318      -1.73241565
H        0.65469643      -0.72731258      -0.82322641
H        0.75447283      -0.83531635       1.61744735
H        2.83788172      -1.05546565       0.03149564
13
Frame=11 idx=002867 GeodesicLength=0.9697302824914895 rxn_smarts="[C:1]([C@@:2]([C:3]([O:4][H:13])([H:11])[H:12])([C:5]#[N:6])[H:10])([H:7])([H:8])[H:9]>>[C:1]([C:2]([C:5]#[N:6])([H:10])[H:11])([H:7])([H:8])[H:9].[C:3]([O:4][H:13])[H:12]"
C       -0.77287287       1.40139638       0.02191397
C       -0.51448854       0.05999591      -0.64767193
C        1.07517486      -0.76399962       0.57816321
O        2.38442732      -0.49435933       0.56407825
C       -1.48774086      -0.96487664      -0.28590643
N       -1.86056859      -1.99564682       0.06674400
H       -1.73514694       1.81617172      -0.28090439
H       -0.79940710       1.31418227       1.10759271
H        0.02422605       2.09591422      -0.24408819
H       -0.57944010       0.20266837      -1.73179334
H        0.67035222      -0.70014929      -0.84313937
H        0.79751984      -0.76366968       1.64560638
H        2.79796472      -1.20762749       0.04940514
13
Frame=12 idx=002867 GeodesicLength=1.0546408234134086 rxn_smarts="[C:1]([C@@:2]([C:3]([O:4][H:13])([H:11])[H:12])([C:5]#[N:6])[H:10])([H:7])([H:8])[H:9]>>[C:1]([C:2]([C:5]#[N:6])([H:10])[H:11])([H:7])([H:8])[H:9].[C:3]([O:4][H:13])[H:12]"
C       -0.80482457       1.41468015       0.02324378
C       -0.50220376       0.08196379      -0.64805022
C        1.08051976      -0.70803938       0.59038422
O        2.41073471      -0.57356507       0.53930152
C       -1.45445707      -0.96788413      -0.29304082
N       -1.78695283      -2.01481270       0.05250134
H       -1.78047310       1.79780306      -0.27805904
H       -0.82988167       1.32527516       1.10882114
H       -0.02951932       2.13369756      -0.24158292
H       -0.57709398       0.23082066      -1.73099453
H        0.68908149      -0.66873592      -0.86489015
H        0.84635584      -0.68942994       1.66939316
H        2.73871451      -1.36177324       0.07297252
13
Frame=13 idx=002867 GeodesicLength=1.140409247880189 rxn_smarts="[C:1]([C@@:2]([C:3]([O:4][H:13])([H:11])[H:12])([C:5]#[N:6])[H:10])([H:7])([H:8])[H:9]>>[C:1]([C:2]([C:5]#[N:6])([H:10])[H:11])([H:7])([H:8])[H:9].[C:3]([O:4][H:13])[H:12]"
C       -0.83785256       1.42702498       0.02502241
C       -0.48751034       0.10601371      -0.64923050
C        1.09347903      -0.64553957       0.59799754
O        2.42998525      -0.66510916       0.51512688
C       -1.41375679      -0.97181390      -0.30013734
N       -1.70366181      -2.03262766       0.04155286
H       -1.82742076       1.77485175      -0.27319010
H       -0.85937338       1.33468017       1.11046418
H       -0.08812970       2.17269562      -0.23927086
H       -0.57524412       0.26083801      -1.73066692
H        0.71182500      -0.63105521      -0.89072439
H        0.90137653      -0.61058929       1.68633781
H        2.65628364      -1.51936945       0.10671842
13
Frame=14 idx=002867 GeodesicLength=1.229222768445295 rxn_smarts="[C:1]([C@@:2]([C:3]([O:4][H:13])([H:11])[H:12])([C:5]#[N:6])[H:10])([H:7])([H:8])[H:9]>>[C:1]([C:2]([C:5]#[N:6])([H:10])[H:11])([H:7])([H:8])[H:9].[C:3]([O:4][H:13])[H:12]"
C       -0.87084949       1.43780982       0.02749050
C       -0.46975626       0.13184888      -0.65091836
C        1.11489710      -0.57779463       0.60119586
O        2.43734675      -0.76907902       0.49180150
C       -1.36471538      -0.97651185      -0.30653681
N       -1.60908296      -2.04993899       0.03149487
H       -1.87484661       1.74633785      -0.26527648
H       -0.88586485       1.34223530       1.11280608
H       -0.15157426       2.21228687      -0.23810436
H       -0.57348385       0.29213262      -1.73047697
H        0.73883511      -0.58742275      -0.92062146
H        0.96398563      -0.52675763       1.69697965
H        2.54510908      -1.67514648       0.15016598
13
Frame=15 idx=002867 GeodesicLength=1.3258456211840155 rxn_smarts="[C:1]([C@@:2]([C:3]([O:4][H:13])([H:11])[H:12])([C:5]#[N:6])[H:10])([H:7])([H:8])[H:9]>>[C:1]([C:2]([C:5]#[N:6])([H:10])[H:11])([H:7])([H:8])[H:9].[C:3]([O:4][H:13])[H:12]"
C       -0.90289868       1.44580583       0.03095736
C       -0.44791948       0.15900638      -0.65349177
C        1.14656452      -0.50516233       0.59867018
O        2.42753778      -0.88715920       0.47488154
C       -1.30533990      -0.98247133      -0.31258227
N       -1.50154307      -2.06597231       0.02463621
H       -1.92118968       1.71098951      -0.25451956
H       -0.90864674       1.34651100       1.11610775
H       -0.21892266       2.25077531      -0.23671258
H       -0.57163105       0.32391079      -1.73063972
H        0.77123692      -0.53738721      -0.95561876
H        1.03331715      -0.43711644       1.69985746
H        2.39943490      -1.82172999       0.19845415
13
Frame=16 idx=002867 GeodesicLength=1.4367936137737463 rxn_smarts="[C:1]([C@@:2]([C:3]([O:4][H:13])([H:11])[H:12])([C:5]#[N:6])[H:10])([H:7])([H:8])[H:9]>>[C:1]([C:2]([C:5]#[N:6])([H:10])[H:11])([H:7])([H:8])[H:9].[C:3]([O:4][H:13])[H:12]"
C       -0.93129261       1.44990792       0.03598733
C       -0.42252916       0.18601141      -0.65619588
C        1.18704251      -0.43287582       0.59060388
O        2.39401887      -1.01043995       0.46020221
C       -1.23766847      -0.98904520      -0.31642483
N       -1.38431743      -2.08302431       0.01193291
H       -1.96340297       1.66893113      -0.23801826
H       -0.92307824       1.34759123       1.12078134
H       -0.28834013       2.28615074      -0.23703422
H       -0.57025446       0.35434244      -1.73008125
H        0.80626011      -0.48463995      -0.99531375
H        1.11302185      -0.34397493       1.69535564
H        2.22054014      -1.94893471       0.25820488
