15
Frame=0 idx=006353 GeodesicLength=0.0 rxn_smarts="[C:1]([C:2]([O:3][C:4](=[O:5])[C:6]([O:7][H:15])([H:13])[H:14])([H:11])[H:12])([H:8])([H:9])[H:10]>>[C:1]([H:8])([H:9])([H:10])[H:14].[C:2](=[O+:3][C:4]([O-:5])=[C:6]([O:7][H:15])[H:13])([H:11])[H:12]"
C       -1.33041091       0.52037719       0.68243623
C       -1.04039848      -0.91570254      -0.85734834
O        0.03956423      -0.55631069      -1.47559733
C        1.18646272      -0.63140386      -0.57637952
O        1.45154627      -1.67834677      -0.02432948
C        1.44906990       0.68837439      -0.24457278
O        2.31135461       0.96300699       0.78484790
H       -0.96664669       0.82812827       1.67157345
H       -1.78396256       1.38031650       0.19329821
H       -2.10483129      -0.21263174       0.91222348
H       -1.96258778      -0.71000136      -1.38907637
H       -0.98782675      -1.77999971      -0.20242112
H        1.31171822       1.49237358      -0.95215266
H       -0.12787290       0.48921654       0.28903226
H        2.55482141       0.12260318       1.18846613
15
Frame=1 idx=006353 GeodesicLength=0.0999219018905625 rxn_smarts="[C:1]([C:2]([O:3][C:4](=[O:5])[C:6]([O:7][H:15])([H:13])[H:14])([H:11])[H:12])([H:8])([H:9])[H:10]>>[C:1]([H:8])([H:9])([H:10])[H:14].[C:2](=[O+:3][C:4]([O-:5])=[C:6]([O:7][H:15])[H:13])([H:11])[H:12]"
C       -1.35213345       0.52340535       0.68397816
C       -1.04211207      -0.91339223      -0.85239245
O        0.03758841      -0.54174711      -1.46945865
C        1.18868186      -0.62665533      -0.58182717
O        1.44786839      -1.67792267      -0.03459032
C        1.45940629       0.69113009      -0.23560893
O        2.34140071       0.94394332       0.78270313
H       -1.00844720       0.86510783       1.66889347
H       -1.83240282       1.36313323       0.18449634
H       -2.10580622      -0.22488687       0.93405357
H       -1.95891640      -0.73775394      -1.40390919
H       -0.98153292      -1.78138137      -0.20258124
H        1.33901918       1.49509022      -0.94690874
H       -0.11833908       0.52647385       0.30419716
H        2.58572532       0.09545562       1.16895487
15
Frame=2 idx=006353 GeodesicLength=0.19951424921666708 rxn_smarts="[C:1]([C:2]([O:3][C:4](=[O:5])[C:6]([O:7][H:15])([H:13])[H:14])([H:11])[H:12])([H:8])([H:9])[H:10]>>[C:1]([H:8])([H:9])([H:10])[H:14].[C:2](=[O+:3][C:4]([O-:5])=[C:6]([O:7][H:15])[H:13])([H:11])[H:12]"
C       -1.37347297       0.52631904       0.68563478
C       -1.04409297      -0.91091333      -0.84756331
O        0.03545541      -0.52696011      -1.46303235
C        1.19070730      -0.62172317      -0.58719400
O        1.44379806      -1.67723821      -0.04466042
C        1.46968557       0.69388041      -0.22651363
O        2.37168989       0.92463465       0.77954580
H       -1.05080485       0.90124961       1.66531276
H       -1.88045981       1.34461617       0.17628009
H       -2.10558833      -0.23649114       0.95643926
H       -1.95411765      -0.76555586      -1.41887955
H       -0.97552054      -1.78252290      -0.20291214
H        1.36641064       1.49728619      -0.94178274
H       -0.10853184       0.56506245       0.31965088
H        2.61484211       0.06835619       1.14967458
15
Frame=3 idx=006353 GeodesicLength=0.2987977178811886 rxn_smarts="[C:1]([C:2]([O:3][C:4](=[O:5])[C:6]([O:7][H:15])([H:13])[H:14])([H:11])[H:12])([H:8])([H:9])[H:10]>>[C:1]([H:8])([H:9])([H:10])[H:14].[C:2](=[O+:3][C:4]([O-:5])=[C:6]([O:7][H:15])[H:13])([H:11])[H:12]"
C       -1.39447113       0.52918361       0.68735563
C       -1.04634940      -0.90831217      -0.84285509
O        0.03314463      -0.51195099      -1.45629872
C        1.19254319      -0.61660406      -0.59250187
O        1.43939308      -1.67631204      -0.05463232
C        1.47985668       0.69661769      -0.21722878
O        2.40212141       0.90505386       0.77541826
H       -1.09371780       0.93650934       1.66081152
H       -1.92805023       1.32484200       0.16857270
H       -2.10423769      -0.24731498       0.97928667
H       -1.94815957      -0.79345157      -1.43396567
H       -0.96976590      -1.78341827      -0.20333832
H        1.39375974       1.49898093      -0.93666033
H       -0.09839353       0.60489046       0.33550469
H        2.64232651       0.04128618       1.13053163
15
Frame=4 idx=006353 GeodesicLength=0.3978072714596541 rxn_smarts="[C:1]([C:2]([O:3][C:4](=[O:5])[C:6]([O:7][H:15])([H:13])[H:14])([H:11])[H:12])([H:8])([H:9])[H:10]>>[C:1]([H:8])([H:9])([H:10])[H:14].[C:2](=[O+:3][C:4]([O-:5])=[C:6]([O:7][H:15])[H:13])([H:11])[H:12]"
C       -1.41518381       0.53206393       0.68908351
C       -1.04888766      -0.90563352      -0.83826244
O        0.03063260      -0.49671861      -1.44923744
C        1.19419234      -0.61129572      -0.59777890
O        1.43471168      -1.67516620      -0.06460899
C        1.48987826       0.69932718      -0.20770049
O        2.43259509       0.88516455       0.77036406
H       -1.13716573       0.97086964       1.65536023
H       -1.97511365       1.30387107       0.16130241
H       -2.10182526      -0.25722896       1.00250474
H       -1.94100393      -0.82149042      -1.44913670
H       -0.96424142      -1.78405750      -0.20378016
H        1.42093149       1.50020293      -0.93141352
H       -0.08784797       0.64586141       0.35187419
H        2.66832797       0.01423021       1.11142950
15
Frame=5 idx=006353 GeodesicLength=0.4965439131654547 rxn_smarts="[C:1]([C:2]([O:3][C:4](=[O:5])[C:6]([O:7][H:15])([H:13])[H:14])([H:11])[H:12])([H:8])([H:9])[H:10]>>[C:1]([H:8])([H:9])([H:10])[H:14].[C:2](=[O+:3][C:4]([O-:5])=[C:6]([O:7][H:15])[H:13])([H:11])[H:12]"
C       -1.43565706       0.53502188       0.69075319
C       -1.05171451      -0.90292520      -0.83378347
O        0.02789741      -0.48126682      -1.44183393
C        1.19565872      -0.60579812      -0.60305943
O        1.42980982      -1.67382738      -0.07470217
C        1.49970702       0.70198558      -0.19786720
O        2.46301572       0.86493021       0.76441932
H       -1.18111056       1.00433208       1.64891953
H       -2.02159990       1.28177401       0.15438304
H       -2.09839716      -0.26611620       1.02602400
H       -1.93260745      -0.84971708      -1.46435394
H       -0.95891999      -1.78443592      -0.20416135
H        1.44777541       1.50099467      -0.92590942
H       -0.07680379       0.68787024       0.36889645
H        2.69294631      -0.01282195       1.09227538
15
Frame=6 idx=006353 GeodesicLength=0.5950718908173551 rxn_smarts="[C:1]([C:2]([O:3][C:4](=[O:5])[C:6]([O:7][H:15])([H:13])[H:14])([H:11])[H:12])([H:8])([H:9])[H:10]>>[C:1]([H:8])([H:9])([H:10])[H:14].[C:2](=[O+:3][C:4]([O-:5])=[C:6]([O:7][H:15])[H:13])([H:11])[H:12]"
C       -1.45597334       0.53811288       0.69229840
C       -1.05482832      -0.90022281      -0.82940981
O        0.02492121      -0.46558995      -1.43406571
C        1.19695144      -0.60011152      -0.60837741
O        1.42474142      -1.67232186      -0.08502114
C        1.50933407       0.70456891      -0.18769234
O        2.49327960       0.84432101       0.75763159
H       -1.22553242       1.03690269       1.64143434
H       -2.06751378       1.25859327       0.14777554
H       -2.09404900      -0.27384869       1.04977027
H       -1.92290902      -0.87818384      -1.47956922
H       -0.95376551      -1.78453221      -0.20439490
H        1.47417251       1.50139617      -0.92003166
H       -0.06515995       0.73082782       0.38669327
H        2.71633107      -0.03991189       1.07295877
15
Frame=7 idx=006353 GeodesicLength=0.6934224714096663 rxn_smarts="[C:1]([C:2]([O:3][C:4](=[O:5])[C:6]([O:7][H:15])([H:13])[H:14])([H:11])[H:12])([H:8])([H:9])[H:10]>>[C:1]([H:8])([H:9])([H:10])[H:14].[C:2](=[O+:3][C:4]([O-:5])=[C:6]([O:7][H:15])[H:13])([H:11])[H:12]"
C       -1.47620588       0.54138943       0.69364499
C       -1.05823161      -0.89756374      -0.82514204
O        0.02169197      -0.44970245      -1.42591282
C        1.19807448      -0.59424333      -0.61375660
O        1.41954105      -1.67067255      -0.09563954
C        1.51874199       0.70704516      -0.17713670
O        2.52329689       0.82332119       0.75002480
H       -1.27036536       1.06853113       1.63282869
H       -2.11285993       1.23437678       0.14145566
H       -2.08886061      -0.28029701       1.07366865
H       -1.91184752      -0.90691334      -1.49474388
H       -0.94876017      -1.78433080      -0.20440026
H        1.49998350       1.50145488      -0.91367003
H       -0.05279729       0.77465545       0.40539780
H        2.73859847      -0.06705079       1.05338129
15
Frame=8 idx=006353 GeodesicLength=0.7916293728562322 rxn_smarts="[C:1]([C:2]([O:3][C:4](=[O:5])[C:6]([O:7][H:15])([H:13])[H:14])([H:11])[H:12])([H:8])([H:9])[H:10]>>[C:1]([H:8])([H:9])([H:10])[H:14].[C:2](=[O+:3][C:4]([O-:5])=[C:6]([O:7][H:15])[H:13])([H:11])[H:12]"
C       -1.49643124       0.54488763       0.69471838
C       -1.06192264      -0.89497782      -0.82098856
O        0.01819893      -0.43360551      -1.41736172
C        1.19903401      -0.58819395      -0.61923209
O        1.41424482      -1.66890153      -0.10666060
C        1.52793384       0.70938192      -0.16618075
O        2.55297802       0.80193245       0.74162275
H       -1.31555429       1.09926192       1.62302735
H       -2.15772434       1.20911352       0.13541885
H       -2.08288100      -0.28534664       1.09768296
H       -1.89934665      -0.93592272      -1.50982241
H       -0.94387718      -1.78381285      -0.20411333
H        1.52510725       1.50120670      -0.90673177
H       -0.03958985       0.81927914       0.42513540
H        2.75983033      -0.09430225       1.03348556
15
Frame=9 idx=006353 GeodesicLength=0.8897221504586019 rxn_smarts="[C:1]([C:2]([O:3][C:4](=[O:5])[C:6]([O:7][H:15])([H:13])[H:14])([H:11])[H:12])([H:8])([H:9])[H:10]>>[C:1]([H:8])([H:9])([H:10])[H:14].[C:2](=[O+:3][C:4]([O-:5])=[C:6]([O:7][H:15])[H:13])([H:11])[H:12]"
C       -1.51671736       0.54856417       0.69546934
C       -1.06589953      -0.89251866      -0.81696947
O        0.01446613      -0.41730397      -1.40835376
C        1.19981007      -0.58196492      -0.62469847
O        1.40881223      -1.66700716      -0.11796428
C        1.53690018       0.71155828      -0.15472351
O        2.58233191       0.78015293       0.73246886
H       -1.36111820       1.12928386       1.61176380
H       -2.20218352       1.18276913       0.12970917
H       -2.07630999      -0.28907005       1.12170286
H       -1.88552350      -0.96512149      -1.52482596
H       -0.93915348      -1.78301779      -0.20355998
H        1.54946504       1.50070718      -0.89908229
H       -0.02540234       0.86463378       0.44612555
H        2.78052235      -0.12166530       1.01293816
15
Frame=10 idx=006353 GeodesicLength=0.9877129420508475 rxn_smarts="[C:1]([C:2]([O:3][C:4](=[O:5])[C:6]([O:7][H:15])([H:13])[H:14])([H:11])[H:12])([H:8])([H:9])[H:10]>>[C:1]([H:8])([H:9])([H:10])[H:14].[C:2](=[O+:3][C:4]([O-:5])=[C:6]([O:7][H:15])[H:13])([H:11])[H:12]"
C       -1.53716442       0.55250732       0.69577786
C       -1.07015982      -0.89019600      -0.81308741
O        0.01045141      -0.40082329      -1.39891992
C        1.20042213      -0.57557017      -0.63030830
O        1.40332553      -1.66503851      -0.12981637
C        1.54564074       0.71350398      -0.14280366
O        2.61119728       0.75797219       0.72256980
H       -1.40685252       1.15850230       1.59912050
H       -2.24633929       1.15534260       0.12429518
H       -2.06901621      -0.29120313       1.14576914
H       -1.87014413      -0.99459357      -1.53965192
H       -0.93452803      -1.78188424      -0.20262082
H        1.57292735       1.50000120      -0.89066618
H       -0.01007057       0.91064429       0.46842895
H        2.80031053      -0.14916497       0.99191313
15
Frame=11 idx=006353 GeodesicLength=1.0856124317991092 rxn_smarts="[C:1]([C:2]([O:3][C:4](=[O:5])[C:6]([O:7][H:15])([H:13])[H:14])([H:11])[H:12])([H:8])([H:9])[H:10]>>[C:1]([H:8])([H:9])([H:10])[H:14].[C:2](=[O+:3][C:4]([O-:5])=[C:6]([O:7][H:15])[H:13])([H:11])[H:12]"
C       -1.55787052       0.55671878       0.69556435
C       -1.07470888      -0.88803263      -0.80936380
O        0.00614930      -0.38417923      -1.38904342
C        1.20086151      -0.56901749      -0.63607016
O        1.39778133      -1.66300894      -0.14225910
C        1.55415049       0.71516982      -0.13039249
O        2.63950445       0.73539306       0.71195359
H       -1.45264397       1.18697270       1.58500517
H       -2.29028792       1.12680848       0.11915825
H       -2.06101458      -0.29168457       1.16985769
H       -1.85315289      -1.02432093      -1.55425415
H       -0.93000865      -1.78040898      -0.20126733
H        1.59540079       1.49914554      -0.88140639
H        0.00656578       0.95724639       0.49220102
H        2.81927374      -0.17680201       0.97031677
15
Frame=12 idx=006353 GeodesicLength=1.1834538393470488 rxn_smarts="[C:1]([C:2]([O:3][C:4](=[O:5])[C:6]([O:7][H:15])([H:13])[H:14])([H:11])[H:12])([H:8])([H:9])[H:10]>>[C:1]([H:8])([H:9])([H:10])[H:14].[C:2](=[O+:3][C:4]([O-:5])=[C:6]([O:7][H:15])[H:13])([H:11])[H:12]"
C       -1.57893941       0.56116803       0.69475050
C       -1.07954752      -0.88605320      -0.80582489
O        0.00155375      -0.36738927      -1.37870417
C        1.20111367      -0.56231042      -0.64198733
O        1.39216617      -1.66092664      -0.15532113
C        1.56243324       0.71650828      -0.11747527
O        2.66718675       0.71243117       0.70064844
H       -1.49839815       1.21479636       1.56932262
H       -2.33416915       1.09708627       0.11434318
H       -2.05230649      -0.29044441       1.19395255
H       -1.83449092      -1.05426060      -1.56860472
H       -0.92560275      -1.77859552      -0.19949599
H        1.61682930       1.49818220      -0.87125745
H        0.02468914       1.00439773       0.51757492
H        2.83748236      -0.20458997       0.94807873
15
Frame=13 idx=006353 GeodesicLength=1.2812116378964302 rxn_smarts="[C:1]([C:2]([O:3][C:4](=[O:5])[C:6]([O:7][H:15])([H:13])[H:14])([H:11])[H:12])([H:8])([H:9])[H:10]>>[C:1]([H:8])([H:9])([H:10])[H:14].[C:2](=[O+:3][C:4]([O-:5])=[C:6]([O:7][H:15])[H:13])([H:11])[H:12]"
C       -1.60045776       0.56582115       0.69325790
C       -1.08468464      -0.88428537      -0.80250964
O       -0.00333297      -0.35049238      -1.36789613
C        1.20116089      -0.55545743      -0.64805266
O        1.38645570      -1.65879290      -0.16899791
C        1.57047294       0.71747383      -0.10403195
O        2.69417395       0.68911601       0.68866998
H       -1.54401096       1.24201183       1.55196266
H       -2.37804526       1.06612157       0.10991094
H       -2.04285851      -0.28741589       1.21802753
H       -1.81411327      -1.08435154      -1.58266795
H       -0.92133696      -1.77645492      -0.19731296
H        1.63713951       1.49714145      -0.86017265
H        0.04447384       1.05207080       0.54468050
H        2.85496350      -0.23250620       0.92513233
15
Frame=14 idx=006353 GeodesicLength=1.3789157243066434 rxn_smarts="[C:1]([C:2]([O:3][C:4](=[O:5])[C:6]([O:7][H:15])([H:13])[H:14])([H:11])[H:12])([H:8])([H:9])[H:10]>>[C:1]([H:8])([H:9])([H:10])[H:14].[C:2](=[O+:3][C:4]([O-:5])=[C:6]([O:7][H:15])[H:13])([H:11])[H:12]"
C       -1.62252151       0.57061462       0.69101493
C       -1.09012135      -0.88274241      -0.79946124
O       -0.00850409      -0.33351493      -1.35660539
C        1.20098791      -0.54846878      -0.65425073
O        1.38061228      -1.65660710      -0.18326100
C        1.57828094       0.71802020      -0.09007218
O        2.72040785       0.66548231       0.67603651
H       -1.58938089       1.26865938       1.53281072
H       -2.42208685       1.03376508       0.10600629
H       -2.03267074      -0.28249962       1.24204876
H       -1.79198323      -1.11449839      -1.59642379
H       -0.91724078      -1.77399181      -0.19474822
H        1.65633361       1.49603099      -0.84815115
H        0.06614098       1.10027178       0.57360944
H        2.87174588      -0.26052131       0.90144705
15
Frame=15 idx=006353 GeodesicLength=1.476553833163811 rxn_smarts="[C:1]([C:2]([O:3][C:4](=[O:5])[C:6]([O:7][H:15])([H:13])[H:14])([H:11])[H:12])([H:8])([H:9])[H:10]>>[C:1]([H:8])([H:9])([H:10])[H:14].[C:2](=[O+:3][C:4]([O-:5])=[C:6]([O:7][H:15])[H:13])([H:11])[H:12]"
C       -1.64520276       0.57546325       0.68795343
C       -1.09586473      -0.88143929      -0.79674808
O       -0.01393922      -0.31650298      -1.34483837
C        1.20057631      -0.54136202      -0.66055009
O        1.37458450      -1.65436545      -0.19803426
C        1.58586374       0.71810659      -0.07561197
O        2.74583114       0.64158254       0.66275680
H       -1.63441512       1.29476340       1.51174200
H       -2.46640519       0.99985294       0.10284572
H       -2.02167193      -0.27562448       1.26599044
H       -1.76809635      -1.14455530      -1.60986150
H       -0.91336525      -1.77123015      -0.19187496
H        1.67441351       1.49484182      -0.83522021
H        0.08991635       1.14905053       0.60439699
H        2.88777500      -0.28858140       0.87705405
15
Frame=16 idx=006353 GeodesicLength=1.5741141389443838 rxn_smarts="[C:1]([C:2]([O:3][C:4](=[O:5])[C:6]([O:7][H:15])([H:13])[H:14])([H:11])[H:12])([H:8])([H:9])[H:10]>>[C:1]([H:8])([H:9])([H:10])[H:14].[C:2](=[O+:3][C:4]([O-:5])=[C:6]([O:7][H:15])[H:13])([H:11])[H:12]"
C       -1.66858114       0.58027048       0.68401136
C       -1.10192271      -0.88038188      -0.79444076
O       -0.01962811      -0.29949054      -1.33259909
C        1.19990406      -0.53414891      -0.66691703
O        1.36831816      -1.65206847      -0.21325283
C        1.59322287       0.71769220      -0.06065553
O        2.77039677       0.61746470       0.64884881
H       -1.67904837       1.32034186       1.48861133
H       -2.51112420       0.96416759       0.10067451
H       -2.00982924      -0.26666742       1.28980387
H       -1.74244651      -1.17439443      -1.62296618
H       -0.90976165      -1.76818096      -0.18876647
H        1.69139848       1.49356437      -0.82139552
H        0.11605225       1.19847622       0.63707531
H        2.90304935      -0.31664481       0.85196823
