17
Frame=0 idx=007053 GeodesicLength=0.0 rxn_smarts="[C:1]([C@@:2]([O:3][H:12])([C@@:4]1([H:13])[C:5]([H:14])([H:15])[C:6]([H:16])([H:17])[O:7]1)[H:11])([H:8])([H:9])[H:10]>>[C:1]([C@@:2]([O:3][H:12])([C:5]([C:6]([O+:7]=[C-:4][H:13])([H:16])[H:17])([H:14])[H:15])[H:11])([H:8])([H:9])[H:10]"
C       -1.92399107      -0.55827317      -0.20630328
C       -0.87180689       0.53576603      -0.06754599
O       -1.15334820       1.56144868       0.81255945
C        0.26763764      -0.51025631       1.03089197
C        0.95685239       0.34663170      -0.73165304
C        2.14237459      -0.15852165       0.08317083
O        1.54265852      -0.10453360       1.35766020
H       -2.83539941      -0.08841501      -0.58253251
H       -1.61295589      -1.31144793      -0.93291231
H       -2.12773840      -1.03952581       0.74786138
H       -0.90613680       1.04130853      -1.04196267
H       -1.03129319       1.17089969       1.68869139
H        0.32230385      -1.48053250       0.49442410
H        0.78387094      -0.12159239      -1.69938735
H        1.00258372       1.42918875      -0.81731744
H        3.03026217       0.47873984       0.03777915
H        2.41412609      -1.19088492      -0.17342392
17
Frame=1 idx=007053 GeodesicLength=0.10434159822645882 rxn_smarts="[C:1]([C@@:2]([O:3][H:12])([C@@:4]1([H:13])[C:5]([H:14])([H:15])[C:6]([H:16])([H:17])[O:7]1)[H:11])([H:8])([H:9])[H:10]>>[C:1]([C@@:2]([O:3][H:12])([C:5]([C:6]([O+:7]=[C-:4][H:13])([H:16])[H:17])([H:14])[H:15])[H:11])([H:8])([H:9])[H:10]"
C       -1.95491808      -0.54279645      -0.19117281
C       -0.86855147       0.52177065      -0.08331887
O       -1.12109971       1.56061334       0.79498632
C        0.27141526      -0.57626815       0.99820044
C        0.96583666       0.33810985      -0.73410064
C        2.15102856      -0.13175831       0.10132210
O        1.51937941      -0.13137068       1.36413183
H       -2.86419041      -0.05275748      -0.54631960
H       -1.68273317      -1.30520220      -0.92379075
H       -2.15006026      -1.01190597       0.77113241
H       -0.91539254       1.02149934      -1.06058462
H       -1.00590530       1.17249608       1.67268054
H        0.35116382      -1.53736033       0.45088572
H        0.81393296      -0.14452654      -1.69842827
H        1.00742794       1.41855010      -0.84682772
H        3.00867480       0.54698658       0.09756196
H        2.47399152      -1.14607984      -0.16635802
17
Frame=2 idx=007053 GeodesicLength=0.20735771879153125 rxn_smarts="[C:1]([C@@:2]([O:3][H:12])([C@@:4]1([H:13])[C:5]([H:14])([H:15])[C:6]([H:16])([H:17])[O:7]1)[H:11])([H:8])([H:9])[H:10]>>[C:1]([C@@:2]([O:3][H:12])([C:5]([C:6]([O+:7]=[C-:4][H:13])([H:16])[H:17])([H:14])[H:15])[H:11])([H:8])([H:9])[H:10]"
C       -1.98355074      -0.52680368      -0.17495476
C       -0.86536056       0.50812513      -0.09954570
O       -1.08883998       1.55958352       0.77651547
C        0.27593127      -0.64231833       0.96244754
C        0.97454233       0.32962315      -0.73739934
C        2.15659549      -0.10536480       0.12037376
O        1.49428885      -0.16065262       1.36892661
H       -2.89036678      -0.01725579      -0.50858330
H       -1.75067356      -1.29742445      -0.91259707
H       -2.16807034      -0.98406021       0.79547156
H       -0.92515816       1.00199434      -1.07944947
H       -0.98036623       1.17444099       1.65596595
H        0.38207809      -1.59418367       0.40575490
H        0.84477153      -0.16668587      -1.69815780
H        1.01285062       1.40726008      -0.87722512
H        2.98061497       0.61274691       0.15932548
H        2.53071320      -1.09902471      -0.15686871
17
Frame=3 idx=007053 GeodesicLength=0.30916690707743794 rxn_smarts="[C:1]([C@@:2]([O:3][H:12])([C@@:4]1([H:13])[C:5]([H:14])([H:15])[C:6]([H:16])([H:17])[O:7]1)[H:11])([H:8])([H:9])[H:10]>>[C:1]([C@@:2]([O:3][H:12])([C:5]([C:6]([O+:7]=[C-:4][H:13])([H:16])[H:17])([H:14])[H:15])[H:11])([H:8])([H:9])[H:10]"
C       -2.00966711      -0.51043652      -0.15763214
C       -0.86225997       0.49500828      -0.11620399
O       -1.05682162       1.55863704       0.75700850
C        0.28122559      -0.70814725       0.92361511
C        0.98290157       0.32129972      -0.74153878
C        2.15888765      -0.07958791       0.14023934
O        1.46744543      -0.19231223       1.37189043
H       -2.91381911       0.01773938      -0.46930231
H       -1.81635737      -1.28823173      -0.89926713
H       -2.18146964      -0.95623845       0.82081332
H       -0.93550698       0.98286850      -1.09856654
H       -0.95476809       1.17716120       1.63846147
H        0.41514882      -1.65078106       0.35927845
H        0.87634601      -0.18772641      -1.69863475
H        1.01896200       1.39548474      -0.90810561
H        2.94611161       0.67534973       0.22277645
H        2.58364124      -1.05008704      -0.14483183
17
Frame=4 idx=007053 GeodesicLength=0.40996231121748145 rxn_smarts="[C:1]([C@@:2]([O:3][H:12])([C@@:4]1([H:13])[C:5]([H:14])([H:15])[C:6]([H:16])([H:17])[O:7]1)[H:11])([H:8])([H:9])[H:10]>>[C:1]([C@@:2]([O:3][H:12])([C:5]([C:6]([O+:7]=[C-:4][H:13])([H:16])[H:17])([H:14])[H:15])[H:11])([H:8])([H:9])[H:10]"
C       -2.03309965      -0.49383638      -0.13916659
C       -0.85926646       0.48259104      -0.13328657
O       -1.02527958       1.55807618       0.73631055
C        0.28732905      -0.77353920       0.88163029
C        0.99086932       0.31325546      -0.74652420
C        2.15776305      -0.05465500       0.16086046
O        1.43891056      -0.22627347       1.37284324
H       -2.93447301       0.05191911      -0.42840990
H       -1.87948584      -1.27776013      -0.88372647
H       -2.19001565      -0.92865735       0.84710557
H       -0.94651943       0.96415460      -1.11794685
H       -0.92913197       1.18111438       1.62004650
H        0.45047377      -1.70697649       0.31164016
H        0.90859638      -0.20736824      -1.69991270
H        1.02586638       1.38343960      -0.93910866
H        2.90512507       0.73415432       0.28773055
H        2.63233802      -0.99963842      -0.13008538
17
Frame=5 idx=007053 GeodesicLength=0.5101509707055559 rxn_smarts="[C:1]([C@@:2]([O:3][H:12])([C@@:4]1([H:13])[C:5]([H:14])([H:15])[C:6]([H:16])([H:17])[O:7]1)[H:11])([H:8])([H:9])[H:10]>>[C:1]([C@@:2]([O:3][H:12])([C:5]([C:6]([O+:7]=[C-:4][H:13])([H:16])[H:17])([H:14])[H:15])[H:11])([H:8])([H:9])[H:10]"
C       -2.05402509      -0.47694487      -0.11958212
C       -0.85635197       0.47071401      -0.15065044
O       -0.99448913       1.55788539       0.71434648
C        0.29409586      -0.83862989       0.83658072
C        0.99862212       0.30539183      -0.75205948
C        2.15337748      -0.03060154       0.18231041
O        1.40873590      -0.26240722       1.37160887
H       -2.95240840       0.08562421      -0.38593259
H       -1.94040815      -1.26608347      -0.86595265
H       -2.19410871      -0.90122059       0.87416414
H       -0.95808556       0.94556563      -1.13751196
H       -0.90361518       1.18650672       1.60069353
H        0.48805732      -1.76277970       0.26282978
H        0.94188236      -0.22569013      -1.70168023
H        1.03369177       1.37107040      -0.96965215
H        2.85762453       0.78913886       0.35293165
H        2.67740485      -0.94753963      -0.11244396
17
Frame=6 idx=007053 GeodesicLength=0.6097416758290108 rxn_smarts="[C:1]([C@@:2]([O:3][H:12])([C@@:4]1([H:13])[C:5]([H:14])([H:15])[C:6]([H:16])([H:17])[O:7]1)[H:11])([H:8])([H:9])[H:10]>>[C:1]([C@@:2]([O:3][H:12])([C:5]([C:6]([O+:7]=[C-:4][H:13])([H:16])[H:17])([H:14])[H:15])[H:11])([H:8])([H:9])[H:10]"
C       -2.07205823      -0.46002767      -0.09884403
C       -0.85360468       0.45973213      -0.16835394
O       -0.96477352       1.55856120       0.69092511
C        0.30170569      -0.90287868       0.78840710
C        1.00598186       0.29799413      -0.75827872
C        2.14545092      -0.00787550       0.20438464
O        1.37693667      -0.30054265       1.36801138
H       -2.96744241       0.11807036      -0.34187625
H       -1.99835666      -1.25345449      -0.84580001
H       -2.19316941      -0.87424913       0.90199161
H       -0.97044829       0.92726396      -1.15732391
H       -0.87818722       1.19395334       1.58020260
H        0.52800457      -1.81783009       0.21328783
H        0.97587214      -0.24212585      -1.70415295
H        1.04252184       1.35888318      -0.99939654
H        2.80394284       0.83922710       0.41867638
H        2.71762389      -0.89470135      -0.09186030
17
Frame=7 idx=007053 GeodesicLength=0.7089445482491226 rxn_smarts="[C:1]([C@@:2]([O:3][H:12])([C@@:4]1([H:13])[C:5]([H:14])([H:15])[C:6]([H:16])([H:17])[O:7]1)[H:11])([H:8])([H:9])[H:10]>>[C:1]([C@@:2]([O:3][H:12])([C:5]([C:6]([O+:7]=[C-:4][H:13])([H:16])[H:17])([H:14])[H:15])[H:11])([H:8])([H:9])[H:10]"
C       -2.08709486      -0.44322955      -0.07696873
C       -0.85106795       0.44978132      -0.18636613
O       -0.93641809       1.56038721       0.66592715
C        0.31018349      -0.96604145       0.73717213
C        1.01292942       0.29120739      -0.76509812
C        2.13396618       0.01325559       0.22696023
O        1.34349314      -0.34037278       1.36192395
H       -2.97957123       0.14892642      -0.29631049
H       -2.05303818      -1.24012118      -0.82318162
H       -2.18716181      -0.84784675       0.93048802
H       -0.98369070       0.90922081      -1.17738417
H       -0.85287107       1.20380933       1.55843928
H        0.57028328      -1.87190882       0.16336063
H        1.01051638      -0.25637919      -1.70727668
H        1.05244772       1.34718741      -1.02789352
H        2.74449883       0.88384829       0.48456347
H        2.75259545      -0.84172403      -0.06835538
17
Frame=8 idx=007053 GeodesicLength=0.8079397109740418 rxn_smarts="[C:1]([C@@:2]([O:3][H:12])([C@@:4]1([H:13])[C:5]([H:14])([H:15])[C:6]([H:16])([H:17])[O:7]1)[H:11])([H:8])([H:9])[H:10]>>[C:1]([C@@:2]([O:3][H:12])([C:5]([C:6]([O+:7]=[C-:4][H:13])([H:16])[H:17])([H:14])[H:15])[H:11])([H:8])([H:9])[H:10]"
C       -2.09902113      -0.42669060      -0.05401348
C       -0.84881295       0.44101584      -0.20466077
O       -0.90975907       1.56360799       0.63930485
C        0.31958930      -1.02781518       0.68299409
C        1.01940303       0.28516439      -0.77241437
C        2.11895742       0.03250986       0.24990427
O        1.30840675      -0.38160992       1.35324587
H       -2.98875679       0.17791955      -0.24935390
H       -2.10413747      -1.22634225      -0.79806342
H       -2.17601773      -0.82208301       0.95948965
H       -0.99795347       0.89142451      -1.19765946
H       -0.82778297       1.21639746       1.53528992
H        0.61483818      -1.92475710       0.11346690
H        1.04566438      -0.26821772      -1.71095962
H        1.06350765       1.33630857      -1.05475712
H        2.67985843       0.92244909       0.55009882
H        2.78201645      -0.78928147      -0.04191224
17
Frame=9 idx=007053 GeodesicLength=0.9070114095106871 rxn_smarts="[C:1]([C@@:2]([O:3][H:12])([C@@:4]1([H:13])[C:5]([H:14])([H:15])[C:6]([H:16])([H:17])[O:7]1)[H:11])([H:8])([H:9])[H:10]>>[C:1]([C@@:2]([O:3][H:12])([C:5]([C:6]([O+:7]=[C-:4][H:13])([H:16])[H:17])([H:14])[H:15])[H:11])([H:8])([H:9])[H:10]"
C       -2.10811001      -0.41032736      -0.03005145
C       -0.84682915       0.43322401      -0.22315382
O       -0.88498275       1.56799999       0.61110416
C        0.32968982      -1.08835752       0.62610747
C        1.02556532       0.27974988      -0.77983365
C        2.10074031       0.04987417       0.27317519
O        1.27172899      -0.42402801       1.34193131
H       -2.99523539       0.20557399      -0.20113585
H       -2.15198115      -1.21226392      -0.77044820
H       -2.16038280      -0.79673052       0.98878572
H       -1.01310927       0.87362753      -1.21808510
H       -0.80309939       1.23143306       1.51078569
H        0.66146690      -1.97629076       0.06366786
H        1.08169093      -0.27776694      -1.71475584
H        1.07575606       1.32611890      -1.07942345
H        2.61056460       0.95550281       0.61387481
H        2.80652698      -0.73733931      -0.01254487
17
Frame=10 idx=007053 GeodesicLength=1.0062579226053043 rxn_smarts="[C:1]([C@@:2]([O:3][H:12])([C@@:4]1([H:13])[C:5]([H:14])([H:15])[C:6]([H:16])([H:17])[O:7]1)[H:11])([H:8])([H:9])[H:10]>>[C:1]([C@@:2]([O:3][H:12])([C:5]([C:6]([O+:7]=[C-:4][H:13])([H:16])[H:17])([H:14])[H:15])[H:11])([H:8])([H:9])[H:10]"
C       -2.11401500      -0.39438523      -0.00518051
C       -0.84524408       0.42678281      -0.24188183
O       -0.86237034       1.57406831       0.58125737
C        0.34079198      -1.14697535       0.56666737
C        1.03121272       0.27524801      -0.78750635
C        2.07924235       0.06493683       0.29649007
O        1.23342297      -0.46727746       1.32783585
H       -2.99880959       0.23102164      -0.15182114
H       -2.19580010      -1.19822381      -0.74030795
H       -2.13981776      -0.77195629       1.01824363
H       -1.02947267       0.85601266      -1.23863259
H       -0.77886731       1.24944137       1.48473779
H        0.70999479      -2.02614658       0.01478057
H        1.11802787      -0.28466928      -1.71876884
H        1.08917385       1.31718370      -1.10181881
H        2.53732088       0.98204994       0.67636344
H        2.82520945      -0.68711126       0.01954192
17
Frame=11 idx=007053 GeodesicLength=1.1058903878129949 rxn_smarts="[C:1]([C@@:2]([O:3][H:12])([C@@:4]1([H:13])[C:5]([H:14])([H:15])[C:6]([H:16])([H:17])[O:7]1)[H:11])([H:8])([H:9])[H:10]>>[C:1]([C@@:2]([O:3][H:12])([C:5]([C:6]([O+:7]=[C-:4][H:13])([H:16])[H:17])([H:14])[H:15])[H:11])([H:8])([H:9])[H:10]"
C       -2.11675726      -0.37893721       0.02046835
C       -0.84409835       0.42176754      -0.26082831
O       -0.84203356       1.58187836       0.54984637
C        0.35292845      -1.20342986       0.50498174
C        1.03631426       0.27169993      -0.79531064
C        2.05467109       0.07758894       0.31965857
O        1.19351138      -0.51104240       1.31095034
H       -2.99956138       0.25418821      -0.10163193
H       -2.23536472      -1.18447826      -0.70772412
H       -2.11454045      -0.74773074       1.04766078
H       -1.04712566       0.83863257      -1.25921009
H       -0.75519759       1.27034036       1.45713204
H        0.76005887      -2.07412802      -0.03269023
H        1.15452983      -0.28893565      -1.72279025
H        1.10374373       1.30962863      -1.12174662
H        2.46084649       1.00210675       0.73712960
H        2.83807486      -0.63914914       0.05410440
17
Frame=12 idx=007053 GeodesicLength=1.206076035991754 rxn_smarts="[C:1]([C@@:2]([O:3][H:12])([C@@:4]1([H:13])[C:5]([H:14])([H:15])[C:6]([H:16])([H:17])[O:7]1)[H:11])([H:8])([H:9])[H:10]>>[C:1]([C@@:2]([O:3][H:12])([C:5]([C:6]([O+:7]=[C-:4][H:13])([H:16])[H:17])([H:14])[H:15])[H:11])([H:8])([H:9])[H:10]"
C       -2.11636648      -0.36400992       0.04671015
C       -0.84345007       0.41822095      -0.27997063
O       -0.82404813       1.59137920       0.51705355
C        0.36616687      -1.25747400       0.44144542
C        1.04082483       0.26909434      -0.80313295
C        2.02727454       0.08775195       0.34250143
O        1.15212180      -0.55508161       1.29127483
H       -2.99753588       0.27508507      -0.05080974
H       -2.27049636      -1.17123166      -0.67285295
H       -2.08485670      -0.72394781       1.07677098
H       -1.06614138       0.82157241      -1.27968158
H       -0.73226597       1.29391650       1.42803282
H        0.81124486      -2.12007655      -0.07823862
H        1.19100742      -0.29069481      -1.72659987
H        1.11939331       1.30351905      -1.13911129
H        2.38184141       1.01589692       0.79570879
H        2.84528593      -0.59392005       0.09089965
17
Frame=13 idx=007053 GeodesicLength=1.30695778389274 rxn_smarts="[C:1]([C@@:2]([O:3][H:12])([C@@:4]1([H:13])[C:5]([H:14])([H:15])[C:6]([H:16])([H:17])[O:7]1)[H:11])([H:8])([H:9])[H:10]>>[C:1]([C@@:2]([O:3][H:12])([C:5]([C:6]([O+:7]=[C-:4][H:13])([H:16])[H:17])([H:14])[H:15])[H:11])([H:8])([H:9])[H:10]"
C       -2.11320546      -0.34952815       0.07343986
C       -0.84317691       0.41594266      -0.29933770
O       -0.80819544       1.60225584       0.48301547
C        0.38028373      -1.30919449       0.37648901
C        1.04490727       0.26727670      -0.81074667
C        1.99741511       0.09556481       0.36484527
O        1.10949184      -0.59928094       1.26877119
H       -2.99311738       0.29431747       0.00055565
H       -2.30149077      -1.15862778      -0.63580312
H       -2.05145552      -0.70058530       1.10543091
H       -1.08629290       0.80481412      -1.29999835
H       -0.71007895       1.31950664       1.39755491
H        0.86294866      -2.16397280      -0.12176097
H        1.22775696      -0.29025606      -1.72984319
H        1.13610289       1.29856518      -1.15367578
H        2.30061055       1.02441827       0.85146724
H        2.84749632      -0.55121615       0.12959626
17
Frame=14 idx=007053 GeodesicLength=1.408707104266115 rxn_smarts="[C:1]([C@@:2]([O:3][H:12])([C@@:4]1([H:13])[C:5]([H:14])([H:15])[C:6]([H:16])([H:17])[O:7]1)[H:11])([H:8])([H:9])[H:10]>>[C:1]([C@@:2]([O:3][H:12])([C:5]([C:6]([O+:7]=[C-:4][H:13])([H:16])[H:17])([H:14])[H:15])[H:11])([H:8])([H:9])[H:10]"
C       -2.10708940      -0.33558355       0.10039377
C       -0.84343412       0.41515513      -0.31887055
O       -0.79455128       1.61464714       0.44802444
C        0.39565506      -1.35810606       0.31052442
C        1.04835256       0.26635232      -0.81824904
C        1.96524821       0.10094805       0.38647887
O        1.06582057      -0.64327779       1.24350958
H       -2.98611707       0.31138152       0.05194288
H       -2.32772784      -1.14695864      -0.59677709
H       -2.01442249      -0.67739922       1.13337720
H       -1.10786935       0.78862448      -1.31991182
H       -0.68884783       1.34715102       1.36582992
H        0.91478906      -2.20570480      -0.16249305
H        1.26414134      -0.28766593      -1.73248321
H        1.15371116       1.29503541      -1.16566154
H        2.21790578       1.02729185       0.90448225
H        2.84443564      -0.51189094       0.16988297
17
Frame=15 idx=007053 GeodesicLength=1.5114915872996488 rxn_smarts="[C:1]([C@@:2]([O:3][H:12])([C@@:4]1([H:13])[C:5]([H:14])([H:15])[C:6]([H:16])([H:17])[O:7]1)[H:11])([H:8])([H:9])[H:10]>>[C:1]([C@@:2]([O:3][H:12])([C:5]([C:6]([O+:7]=[C-:4][H:13])([H:16])[H:17])([H:14])[H:15])[H:11])([H:8])([H:9])[H:10]"
C       -2.09820471      -0.32216259       0.12740810
C       -0.84417377       0.41578045      -0.33856813
O       -0.78288310       1.62835688       0.41230319
C        0.41232823      -1.40417717       0.24399163
C        1.05119663       0.26624165      -0.82557409
C        1.93105240       0.10405009       0.40725694
O        1.02137809      -0.68692724       1.21556421
H       -2.97673563       0.32649255       0.10308665
H       -2.34921528      -1.13639792      -0.55597065
H       -1.97427124      -0.65425790       1.16047960
H       -1.13079271       0.77312658      -1.33928871
H       -0.66861139       1.37638423       1.33304087
H        0.96613344      -2.24531609      -0.20019770
H        1.30009629      -0.28318905      -1.73434205
H        1.17212995       1.29279717      -1.17509557
H        2.13407996       1.02513837       0.95453663
H        2.83649284      -0.47594003       0.21136908
17
Frame=16 idx=007053 GeodesicLength=1.6154594977823837 rxn_smarts="[C:1]([C@@:2]([O:3][H:12])([C@@:4]1([H:13])[C:5]([H:14])([H:15])[C:6]([H:16])([H:17])[O:7]1)[H:11])([H:8])([H:9])[H:10]>>[C:1]([C@@:2]([O:3][H:12])([C:5]([C:6]([O+:7]=[C-:4][H:13])([H:16])[H:17])([H:14])[H:15])[H:11])([H:8])([H:9])[H:10]"
C       -2.08677202      -0.30922204       0.15435050
C       -0.84535530       0.41772041      -0.35842934
O       -0.77295437       1.64318739       0.37606674
C        0.43034128      -1.44740787       0.17729642
C        1.05347365       0.26685344      -0.83267236
C        1.89507984       0.10503519       0.42706671
O        0.97645600      -0.73010467       1.18501095
H       -2.96519686       0.33991251       0.15375030
H       -2.36600563      -1.12709315      -0.51355609
H       -1.93151662      -0.63100323       1.18665316
H       -1.15497729       0.75841525      -1.35799951
H       -0.64939579       1.40677169       1.29938122
H        1.01653885      -2.28294003      -0.23481881
H        1.33558349      -0.27708979      -1.73526815
H        1.19126088       1.29170371      -1.18202582
H        2.04939391       1.01856514       1.00144111
H        2.82404599      -0.44330393       0.25375297
