12
Frame=0 idx=000254 GeodesicLength=0.0 rxn_smarts="[C:1]([N:2]1[C:3]([H:10])([H:11])[C@:4]1([C:5]#[N:6])[H:12])([H:7])([H:8])[H:9]>>[C:1]([N:2]1[C+:3]([H:10])[C@:4]1([C-:5]=[N:6][H:11])[H:12])([H:7])([H:8])[H:9]"
C       -1.54667436       0.23606578       0.96651841
N       -0.21799583       0.70341163       0.59090592
C        0.22674032       0.53737033      -0.80612274
C        0.64197039      -0.43159222       0.24536431
C        1.96565333      -0.49850019      -0.29350881
N        2.38100989      -0.63416106      -1.40086947
H       -1.54782434      -0.03438108       2.02337716
H       -1.88901075      -0.61906530       0.36948464
H       -2.24228576       1.06102895       0.81893316
H        0.91684283       1.36354988      -0.95346635
H        1.11948019      -0.26632055      -1.84664242
H        0.19209404      -1.41740614       0.28602614
12
Frame=1 idx=000254 GeodesicLength=0.07083743258450215 rxn_smarts="[C:1]([N:2]1[C:3]([H:10])([H:11])[C@:4]1([C:5]#[N:6])[H:12])([H:7])([H:8])[H:9]>>[C:1]([N:2]1[C+:3]([H:10])[C@:4]1([C-:5]=[N:6][H:11])[H:12])([H:7])([H:8])[H:9]"
C       -1.54435280       0.23827885       0.96917786
N       -0.21536806       0.69996692       0.58801368
C        0.21451446       0.53507073      -0.81156988
C        0.63813395      -0.43795453       0.23934942
C        1.96790220      -0.50050973      -0.28097388
N        2.40033320      -0.63417921      -1.38153739
H       -1.54080600      -0.03868471       2.02438391
H       -1.89523829      -0.61090866       0.36847898
H       -2.23643236       1.06793940       0.83148793
H        0.89697486       1.36694296      -0.96676101
H        1.12645163      -0.26224619      -1.85938445
H        0.18788719      -1.42371581       0.27933483
12
Frame=2 idx=000254 GeodesicLength=0.14167287580391366 rxn_smarts="[C:1]([N:2]1[C:3]([H:10])([H:11])[C@:4]1([C:5]#[N:6])[H:12])([H:7])([H:8])[H:9]>>[C:1]([N:2]1[C+:3]([H:10])[C@:4]1([C-:5]=[N:6][H:11])[H:12])([H:7])([H:8])[H:9]"
C       -1.54191612       0.24049689       0.97185417
N       -0.21272088       0.69647780       0.58491191
C        0.20217253       0.53275084      -0.81711095
C        0.63426422      -0.44437719       0.23314069
C        1.96998808      -0.50280636      -0.26820395
N        2.41970263      -0.63394991      -1.36163498
H       -1.53361104      -0.04290524       2.02536404
H       -1.90142830      -0.60271843       0.36769802
H       -2.23035894       1.07478175       0.84405591
H        0.87690694       1.37019502      -0.98017841
H        1.13343078      -0.25789148      -1.87235101
H        0.18357009      -1.43005369       0.27245456
12
Frame=3 idx=000254 GeodesicLength=0.21250510089406238 rxn_smarts="[C:1]([N:2]1[C:3]([H:10])([H:11])[C@:4]1([C:5]#[N:6])[H:12])([H:7])([H:8])[H:9]>>[C:1]([N:2]1[C+:3]([H:10])[C@:4]1([C-:5]=[N:6][H:11])[H:12])([H:7])([H:8])[H:9]"
C       -1.53935820       0.24271819       0.97454488
N       -0.21005223       0.69294479       0.58159860
C        0.18971185       0.53041669      -0.82274561
C        0.63036613      -0.45085578       0.22673187
C        1.97190421      -0.50540594      -0.25519575
N        2.43911369      -0.63348112      -1.34113812
H       -1.52623265      -0.04704160       2.02631617
H       -1.90757122      -0.59450081       0.36714398
H       -2.22406036       1.08155244       0.85662761
H        0.85663464       1.37331319      -0.99371572
H        1.14039922      -0.25324589      -1.88555482
H        0.17914493      -1.43641418       0.26538691
12
Frame=4 idx=000254 GeodesicLength=0.2833331309522309 rxn_smarts="[C:1]([N:2]1[C:3]([H:10])([H:11])[C@:4]1([C:5]#[N:6])[H:12])([H:7])([H:8])[H:9]>>[C:1]([N:2]1[C+:3]([H:10])[C@:4]1([C-:5]=[N:6][H:11])[H:12])([H:7])([H:8])[H:9]"
C       -1.53667264       0.24494101       0.97724754
N       -0.20736024       0.68936866       0.57807096
C        0.17712925       0.52807428      -0.82847408
C        0.62644467      -0.45738552       0.22011602
C        1.97364384      -0.50832357      -0.24194524
N        2.45856223      -0.63278304      -1.32001940
H       -1.51866272      -0.05109342       2.02723881
H       -1.91365748      -0.58626206       0.36681908
H       -2.21753153       1.08824807       0.86919465
H        0.83615243       1.37630487      -1.00737094
H        1.14733825      -0.24829799      -1.89901022
H        0.17461393      -1.44279130       0.25813283
12
Frame=5 idx=000254 GeodesicLength=0.35415683874309184 rxn_smarts="[C:1]([N:2]1[C:3]([H:10])([H:11])[C@:4]1([C:5]#[N:6])[H:12])([H:7])([H:8])[H:9]>>[C:1]([N:2]1[C+:3]([H:10])[C@:4]1([C-:5]=[N:6][H:11])[H:12])([H:7])([H:8])[H:9]"
C       -1.53385272       0.24716392       0.97996041
N       -0.20464323       0.68574993       0.57432420
C        0.16442033       0.52572773      -0.83429868
C        0.62250417      -0.46396243       0.21328461
C        1.97519999      -0.51157406      -0.22844618
N        2.47804756      -0.63186266      -1.29824585
H       -1.51089076      -0.05506212       2.02813065
H       -1.91967948      -0.57800629       0.36672490
H       -2.21076599       1.09486718       0.88175311
H        0.81545216       1.37917645      -1.02114524
H        1.15422991      -0.24303790      -1.91273283
H        0.16997807      -1.44917977       0.25069090
12
Frame=6 idx=000254 GeodesicLength=0.42498292845030294 rxn_smarts="[C:1]([N:2]1[C:3]([H:10])([H:11])[C@:4]1([C:5]#[N:6])[H:12])([H:7])([H:8])[H:9]>>[C:1]([N:2]1[C+:3]([H:10])[C@:4]1([C-:5]=[N:6][H:11])[H:12])([H:7])([H:8])[H:9]"
C       -1.53089296       0.24938487       0.98268495
N       -0.20189881       0.68209126       0.57035402
C        0.15158261       0.52338114      -0.84022681
C        0.61854776      -0.47058360       0.20622938
C        1.97656550      -0.51517184      -0.21468898
N        2.49757258      -0.63072427      -1.27578156
H       -1.50290780      -0.05894915       2.02899828
H       -1.92563421      -0.56974159       0.36686362
H       -2.20375712       1.10140928       0.89430064
H        0.79452992       1.38193849      -1.03504596
H        1.16105908      -0.23745592      -1.92674694
H        0.16523345      -1.45557866       0.24305935
12
Frame=7 idx=000254 GeodesicLength=0.49578776868874974 rxn_smarts="[C:1]([N:2]1[C:3]([H:10])([H:11])[C@:4]1([C:5]#[N:6])[H:12])([H:7])([H:8])[H:9]>>[C:1]([N:2]1[C+:3]([H:10])[C@:4]1([C-:5]=[N:6][H:11])[H:12])([H:7])([H:8])[H:9]"
C       -1.52777848       0.25160306       0.98541023
N       -0.19912919       0.67838866       0.56614849
C        0.13860356       0.52103794      -0.84624753
C        0.61458358      -0.47723991       0.19893762
C        1.97772954      -0.51912910      -0.20067312
N        2.51712072      -0.62939949      -1.25257900
H       -1.49468608      -0.06275428       2.02981620
H       -1.93149832      -0.56146231       0.36723909
H       -2.19649887       1.10786512       0.90682851
H        0.77335895       1.38458452      -1.04905880
H        1.16779981      -0.23152730      -1.94105275
H        0.16039478      -1.46196691       0.23523105
12
Frame=8 idx=000254 GeodesicLength=0.5666027241296485 rxn_smarts="[C:1]([N:2]1[C:3]([H:10])([H:11])[C@:4]1([C:5]#[N:6])[H:12])([H:7])([H:8])[H:9]>>[C:1]([N:2]1[C+:3]([H:10])[C@:4]1([C-:5]=[N:6][H:11])[H:12])([H:7])([H:8])[H:9]"
C       -1.52450653       0.25381993       0.98814899
N       -0.19633334       0.67464405       0.56168788
C        0.12547272       0.51868190      -0.85239688
C        0.61060155      -0.48394215       0.19138922
C        1.97868211      -0.52345678      -0.18636484
N        2.53673125      -0.62784817      -1.22856738
H       -1.48620682      -0.06649739       2.03060426
H       -1.93729760      -0.55316077       0.36784880
H       -2.18896490       1.11425973       0.91938401
H        0.75191959       1.38711913      -1.06323262
H        1.17446432      -0.22525606      -1.95568765
H        0.15543765      -1.46836342       0.22718622
12
Frame=9 idx=000254 GeodesicLength=0.637415508063969 rxn_smarts="[C:1]([N:2]1[C:3]([H:10])([H:11])[C@:4]1([C:5]#[N:6])[H:12])([H:7])([H:8])[H:9]>>[C:1]([N:2]1[C+:3]([H:10])[C@:4]1([C-:5]=[N:6][H:11])[H:12])([H:7])([H:8])[H:9]"
C       -1.52106792       0.25603067       0.99089128
N       -0.19350652       0.67086175       0.55697794
C        0.11219266       0.51633382      -0.85866135
C        0.60661901      -0.49067360       0.18358195
C        1.97941716      -0.52817041      -0.17177248
N        2.55637843      -0.62610692      -1.20372053
H       -1.47746894      -0.07017600       2.03135199
H       -1.94300520      -0.54485331       0.36869269
H       -2.18115744       1.12057616       0.93193500
H        0.73021789       1.38955717      -1.07754471
H        1.18100168      -0.21863035      -1.97067473
H        0.15037921      -1.47474900       0.21894295
12
Frame=10 idx=000254 GeodesicLength=0.7082287675476273 rxn_smarts="[C:1]([N:2]1[C:3]([H:10])([H:11])[C@:4]1([C:5]#[N:6])[H:12])([H:7])([H:8])[H:9]>>[C:1]([N:2]1[C+:3]([H:10])[C@:4]1([C-:5]=[N:6][H:11])[H:12])([H:7])([H:8])[H:9]"
C       -1.51744527       0.25823794       0.99363838
N       -0.19065001       0.66703447       0.55199035
C        0.09874163       0.51397627      -0.86505887
C        0.60262981      -0.49744310       0.17548844
C        1.97991396      -0.53328680      -0.15686772
N        2.57607840      -0.62415490      -1.17794346
H       -1.46842684      -0.07379785       2.03205054
H       -1.94862153      -0.53652265       0.36977737
H       -2.17304716       1.12682681       0.94451017
H        0.70820805       1.39188620      -1.09202161
H        1.18741035      -0.21163156      -1.98602927
H        0.14520861      -1.48112482       0.21046566
12
Frame=11 idx=000254 GeodesicLength=0.779048277207243 rxn_smarts="[C:1]([N:2]1[C:3]([H:10])([H:11])[C@:4]1([C:5]#[N:6])[H:12])([H:7])([H:8])[H:9]>>[C:1]([N:2]1[C+:3]([H:10])[C@:4]1([C-:5]=[N:6][H:11])[H:12])([H:7])([H:8])[H:9]"
C       -1.51363148       0.26043859       0.99639125
N       -0.18776153       0.66316743       0.54671763
C        0.08511628       0.51161494      -0.87159826
C        0.59864117      -0.50424315       0.16709642
C        1.98016354      -0.53881558      -0.14164064
N        2.59583001      -0.62201132      -1.15117701
H       -1.45906824      -0.07736667       2.03270389
H       -1.95414033      -0.52817998       0.37110817
H       -2.16462559       1.13300837       0.95711108
H        0.68588441       1.39411643      -1.10667322
H        1.19366728      -0.20424365      -2.00178918
H        0.13992449      -1.48748541       0.20174985
12
Frame=12 idx=000254 GeodesicLength=0.8498736371949859 rxn_smarts="[C:1]([N:2]1[C:3]([H:10])([H:11])[C@:4]1([C:5]#[N:6])[H:12])([H:7])([H:8])[H:9]>>[C:1]([N:2]1[C+:3]([H:10])[C@:4]1([C-:5]=[N:6][H:11])[H:12])([H:7])([H:8])[H:9]"
C       -1.50961178       0.26263084       0.99914646
N       -0.18483785       0.65926031       0.54114766
C        0.07130763       0.50925235      -0.87828457
C        0.59466091      -0.51106894       0.15838884
C        1.98015042      -0.54477359      -0.12607801
N        2.61562830      -0.61968149      -1.12334542
H       -1.44936830      -0.08088667       2.03330450
H       -1.95954823      -0.51982661       0.37268818
H       -2.15587623       1.13911857       0.96973731
H        0.66322836       1.39625109      -1.12150481
H        1.19973758      -0.19645397      -2.01798486
H        0.13452920      -1.49382188       0.19278471
12
Frame=13 idx=000254 GeodesicLength=0.920705351768241 rxn_smarts="[C:1]([N:2]1[C:3]([H:10])([H:11])[C@:4]1([C:5]#[N:6])[H:12])([H:7])([H:8])[H:9]>>[C:1]([N:2]1[C+:3]([H:10])[C@:4]1([C-:5]=[N:6][H:11])[H:12])([H:7])([H:8])[H:9]"
C       -1.50537166       0.26481223       1.00190117
N       -0.18187588       0.65531459       0.53526757
C        0.05730725       0.50689194      -0.88512447
C        0.59069797      -0.51791384       0.14934782
C        1.97985885      -0.55117475      -0.11016618
N        2.63546759      -0.61717711      -1.09436606
H       -1.43930165      -0.08436306       2.03384597
H       -1.96483208      -0.51146650       0.37452151
H       -2.14678277       1.14515432       0.98239031
H        0.64022266       1.39829482      -1.13652362
H        1.20558464      -0.18824814      -2.03465269
H        0.12902507      -1.50012449       0.18355866
12
Frame=14 idx=000254 GeodesicLength=0.9915463364523854 rxn_smarts="[C:1]([N:2]1[C:3]([H:10])([H:11])[C@:4]1([C:5]#[N:6])[H:12])([H:7])([H:8])[H:9]>>[C:1]([N:2]1[C+:3]([H:10])[C@:4]1([C-:5]=[N:6][H:11])[H:12])([H:7])([H:8])[H:9]"
C       -1.50089495       0.26698049       1.00465323
N       -0.17887166       0.65133131       0.52906276
C        0.04310620       0.50453594      -0.89212666
C        0.58676142      -0.52477243       0.13995318
C        1.97927079      -0.55803497      -0.09388843
N        2.65534387      -0.61450092      -1.06414447
H       -1.42884005      -0.08780255       2.03432218
H       -1.96997951      -0.50310188       0.37661188
H       -2.13732506       1.15111414       0.99507487
H        0.61684905       1.40025156      -1.15173962
H        1.21116723      -0.17961608      -2.05183520
H        0.12341266      -1.50638463       0.17405628
12
Frame=15 idx=000254 GeodesicLength=1.0623984627475398 rxn_smarts="[C:1]([N:2]1[C:3]([H:10])([H:11])[C@:4]1([C:5]#[N:6])[H:12])([H:7])([H:8])[H:9]>>[C:1]([N:2]1[C+:3]([H:10])[C@:4]1([C-:5]=[N:6][H:11])[H:12])([H:7])([H:8])[H:9]"
C       -1.49616426       0.26913253       1.00739959
N       -0.17582136       0.64731314       0.52251761
C        0.02869523       0.50218844      -0.89929970
C        0.58286277      -0.53163624       0.13018347
C        1.97836697      -0.56536734      -0.07722822
N        2.67524883      -0.61166681      -1.03257647
H       -1.41795252      -0.09121243       2.03472534
H       -1.97497507      -0.49473768       0.37896419
H       -2.12748324       1.15699420       1.00779491
H        0.59308858       1.40212635      -1.16716249
H        1.21643876      -0.17054373      -2.06957933
H        0.11769532      -1.51259042       0.16426111
12
Frame=16 idx=000254 GeodesicLength=1.1332648398817335 rxn_smarts="[C:1]([N:2]1[C:3]([H:10])([H:11])[C@:4]1([C:5]#[N:6])[H:12])([H:7])([H:8])[H:9]>>[C:1]([N:2]1[C+:3]([H:10])[C@:4]1([C-:5]=[N:6][H:11])[H:12])([H:7])([H:8])[H:9]"
C       -1.49115879       0.27126568       1.01013663
N       -0.17271924       0.64326018       0.51561490
C        0.01406454       0.49985219      -0.90665204
C        0.57901429      -0.53849899       0.12001421
C        1.97712475      -0.57319008      -0.06016589
N        2.69517483      -0.60866986      -0.99954216
H       -1.40660391      -0.09460180       2.03504474
H       -1.97980253      -0.48637368       0.38158137
H       -2.11723096       1.16279234       1.02055672
H        0.56892110       1.40392181      -1.18280127
H        1.22134103      -0.16102766      -2.08793883
H        0.11187488      -1.51873014       0.15415161
