15
Frame=0 idx=008436 GeodesicLength=0.0 rxn_smarts="[C:1]1([H:8])([H:9])[C@@:2]2([H:10])[C@@:3]3([H:11])[O:4][C:5]([H:12])([H:13])[C@:6]1([H:14])[C@@:7]23[H:15]>>[C:1]1([H:8])([H:9])[C:2]([H:10])=[C:3]([H:11])[C:7]([H:15])=[C:6]1[H:14].[O:4]=[C:5]([H:12])[H:13]"
C        0.75820659       1.09525200       0.16933922
C        1.45737661      -0.21646615       0.25273794
C        0.63317711      -1.24486602      -0.19416383
O       -0.65072956      -1.10158039       1.16452838
C       -1.39976315      -0.08785193       0.68833481
C       -0.53911298       0.63865626      -0.51146622
C       -0.06790480      -0.54229104      -1.20699500
H        0.65418696       1.55374631       1.15937791
H        1.27484537       1.80865729      -0.47507180
H        2.42934040      -0.35551200       0.71388570
H        0.92561883      -2.28323345      -0.23772419
H       -1.60182719       0.68368004       1.44594813
H       -2.35385882      -0.38578865       0.22974964
H       -1.09534660       1.39492934      -1.05855893
H       -0.42420882      -0.95733161      -2.13992170
15
Frame=1 idx=008436 GeodesicLength=0.09851890698684825 rxn_smarts="[C:1]1([H:8])([H:9])[C@@:2]2([H:10])[C@@:3]3([H:11])[O:4][C:5]([H:12])([H:13])[C@:6]1([H:14])[C@@:7]23[H:15]>>[C:1]1([H:8])([H:9])[C:2]([H:10])=[C:3]([H:11])[C:7]([H:15])=[C:6]1[H:14].[O:4]=[C:5]([H:12])[H:13]"
C        0.76024051       1.09618600       0.17023833
C        1.45909265      -0.21767316       0.23645740
C        0.62417190      -1.25029589      -0.18316341
O       -0.65995270      -1.09221454       1.19383979
C       -1.41449833      -0.09455637       0.70022835
C       -0.53439079       0.64243967      -0.51654193
C       -0.05536551      -0.53739811      -1.20745413
H        0.65209508       1.54327379       1.16489197
H        1.27924241       1.81699866      -0.46404223
H        2.44144981      -0.35813352       0.67440646
H        0.91839522      -2.28802108      -0.23266548
H       -1.62147077       0.69636251       1.43567662
H       -2.36468670      -0.40947956       0.24428861
H       -1.08629927       1.39881528      -1.06794570
H       -0.39802352      -0.94630368      -2.14821464
15
Frame=2 idx=008436 GeodesicLength=0.196914285655786 rxn_smarts="[C:1]1([H:8])([H:9])[C@@:2]2([H:10])[C@@:3]3([H:11])[O:4][C:5]([H:12])([H:13])[C@:6]1([H:14])[C@@:7]23[H:15]>>[C:1]1([H:8])([H:9])[C:2]([H:10])=[C:3]([H:11])[C:7]([H:15])=[C:6]1[H:14].[O:4]=[C:5]([H:12])[H:13]"
C        0.76247799       1.09716626       0.17094960
C        1.46063636      -0.21885548       0.22019817
C        0.61536546      -1.25507901      -0.17272364
O       -0.66885596      -1.08251241       1.22316624
C       -1.42918036      -0.10154226       0.71243815
C       -0.52942678       0.64646077      -0.52197587
C       -0.04285081      -0.53238180      -1.20818804
H        0.65000695       1.53293736       1.16999012
H        1.28410219       1.82509215      -0.45306074
H        2.45210373      -0.36121518       0.63629234
H        0.91123234      -2.29219527      -0.22818983
H       -1.64089011       0.70850194       1.42482505
H       -2.37537230      -0.43377305       0.25988487
H       -1.07706307       1.40299964      -1.07746565
H       -0.37228564      -0.93560366      -2.15614076
15
Frame=3 idx=008436 GeodesicLength=0.2952089256970634 rxn_smarts="[C:1]1([H:8])([H:9])[C@@:2]2([H:10])[C@@:3]3([H:11])[O:4][C:5]([H:12])([H:13])[C@:6]1([H:14])[C@@:7]23[H:15]>>[C:1]1([H:8])([H:9])[C:2]([H:10])=[C:3]([H:11])[C:7]([H:15])=[C:6]1[H:14].[O:4]=[C:5]([H:12])[H:13]"
C        0.76490929       1.09819117       0.17148708
C        1.46199903      -0.22001586       0.20401973
C        0.60673832      -1.25924318      -0.16283343
O       -0.67747373      -1.07248220       1.25251287
C       -1.44383088      -0.10882564       0.72497947
C       -0.52421178       0.65073384      -0.52778232
C       -0.03036093      -0.52723724      -1.20920102
H        0.64788309       1.52275630       1.17467771
H        1.28944049       1.83292161      -0.44211047
H        2.46147163      -0.36471145       0.59946663
H        0.90408545      -2.29579072      -0.22425746
H       -1.66011754       0.72005911       1.41336790
H       -2.38593248      -0.45866356       0.27657709
H       -1.06761484       1.40750270      -1.08714375
H       -0.34698512      -0.92519489      -2.16376003
15
Frame=4 idx=008436 GeodesicLength=0.39341728101986906 rxn_smarts="[C:1]1([H:8])([H:9])[C@@:2]2([H:10])[C@@:3]3([H:11])[O:4][C:5]([H:12])([H:13])[C@:6]1([H:14])[C@@:7]23[H:15]>>[C:1]1([H:8])([H:9])[C:2]([H:10])=[C:3]([H:11])[C:7]([H:15])=[C:6]1[H:14].[O:4]=[C:5]([H:12])[H:13]"
C        0.76752693       1.09926203       0.17185578
C        1.46317932      -0.22115359       0.18795949
C        0.59827049      -1.26281386      -0.15349003
O       -0.68582908      -1.06212619       1.28188734
C       -1.45846436      -0.11642414       0.73786930
C       -0.51873698       0.65527404      -0.53397705
C       -0.01789637      -0.52195708      -1.21050195
H        0.64569120       1.51275037       1.17895306
H        1.29526899       1.84047666      -0.43118461
H        2.46968008      -0.36859272       0.56390787
H        0.89691352      -2.29883876      -0.22084306
H       -1.67917645       0.73098721       1.40128066
H       -2.39637852      -0.48414694       0.29441990
H       -1.05793481       1.41234469      -1.09700471
H       -0.32211397      -0.91504173      -2.17113198
15
Frame=5 idx=008436 GeodesicLength=0.4915498091842997 rxn_smarts="[C:1]1([H:8])([H:9])[C@@:2]2([H:10])[C@@:3]3([H:11])[O:4][C:5]([H:12])([H:13])[C@:6]1([H:14])[C@@:7]23[H:15]>>[C:1]1([H:8])([H:9])[C:2]([H:10])=[C:3]([H:11])[C:7]([H:15])=[C:6]1[H:14].[O:4]=[C:5]([H:12])[H:13]"
C        0.77032667       1.10038093       0.17205634
C        1.46418256      -0.22226693       0.17203980
C        0.58994212      -1.26581530      -0.14469272
O       -0.69393541      -1.05144642       1.31130056
C       -1.47309067      -0.12435439       0.75113085
C       -0.51299118       0.66009729      -0.54057710
C       -0.00545761      -0.51653420      -1.21210002
H        0.64340602       1.50293746       1.18281187
H        1.30159808       1.84775006      -0.42027974
H        2.47680591      -0.37283153       0.52961499
H        0.88968161      -2.30136804      -0.21792710
H       -1.69807763       0.74123537       1.38854368
H       -2.40671935      -0.51021782       0.31345726
H       -1.04800514       1.41754472      -1.10706967
H       -0.29766596      -0.90511121      -2.17830898
15
Frame=6 idx=008436 GeodesicLength=0.5896291130551328 rxn_smarts="[C:1]1([H:8])([H:9])[C@@:2]2([H:10])[C@@:3]3([H:11])[O:4][C:5]([H:12])([H:13])[C@:6]1([H:14])[C@@:7]23[H:15]>>[C:1]1([H:8])([H:9])[C:2]([H:10])=[C:3]([H:11])[C:7]([H:15])=[C:6]1[H:14].[O:4]=[C:5]([H:12])[H:13]"
C        0.77330126       1.10154882       0.17209864
C        1.46500866      -0.22335781       0.15628990
C        0.58172229      -1.26826993      -0.13643281
O       -0.70181538      -1.04043312       1.34077229
C       -1.48772601      -0.13263292       0.76478552
C       -0.50696003       0.66522240      -0.54760242
C        0.00696012      -0.51096157      -1.21400199
H        0.64099373       1.49332880       1.18626033
H        1.30843803       1.85473717      -0.40937484
H        2.48297258      -0.37740403       0.49652559
H        0.88234072      -2.30340741      -0.21548134
H       -1.71686149       0.75075352       1.37511471
H       -2.41696396      -0.53688340       0.33375938
H       -1.03779534       1.42312789      -1.11737099
H       -0.27361518      -0.89536840      -2.18534198
15
Frame=7 idx=008436 GeodesicLength=0.6876527343680858 rxn_smarts="[C:1]1([H:8])([H:9])[C@@:2]2([H:10])[C@@:3]3([H:11])[O:4][C:5]([H:12])([H:13])[C@:6]1([H:14])[C@@:7]23[H:15]>>[C:1]1([H:8])([H:9])[C:2]([H:10])=[C:3]([H:11])[C:7]([H:15])=[C:6]1[H:14].[O:4]=[C:5]([H:12])[H:13]"
C        0.77644581       1.10276831       0.17198349
C        1.46566269      -0.22442491       0.14072296
C        0.57358522      -1.27019723      -0.12870758
O       -0.70948172      -1.02908081       1.37031673
C       -1.50238015      -0.14127806       0.77885499
C       -0.50063138       0.67066598      -0.55507062
C        0.01936139      -0.50523117      -1.21621719
H        0.63842925       1.48393830       1.18929579
H        1.31579441       1.86143387      -0.39846258
H        2.48824484      -0.38229558       0.46462782
H        0.87485478      -2.30497981      -0.21348849
H       -1.73554671       0.75947728       1.36096059
H       -2.42711871      -0.56413153       0.35539631
H       -1.02728134       1.42911510      -1.12793522
H       -0.24993837      -0.88577972      -2.19227700
15
Frame=8 idx=008436 GeodesicLength=0.7856437277483079 rxn_smarts="[C:1]1([H:8])([H:9])[C@@:2]2([H:10])[C@@:3]3([H:11])[O:4][C:5]([H:12])([H:13])[C@:6]1([H:14])[C@@:7]23[H:15]>>[C:1]1([H:8])([H:9])[C:2]([H:10])=[C:3]([H:11])[C:7]([H:15])=[C:6]1[H:14].[O:4]=[C:5]([H:12])[H:13]"
C        0.77975575       1.10404122       0.17171865
C        1.46614839      -0.22546985       0.12535496
C        0.56549676      -1.27161334      -0.12151050
O       -0.71695054      -1.01736882       1.39995914
C       -1.51706641      -0.15030771       0.79336881
C       -0.49398609       0.67645001      -0.56300463
C        0.03175227      -0.49933406      -1.21875212
H        0.63568326       1.47477437       1.19192374
H        1.32367669       1.86783707      -0.38751970
H        2.49271263      -0.38749031       0.43387130
H        0.86717292      -2.30610564      -0.21192965
H       -1.75417368       0.76734063       1.34602745
H       -2.43718713      -0.59197067       0.37844944
H       -1.01642778       1.43553413      -1.13879462
H       -0.22660706      -0.87631705      -2.19916226
15
Frame=9 idx=008436 GeodesicLength=0.883708701769367 rxn_smarts="[C:1]1([H:8])([H:9])[C@@:2]2([H:10])[C@@:3]3([H:11])[O:4][C:5]([H:12])([H:13])[C@:6]1([H:14])[C@@:7]23[H:15]>>[C:1]1([H:8])([H:9])[C:2]([H:10])=[C:3]([H:11])[C:7]([H:15])=[C:6]1[H:14].[O:4]=[C:5]([H:12])[H:13]"
C        0.78322871       1.10536971       0.17131147
C        1.46645955      -0.22649136       0.11016711
C        0.55742822      -1.27252259      -0.11484909
O       -0.72419685      -1.00527287       1.42974344
C       -1.53178134      -0.15978956       0.80836921
C       -0.48698087       0.68261796      -0.57145470
C        0.04413312      -0.49325386      -1.22163083
H        0.63271546       1.46582814       1.19414040
H        1.33209582       1.87395156      -0.37648647
H        2.49630847      -0.39299084       0.40425430
H        0.85924308      -2.30679897      -0.21078874
H       -1.77275590       0.77432791       1.33019423
H       -2.44711099      -0.62047743       0.40306552
H       -1.00516434       1.44244209      -1.15000579
H       -0.20362213      -0.86693987      -2.20603006
15
Frame=10 idx=008436 GeodesicLength=0.9817510030501229 rxn_smarts="[C:1]1([H:8])([H:9])[C@@:2]2([H:10])[C@@:3]3([H:11])[O:4][C:5]([H:12])([H:13])[C@:6]1([H:14])[C@@:7]23[H:15]>>[C:1]1([H:8])([H:9])[C:2]([H:10])=[C:3]([H:11])[C:7]([H:15])=[C:6]1[H:14].[O:4]=[C:5]([H:12])[H:13]"
C        0.78685717       1.10675858       0.17075992
C        1.46660330      -0.22749102       0.09519200
C        0.54933431      -1.27294406      -0.10871504
O       -0.73126674      -0.99277201       1.45967433
C       -1.54654442      -0.16969689       0.82387871
C       -0.47962198       0.68917243      -0.58041829
C        0.05651669      -0.48698465      -1.22485155
H        0.62951073       1.45713112       1.19594307
H        1.34105577       1.87976775      -0.36538493
H        2.49921536      -0.39878322       0.37574422
H        0.85102068      -2.30707815      -0.21006096
H       -1.79132720       0.78028754       1.31346784
H       -2.45694074      -0.64958137       0.42928248
H       -0.99348763       1.44984104      -1.16157936
H       -0.18092530      -0.85762708      -2.21293244
15
Frame=11 idx=008436 GeodesicLength=1.0797644238099915 rxn_smarts="[C:1]1([H:8])([H:9])[C@@:2]2([H:10])[C@@:3]3([H:11])[O:4][C:5]([H:12])([H:13])[C@:6]1([H:14])[C@@:7]23[H:15]>>[C:1]1([H:8])([H:9])[C:2]([H:10])=[C:3]([H:11])[C:7]([H:15])=[C:6]1[H:14].[O:4]=[C:5]([H:12])[H:13]"
C        0.79063741       1.10821187       0.17006344
C        1.46658020      -0.22846948       0.08043063
C        0.54117930      -1.27288386      -0.10311230
O       -0.73816375      -0.97984444       1.48977436
C       -1.56136147      -0.18005831       0.83992803
C       -0.47189039       0.69613712      -0.58992028
C        0.06891101      -0.48051410      -1.22842740
H        0.62604160       1.44869555       1.19732373
H        1.35056196       1.88528309      -0.35419828
H        2.50145306      -0.40487014       0.34834720
H        0.84246158      -2.30695353      -0.20974608
H       -1.80989457       0.78513953       1.29579334
H       -2.46666902      -0.67928556       0.45719899
H       -0.98136121       1.45776057      -1.17354768
H       -0.15848569      -0.84834832      -2.21990770
15
Frame=12 idx=008436 GeodesicLength=1.1777523728573134 rxn_smarts="[C:1]1([H:8])([H:9])[C@@:2]2([H:10])[C@@:3]3([H:11])[O:4][C:5]([H:12])([H:13])[C@:6]1([H:14])[C@@:7]23[H:15]>>[C:1]1([H:8])([H:9])[C:2]([H:10])=[C:3]([H:11])[C:7]([H:15])=[C:6]1[H:14].[O:4]=[C:5]([H:12])[H:13]"
C        0.79456321       1.10973520       0.16922289
C        1.46638674      -0.22942720       0.06588436
C        0.53291853      -1.27234552      -0.09804469
O       -0.74488986      -0.96645957       1.52007360
C       -1.57623701      -0.19090400       0.85655672
C       -0.46376425       0.70354071      -0.59998861
C        0.08132580      -0.47382724      -1.23237175
H        0.62227751       1.44053386       1.19827476
H        1.36062031       1.89049589      -0.34290331
H        2.50306231      -0.41125882       0.32205780
H        0.83350829      -2.30643314      -0.20984065
H       -1.82846752       0.78878827       1.27710794
H       -2.47629098      -0.70959669       0.48691189
H       -0.96874583       1.46623458      -1.18594553
H       -0.13626725      -0.83907634      -2.22699543
15
Frame=13 idx=008436 GeodesicLength=1.2757072170558343 rxn_smarts="[C:1]1([H:8])([H:9])[C@@:2]2([H:10])[C@@:3]3([H:11])[O:4][C:5]([H:12])([H:13])[C@:6]1([H:14])[C@@:7]23[H:15]>>[C:1]1([H:8])([H:9])[C:2]([H:10])=[C:3]([H:11])[C:7]([H:15])=[C:6]1[H:14].[O:4]=[C:5]([H:12])[H:13]"
C        0.79863004       1.11133286       0.16823790
C        1.46601986      -0.23036497       0.05155283
C        0.52450816      -1.27133075      -0.09352035
O       -0.75145102      -0.95258550       1.55059652
C       -1.59117684      -0.20226142       0.87380279
C       -0.45522026       0.71141017      -0.61065132
C        0.09377010      -0.46690838      -1.23669926
H        0.61818942       1.43265922       1.19878604
H        1.37123772       1.89540069      -0.33147905
H        2.50406188      -0.41795478       0.29688290
H        0.82410755      -2.30552204      -0.21034784
H       -1.84705180       0.79112567       1.25734490
H       -2.48579598      -0.74051870       0.51853645
H       -0.95559552       1.47529795      -1.19880986
H       -0.11423328      -0.82978002      -2.23423266
15
Frame=14 idx=008436 GeodesicLength=1.3736205242883988 rxn_smarts="[C:1]1([H:8])([H:9])[C@@:2]2([H:10])[C@@:3]3([H:11])[O:4][C:5]([H:12])([H:13])[C@:6]1([H:14])[C@@:7]23[H:15]>>[C:1]1([H:8])([H:9])[C:2]([H:10])=[C:3]([H:11])[C:7]([H:15])=[C:6]1[H:14].[O:4]=[C:5]([H:12])[H:13]"
C        0.80283200       1.11301141       0.16710622
C        1.46547307      -0.23128301       0.03743565
C        0.51590050      -1.26983413      -0.08954718
O       -0.75785042      -0.93819000       1.58136737
C       -1.60618317      -0.21415887       0.89171234
C       -0.44623185       0.71977579      -0.62193936
C        0.10625778      -0.45974042      -1.24142523
H        0.61374391       1.42508685       1.19884289
H        1.38241907       1.89999162      -0.31990356
H        2.50446531      -0.42497217       0.27283130
H        0.81419957      -2.30421816      -0.21127067
H       -1.86564700       0.79201041       1.23642795
H       -2.49517063      -0.77203610       0.55219146
H       -0.94186396       1.48498686      -1.21217607
H       -0.09234416      -0.82043007      -2.24165312
15
Frame=15 idx=008436 GeodesicLength=1.471497585256097 rxn_smarts="[C:1]1([H:8])([H:9])[C@@:2]2([H:10])[C@@:3]3([H:11])[O:4][C:5]([H:12])([H:13])[C@:6]1([H:14])[C@@:7]23[H:15]>>[C:1]1([H:8])([H:9])[C:2]([H:10])=[C:3]([H:11])[C:7]([H:15])=[C:6]1[H:14].[O:4]=[C:5]([H:12])[H:13]"
C        0.80716340       1.11477625       0.16582966
C        1.46473665      -0.23218352       0.02353375
C        0.50703919      -1.26784948      -0.08614048
O       -0.76409685      -0.92322341       1.61241297
C       -1.62125523      -0.22662774       0.91033583
C       -0.43676751       0.72867299      -0.63388939
C        0.11880253      -0.45230322      -1.24656951
H        0.60890321       1.41783032       1.19843292
H        1.39417488       1.90426269      -0.30814107
H        2.50429247      -0.43232457       0.24990606
H        0.80371050      -2.30252128      -0.21261899
H       -1.88427009       0.79128591       1.21425214
H       -2.50438983      -0.80414825       0.58804277
H       -0.92749007       1.49534762      -1.22609021
H       -0.07055325      -0.81099432      -2.24929646
15
Frame=16 idx=008436 GeodesicLength=1.5693308035013942 rxn_smarts="[C:1]1([H:8])([H:9])[C@@:2]2([H:10])[C@@:3]3([H:11])[O:4][C:5]([H:12])([H:13])[C@:6]1([H:14])[C@@:7]23[H:15]>>[C:1]1([H:8])([H:9])[C:2]([H:10])=[C:3]([H:11])[C:7]([H:15])=[C:6]1[H:14].[O:4]=[C:5]([H:12])[H:13]"
C        0.81161825       1.11663396       0.16440491
C        1.46379927      -0.23306740       0.00984646
C        0.49786804      -1.26536485      -0.08331909
O       -0.77019823      -0.90764159       1.64375414
C       -1.63639252      -0.23969829       0.92972774
C       -0.42679409       0.73813438      -0.64653909
C        0.13142149      -0.44457588      -1.25215344
H        0.60362924       1.41090705       1.19753635
H        1.40651090       1.90820420      -0.29616440
H        2.50353776      -0.44002709       0.22813420
H        0.79257060      -2.30042341      -0.21440731
H       -1.90290792       0.78875447       1.19071656
H       -2.51343506      -0.83681762       0.62625403
H       -0.91241825       1.50642069      -1.24059130
H       -0.04880948      -0.80143862      -2.25719977
