9
Frame=0 idx=004556 GeodesicLength=0.0 rxn_smarts="[O:1]=[C:2]1[C:3]([H:6])([H:7])[C:4]([H:8])([H:9])[O:5]1>>[C:3]1([H:6])([H:7])[C:4]([H:8])([H:9])[O:5]1.[O+:1]#[C-:2]"
O        2.35411531      -0.72283216      -1.08418874
C        1.38526996      -0.14240177      -0.95830256
C       -0.08516128       0.77921350       0.23270672
C       -0.97062652      -0.37234397       0.27844016
O        0.17122757      -1.16423677       0.31043234
H       -0.11831244       1.56876600      -0.50327753
H        0.45725374       0.99326910       1.14376981
H       -1.60822122      -0.49558620      -0.60375551
H       -1.58554512      -0.44384774       1.18417531
9
Frame=1 idx=004556 GeodesicLength=0.03726765696239195 rxn_smarts="[O:1]=[C:2]1[C:3]([H:6])([H:7])[C:4]([H:8])([H:9])[O:5]1>>[C:3]1([H:6])([H:7])[C:4]([H:8])([H:9])[O:5]1.[O+:1]#[C-:2]"
O        2.35783946      -0.71963130      -1.09353865
C        1.37741067      -0.15766334      -0.96503072
C       -0.07670926       0.77395109       0.23644101
C       -0.97438120      -0.37058586       0.27697270
O        0.17654842      -1.15273852       0.31679177
H       -0.11568199       1.56590423      -0.49727555
H        0.44939823       1.00312372       1.15367992
H       -1.60444397      -0.49773093      -0.60931200
H       -1.58998037      -0.44462911       1.18127151
9
Frame=2 idx=004556 GeodesicLength=0.07451040499667058 rxn_smarts="[O:1]=[C:2]1[C:3]([H:6])([H:7])[C:4]([H:8])([H:9])[O:5]1>>[C:3]1([H:6])([H:7])[C:4]([H:8])([H:9])[O:5]1.[O+:1]#[C-:2]"
O        2.36117484      -0.71644346      -1.10324901
C        1.36971021      -0.17302401      -0.97125318
C       -0.06816228       0.76874066       0.24031416
C       -0.97790168      -0.36878133       0.27543981
O        0.18179826      -1.14141016       0.32303907
H       -0.11286258       1.56293569      -0.49127274
H        0.44099460       1.01327916       1.16347231
H       -1.60055933      -0.49978898      -0.61476694
H       -1.59419203      -0.44550757       1.17827653
9
Frame=3 idx=004556 GeodesicLength=0.11175663552607365 rxn_smarts="[O:1]=[C:2]1[C:3]([H:6])([H:7])[C:4]([H:8])([H:9])[O:5]1>>[C:3]1([H:6])([H:7])[C:4]([H:8])([H:9])[O:5]1.[O+:1]#[C-:2]"
O        2.36406051      -0.71337009      -1.11347599
C        1.36224002      -0.18841149      -0.97688714
C       -0.05953607       0.76358146       0.24435025
C       -0.98117009      -0.36691641       0.27385071
O        0.18700960      -1.13018468       0.32922603
H       -0.10984723       1.55982389      -0.48524804
H        0.43193575       1.02371268       1.17313736
H       -1.59647149      -0.50176286      -0.62011583
H       -1.59822100      -0.44647250       1.17516265
9
Frame=4 idx=004556 GeodesicLength=0.14893828209396726 rxn_smarts="[O:1]=[C:2]1[C:3]([H:6])([H:7])[C:4]([H:8])([H:9])[O:5]1>>[C:3]1([H:6])([H:7])[C:4]([H:8])([H:9])[O:5]1.[O+:1]#[C-:2]"
O        2.36656664      -0.71032103      -1.12400182
C        1.35493780      -0.20386532      -0.98201217
C       -0.05082366       0.75849427       0.24853995
C       -0.98421615      -0.36500849       0.27220159
O        0.19214565      -1.11916243       0.33527396
H       -0.10667455       1.55663423      -0.47923236
H        0.42237986       1.03440870       1.18262482
H       -1.59231116      -0.50363092      -0.62537936
H       -1.60200444      -0.44754901       1.17198540
9
Frame=5 idx=004556 GeodesicLength=0.18607701928045145 rxn_smarts="[O:1]=[C:2]1[C:3]([H:6])([H:7])[C:4]([H:8])([H:9])[O:5]1>>[C:3]1([H:6])([H:7])[C:4]([H:8])([H:9])[O:5]1.[O+:1]#[C-:2]"
O        2.36871531      -0.70726378      -1.13482204
C        1.34781301      -0.21938415      -0.98664592
C       -0.04203121       0.75345752       0.25288876
C       -0.98704968      -0.36304253       0.27050742
O        0.19720397      -1.10832061       0.34119029
H       -0.10333850       1.55333274      -0.47321224
H        0.41232284       1.04531139       1.19187717
H       -1.58805942      -0.50536973      -0.63053250
H       -1.60557633      -0.44872085       1.16874906
9
Frame=6 idx=004556 GeodesicLength=0.22317997853944346 rxn_smarts="[O:1]=[C:2]1[C:3]([H:6])([H:7])[C:4]([H:8])([H:9])[O:5]1>>[C:3]1([H:6])([H:7])[C:4]([H:8])([H:9])[O:5]1.[O+:1]#[C-:2]"
O        2.37048573      -0.70422643      -1.14596170
C        1.34086872      -0.23495145      -0.99077252
C       -0.03316059       0.74848361       0.25741327
C       -0.98967128      -0.36102130       0.26876796
O        0.20220273      -1.09766004       0.34700002
H       -0.09984358       1.54993879      -0.46717294
H        0.40177254       1.05642191       1.20088270
H       -1.58370641      -0.50699258      -0.63559539
H       -1.60894788      -0.44999252       1.16543859
9
Frame=7 idx=004556 GeodesicLength=0.26024923112083903 rxn_smarts="[O:1]=[C:2]1[C:3]([H:6])([H:7])[C:4]([H:8])([H:9])[O:5]1>>[C:3]1([H:6])([H:7])[C:4]([H:8])([H:9])[O:5]1.[O+:1]#[C-:2]"
O        2.37184762      -0.70123835      -1.15746398
C        1.33412090      -0.25053471      -0.99436265
C       -0.02421662       0.74357579       0.26212944
C       -0.99208161      -0.35894483       0.26698652
O        0.20715097      -1.08716947       0.35273696
H       -0.09618852       1.54645821      -0.46110629
H        0.39072988       1.06773005       1.20962264
H       -1.57922323      -0.50850707      -0.64058616
H       -1.61213939      -0.45136962       1.16204353
9
Frame=8 idx=004556 GeodesicLength=0.2973011296122471 rxn_smarts="[O:1]=[C:2]1[C:3]([H:6])([H:7])[C:4]([H:8])([H:9])[O:5]1>>[C:3]1([H:6])([H:7])[C:4]([H:8])([H:9])[O:5]1.[O+:1]#[C-:2]"
O        2.37280244      -0.69827366      -1.16930104
C        1.32755369      -0.26614817      -0.99743630
C       -0.01520364       0.73873088       0.26704800
C       -0.99428228      -0.35680762       0.26516569
O        0.21205096      -1.07684687       0.35840079
H       -0.09238013       1.54288264      -0.45499677
H        0.37921578       1.07920960       1.21806587
H       -1.57460261      -0.50990854      -0.64550657
H       -1.61515421      -0.45283826       1.15856034
9
Frame=9 idx=004556 GeodesicLength=0.33431615033874534 rxn_smarts="[O:1]=[C:2]1[C:3]([H:6])([H:7])[C:4]([H:8])([H:9])[O:5]1>>[C:3]1([H:6])([H:7])[C:4]([H:8])([H:9])[O:5]1.[O+:1]#[C-:2]"
O        2.37337039      -0.69529602      -1.18139204
C        1.32117391      -0.28177567      -0.99999060
C       -0.00614103       0.73394663       0.27216153
C       -0.99629299      -0.35461095       0.26330960
O        0.21688486      -1.06670991       0.36395275
H       -0.08844248       1.53921169      -0.44885053
H        0.36732058       1.09081565       1.22614646
H       -1.56988956      -0.51118145      -0.65034248
H       -1.61798369      -0.45439999       1.15500531
9
Frame=10 idx=004556 GeodesicLength=0.3712835274256367 rxn_smarts="[O:1]=[C:2]1[C:3]([H:6])([H:7])[C:4]([H:8])([H:9])[O:5]1>>[C:3]1([H:6])([H:7])[C:4]([H:8])([H:9])[O:5]1.[O+:1]#[C-:2]"
O        2.37356748      -0.69223743      -1.19369166
C        1.31497218      -0.29742476      -1.00205042
C        0.00297170       0.72921192       0.27746418
C       -0.99813246      -0.35235257       0.26142854
O        0.22163662      -1.05676395       0.36941018
H       -0.08436412       1.53543889      -0.44268667
H        0.35510077       1.10249387       1.23382294
H       -1.56510081      -0.51231209      -0.65509055
H       -1.62065136      -0.45605388       1.15139345
9
Frame=11 idx=004556 GeodesicLength=0.40822054159441185 rxn_smarts="[O:1]=[C:2]1[C:3]([H:6])([H:7])[C:4]([H:8])([H:9])[O:5]1>>[C:3]1([H:6])([H:7])[C:4]([H:8])([H:9])[O:5]1.[O+:1]#[C-:2]"
O        2.37336270      -0.68916345      -1.20626278
C        1.30897229      -0.31306741      -1.00358191
C        0.01212060       0.72454546       0.28297934
C       -0.99979951      -0.35003596       0.25951746
O        0.22633455      -1.04699889       0.37480172
H       -0.08016024       1.53158697      -0.43647957
H        0.34255613       1.11426261       1.24110275
H       -1.56021221      -0.51332492      -0.65977755
H       -1.62317430      -0.45780442       1.14770053
9
Frame=12 idx=004556 GeodesicLength=0.44512770459205087 rxn_smarts="[O:1]=[C:2]1[C:3]([H:6])([H:7])[C:4]([H:8])([H:9])[O:5]1>>[C:3]1([H:6])([H:7])[C:4]([H:8])([H:9])[O:5]1.[O+:1]#[C-:2]"
O        2.37272938      -0.68606063      -1.21911249
C        1.30317501      -0.32868849      -1.00457131
C        0.02129806       0.71994461       0.28871306
C       -1.00129879      -0.34766096       0.25757878
O        0.23097601      -1.03740605       0.38015627
H       -0.07582092       1.52765327      -0.43023442
H        0.32971470       1.12609503       1.24796445
H       -1.55520596      -0.51422157      -0.66441465
H       -1.62556749      -0.45965522       1.14392031
9
Frame=13 idx=004556 GeodesicLength=0.4820233724389266 rxn_smarts="[O:1]=[C:2]1[C:3]([H:6])([H:7])[C:4]([H:8])([H:9])[O:5]1>>[C:3]1([H:6])([H:7])[C:4]([H:8])([H:9])[O:5]1.[O+:1]#[C-:2]"
O        2.37165564      -0.68290204      -1.23222526
C        1.29757173      -0.34430298      -1.00502589
C        0.03049280       0.71540776       0.29467183
C       -1.00263178      -0.34522450       0.25561173
O        0.23556232      -1.02797880       0.38547778
H       -0.07135276       1.52362880      -0.42393887
H        0.31660604       1.13796602       1.25439114
H       -1.55006897      -0.51500799      -0.66900644
H       -1.62783502      -0.46158628       1.14004399
9
Frame=14 idx=004556 GeodesicLength=0.5188914645078556 rxn_smarts="[O:1]=[C:2]1[C:3]([H:6])([H:7])[C:4]([H:8])([H:9])[O:5]1>>[C:3]1([H:6])([H:7])[C:4]([H:8])([H:9])[O:5]1.[O+:1]#[C-:2]"
O        2.37016136      -0.67965594      -1.24553900
C        1.29218139      -0.35989485      -1.00494247
C        0.03967658       0.71093344       0.30084330
C       -1.00382435      -0.34272798       0.25361986
O        0.24007682      -1.01872587       0.39074044
H       -0.06678392       1.51951658      -0.41759982
H        0.30333478       1.14983293       1.26033597
H       -1.54483722      -0.51568098      -0.67354378
H       -1.62998544      -0.46359732       1.13608551
9
Frame=15 idx=004556 GeodesicLength=0.5557167771397081 rxn_smarts="[O:1]=[C:2]1[C:3]([H:6])([H:7])[C:4]([H:8])([H:9])[O:5]1>>[C:3]1([H:6])([H:7])[C:4]([H:8])([H:9])[O:5]1.[O+:1]#[C-:2]"
O        2.36822108      -0.67625527      -1.25901175
C        1.28698274      -0.37546938      -1.00432621
C        0.04885022       0.70651303       0.30721481
C       -1.00488307      -0.34017443       0.25160407
O        0.24450828      -1.00965047       0.39597789
H       -0.06210081       1.51531673      -0.41124783
H        0.28996156       1.16164211       1.26578005
H       -1.53951434      -0.51623814      -0.67803543
H       -1.63202568      -0.46568419       1.13204440
9
Frame=16 idx=004556 GeodesicLength=0.5925226025521629 rxn_smarts="[O:1]=[C:2]1[C:3]([H:6])([H:7])[C:4]([H:8])([H:9])[O:5]1>>[C:3]1([H:6])([H:7])[C:4]([H:8])([H:9])[O:5]1.[O+:1]#[C-:2]"
O        2.36581055      -0.67276938      -1.27272510
C        1.28201843      -0.39099894      -1.00314543
C        0.05799314       0.70216510       0.31381115
C       -1.00581278      -0.33756725       0.24955999
O        0.24888055      -1.00073289       0.40121306
H       -0.05731360       1.51104409      -0.40485405
H        0.27648513       1.17342001       1.27074593
H       -1.53407287      -0.51671171      -0.68250296
H       -1.63398857      -0.46784904       1.12789741
