10
Frame=0 idx=006123 GeodesicLength=0.0 rxn_smarts="[C:1]1([H:6])([H:7])[C:2]([H:8])([H:9])[N:3]=[C:4]([H:10])[O:5]1>>[C:1](=[O:5])([H:6])[H:7].[C:2]1([H:8])([H:9])[N:3]=[C:4]1[H:10]"
C       -0.49005970      -1.03129826       0.03651182
C       -0.27963929       0.91023246       0.15742888
N        1.15812747       1.21703242       0.60656863
C        1.10987142       0.26073564      -0.19145608
O        0.71670219      -1.37868285       0.35870140
H       -1.28791445      -1.20754083       0.76276245
H       -0.82353424      -1.12989733      -1.00607931
H       -0.69780750       1.53911459      -0.61840640
H       -0.84915668       0.84205335       1.07316236
H        1.44341078      -0.02174919      -1.17919377
10
Frame=1 idx=006123 GeodesicLength=0.07728531608621995 rxn_smarts="[C:1]1([H:6])([H:7])[C:2]([H:8])([H:9])[N:3]=[C:4]([H:10])[O:5]1>>[C:1](=[O:5])([H:6])[H:7].[C:2]1([H:8])([H:9])[N:3]=[C:4]1[H:10]"
C       -0.50241825      -1.03805750       0.03113188
C       -0.28137476       0.91388831       0.16230094
N        1.15646655       1.23754253       0.58732429
C        1.11982990       0.26337218      -0.18917099
O        0.70852246      -1.38790626       0.33940455
H       -1.29027946      -1.22175791       0.76683408
H       -0.84603871      -1.14045829      -1.00767484
H       -0.71163050       1.53750003      -0.61179201
H       -0.84344986       0.85913504       1.08429890
H        1.49037262      -0.02325813      -1.16265679
10
Frame=2 idx=006123 GeodesicLength=0.1545402629769856 rxn_smarts="[C:1]1([H:6])([H:7])[C:2]([H:8])([H:9])[N:3]=[C:4]([H:10])[O:5]1>>[C:1](=[O:5])([H:6])[H:7].[C:2]1([H:8])([H:9])[N:3]=[C:4]1[H:10]"
C       -0.51518961      -1.04483499       0.02546913
C       -0.28320744       0.91756594       0.16723170
N        1.15448414       1.25847917       0.56660060
C        1.12990799       0.26617740      -0.18689571
O        0.70011463      -1.39703477       0.31847349
H       -1.29217820      -1.23653562       0.77108002
H       -0.86994218      -1.15105423      -1.00909127
H       -0.72604239       1.53558658      -0.60488306
H       -0.83716962       0.87671306       1.09562679
H        1.53922267      -0.02506256      -1.14361169
10
Frame=3 idx=006123 GeodesicLength=0.2317341771176098 rxn_smarts="[C:1]1([H:6])([H:7])[C:2]([H:8])([H:9])[N:3]=[C:4]([H:10])[O:5]1>>[C:1](=[O:5])([H:6])[H:7].[C:2]1([H:8])([H:9])[N:3]=[C:4]1[H:10]"
C       -0.52838607      -1.05163038       0.01950422
C       -0.28513423       0.92126994       0.17221224
N        1.15213570       1.27980945       0.54424295
C        1.14010950       0.26917172      -0.18468337
O        0.69146587      -1.40601741       0.29573022
H       -1.29351571      -1.25190449       0.77550786
H       -0.89532904      -1.16167279      -1.01028640
H       -0.74108257       1.53337070      -0.59763793
H       -0.83025443       0.89480743       1.10713038
H        1.58999098      -0.02720416      -1.12172017
10
Frame=4 idx=006123 GeodesicLength=0.30883611572569397 rxn_smarts="[C:1]1([H:6])([H:7])[C:2]([H:8])([H:9])[N:3]=[C:4]([H:10])[O:5]1>>[C:1](=[O:5])([H:6])[H:7].[C:2]1([H:8])([H:9])[N:3]=[C:4]1[H:10]"
C       -0.54202117      -1.05844356       0.01321505
C       -0.28714918       0.92500519       0.17722891
N        1.14937069       1.30149557       0.52007132
C        1.15044080       0.27237483      -0.18259434
O        0.68255815      -1.41479648       0.27096023
H       -1.29417404      -1.26790181       0.78012950
H       -0.92230094      -1.17229554      -1.01120738
H       -0.75679509       1.53084527      -0.59001309
H       -0.82262954       0.91343986       1.11878989
H        1.64270032      -0.02972333      -1.09658010
10
Frame=5 idx=006123 GeodesicLength=0.3858059540831488 rxn_smarts="[C:1]1([H:6])([H:7])[C:2]([H:8])([H:9])[N:3]=[C:4]([H:10])[O:5]1>>[C:1](=[O:5])([H:6])[H:7].[C:2]1([H:8])([H:9])[N:3]=[C:4]1[H:10]"
C       -0.55610452      -1.06527366       0.00656946
C       -0.28923795       0.92877570       0.18227393
N        1.14613606       1.32351692       0.49384512
C        1.16091766       0.27580306      -0.18068592
O        0.67336385      -1.42329791       0.24393943
H       -1.29403005      -1.28456762       0.78492664
H       -0.95094325      -1.18289881      -1.01180599
H       -0.77324088       1.52798990      -0.58194529
H       -0.81418094       0.93263084       1.13060170
H        1.69732001      -0.03267843      -1.06771907
10
Frame=6 idx=006123 GeodesicLength=0.46261013619840813 rxn_smarts="[C:1]1([H:6])([H:7])[C:2]([H:8])([H:9])[N:3]=[C:4]([H:10])[O:5]1>>[C:1](=[O:5])([H:6])[H:7].[C:2]1([H:8])([H:9])[N:3]=[C:4]1[H:10]"
C       -0.57064924      -1.07212005      -0.00046321
C       -0.29138668       0.93258979       0.18731716
N        1.14236160       1.34581650       0.46532090
C        1.17155336       0.27947717      -0.17903272
O        0.66385241      -1.43144621       0.21432899
H       -1.29288514      -1.30196426       0.78992848
H       -0.98141621      -1.19345414      -1.01199308
H       -0.79047047       1.52479309      -0.57338815
H       -0.80480018       0.95241917       1.14252824
H        1.75384055      -0.03611106      -1.03454661
10
Frame=7 idx=006123 GeodesicLength=0.5392022119081697 rxn_smarts="[C:1]1([H:6])([H:7])[C:2]([H:8])([H:9])[N:3]=[C:4]([H:10])[O:5]1>>[C:1](=[O:5])([H:6])[H:7].[C:2]1([H:8])([H:9])[N:3]=[C:4]1[H:10]"
C       -0.58566876      -1.07898288      -0.00791418
C       -0.29357605       0.93645611       0.19231009
N        1.13796653       1.36830903       0.43422705
C        1.18236511       0.28341395      -0.17772181
O        0.65398194      -1.43915118       0.18167652
H       -1.29046610      -1.32017077       0.79519064
H       -1.01393925      -1.20392274      -1.01163626
H       -0.80852478       1.52123995      -0.56430690
H       -0.79436788       0.97285264       1.15450524
H        1.81222924      -0.04004411      -0.99633039
10
Frame=8 idx=006123 GeodesicLength=0.6155426891459278 rxn_smarts="[C:1]1([H:6])([H:7])[C:2]([H:8])([H:9])[N:3]=[C:4]([H:10])[O:5]1>>[C:1](=[O:5])([H:6])[H:7].[C:2]1([H:8])([H:9])[N:3]=[C:4]1[H:10]"
C       -0.60116582      -1.08586116      -0.01583698
C       -0.29577762       0.94039132       0.19721051
N        1.13285920       1.39094172       0.40016101
C        1.19338123       0.28763001      -0.17684778
O        0.64369301      -1.44628877       0.14546199
H       -1.28645108      -1.33928866       0.80072605
H       -1.04872959      -1.21425246      -1.01060017
H       -0.82749172       1.51731052      -0.55462714
H       -0.78269043       0.99398472       1.16650081
H        1.87237281      -0.04456724      -0.95214829
10
Frame=9 idx=006123 GeodesicLength=0.6914738982976483 rxn_smarts="[C:1]1([H:6])([H:7])[C:2]([H:8])([H:9])[N:3]=[C:4]([H:10])[O:5]1>>[C:1](=[O:5])([H:6])[H:7].[C:2]1([H:8])([H:9])[N:3]=[C:4]1[H:10]"
C       -0.61712576      -1.09276828      -0.02425334
C       -0.29790841       0.94439218       0.20191149
N        1.12696253       1.41354279       0.36283606
C        1.20470106       0.29209110      -0.17635215
O        0.63289753      -1.45272421       0.10493730
H       -1.28034294      -1.35945298       0.80662420
H       -1.08611489      -1.22438712      -1.00860401
H       -0.84726414       1.51294920      -0.54440512
H       -0.76963705       1.01590748       1.17831789
H        1.93383208      -0.04955016      -0.90101233
10
Frame=10 idx=006123 GeodesicLength=0.7670540867592269 rxn_smarts="[C:1]1([H:6])([H:7])[C:2]([H:8])([H:9])[N:3]=[C:4]([H:10])[O:5]1>>[C:1](=[O:5])([H:6])[H:7].[C:2]1([H:8])([H:9])[N:3]=[C:4]1[H:10]"
C       -0.63355895      -1.09968631      -0.03331494
C       -0.29997059       0.94850773       0.20636380
N        1.12008676       1.43617472       0.32119559
C        1.21628081       0.29685756      -0.17654612
O        0.62144691      -1.45818811       0.05910330
H       -1.27153207      -1.38088594       0.81284084
H       -1.12653059      -1.23418008      -1.00543489
H       -0.86825707       1.50813548      -0.53335657
H       -0.75468263       1.03867672       1.19006716
H        1.99671743      -0.05541178      -0.84091819
10
Frame=11 idx=006123 GeodesicLength=0.8421068178405551 rxn_smarts="[C:1]1([H:6])([H:7])[C:2]([H:8])([H:9])[N:3]=[C:4]([H:10])[O:5]1>>[C:1](=[O:5])([H:6])[H:7].[C:2]1([H:8])([H:9])[N:3]=[C:4]1[H:10]"
C       -0.65040650      -1.10664073      -0.04308414
C       -0.30184761       0.95276630       0.21036464
N        1.11210073       1.45854538       0.27460347
C        1.22824598       0.30186945      -0.17743245
O        0.60914756      -1.46236975       0.00644703
H       -1.25896942      -1.40388876       0.81951863
H       -1.17063604      -1.24350419      -1.00052318
H       -0.89038764       1.50284160      -0.52153991
H       -0.73753070       1.06246090       1.20146221
H        2.06028365      -0.06208020      -0.76981629
10
Frame=12 idx=006123 GeodesicLength=0.9164447609702167 rxn_smarts="[C:1]1([H:6])([H:7])[C:2]([H:8])([H:9])[N:3]=[C:4]([H:10])[O:5]1>>[C:1](=[O:5])([H:6])[H:7].[C:2]1([H:8])([H:9])[N:3]=[C:4]1[H:10]"
C       -0.66748678      -1.11369200      -0.05363144
C       -0.30334261       0.95722669       0.21370157
N        1.10293380       1.48028848       0.22233573
C        1.24090450       0.30696024      -0.17851882
O        0.59573888      -1.46477559      -0.05474807
H       -1.24133897      -1.42889013       0.82662646
H       -1.21898696      -1.25224399      -0.99313279
H       -0.91341758       1.49703344      -0.50909177
H       -0.71784612       1.08756911       1.21213972
H        2.12284183      -0.06947625      -0.68568060
10
Frame=13 idx=006123 GeodesicLength=0.9898112206060825 rxn_smarts="[C:1]1([H:6])([H:7])[C:2]([H:8])([H:9])[N:3]=[C:4]([H:10])[O:5]1>>[C:1](=[O:5])([H:6])[H:7].[C:2]1([H:8])([H:9])[N:3]=[C:4]1[H:10]"
C       -0.68448684      -1.12080785      -0.06528888
C       -0.30427156       0.96208368       0.21629221
N        1.09231533       1.50112131       0.16226109
C        1.25426910       0.31218891      -0.18017755
O        0.58080806      -1.46437246      -0.12636902
H       -1.21692449      -1.45631328       0.83368593
H       -1.27180359      -1.26031668      -0.98267424
H       -0.93790668       1.49072605      -0.49537037
H       -0.69443697       1.11424318       1.22220377
H        2.18243764      -0.07855287      -0.58456295
10
Frame=14 idx=006123 GeodesicLength=1.0616195040213174 rxn_smarts="[C:1]1([H:6])([H:7])[C:2]([H:8])([H:9])[N:3]=[C:4]([H:10])[O:5]1>>[C:1](=[O:5])([H:6])[H:7].[C:2]1([H:8])([H:9])[N:3]=[C:4]1[H:10]"
C       -0.70066770      -1.12819346      -0.07777027
C       -0.30421613       0.96744274       0.21792096
N        1.08068981       1.51921262       0.09608697
C        1.26906657       0.31674406      -0.17946964
O        0.56401742      -1.45998061      -0.20895007
H       -1.18414837      -1.48660548       0.84015174
H       -1.32849016      -1.26798945      -0.96788340
H       -0.96186300       1.48410264      -0.48164639
H       -0.66812449       1.14336385       1.23050354
H        2.23373606      -0.08809692      -0.46894342
10
Frame=15 idx=006123 GeodesicLength=1.13268514223028 rxn_smarts="[C:1]1([H:6])([H:7])[C:2]([H:8])([H:9])[N:3]=[C:4]([H:10])[O:5]1>>[C:1](=[O:5])([H:6])[H:7].[C:2]1([H:8])([H:9])[N:3]=[C:4]1[H:10]"
C       -0.71528528      -1.13606756      -0.09092633
C       -0.30308757       0.97379920       0.21887697
N        1.06878349       1.53295637       0.02596007
C        1.28509031       0.32066090      -0.17669619
O        0.54522649      -1.45012108      -0.30039481
H       -1.14261792      -1.51973491       0.84479455
H       -1.38677968      -1.27637912      -0.94849314
H       -0.98437053       1.47803801      -0.46802423
H       -0.63962596       1.17556966       1.23681923
H        2.27266665      -0.09872147      -0.34191612
10
Frame=16 idx=006123 GeodesicLength=1.2034325073742107 rxn_smarts="[C:1]1([H:6])([H:7])[C:2]([H:8])([H:9])[N:3]=[C:4]([H:10])[O:5]1>>[C:1](=[O:5])([H:6])[H:7].[C:2]1([H:8])([H:9])[N:3]=[C:4]1[H:10]"
C       -0.72769470      -1.14450535      -0.10409890
C       -0.30084046       0.98133992       0.21969940
N        1.05769673       1.54090990      -0.04280396
C        1.30182393       0.32399824      -0.17265049
O        0.52464918      -1.43415338      -0.39456477
H       -1.09421955      -1.55481645       0.84628393
H       -1.44275608      -1.28669815      -0.92533796
H       -1.00368528       1.47328034      -0.45525575
H       -0.61074462       1.21089990       1.24090362
H        2.29577085      -0.11025497      -0.21217511
