12
Frame=0 idx=011947 GeodesicLength=0.0 rxn_smarts="[N:1]([c:2]1[c:3]([H:10])[n:4]([H:11])[c:5]([O:6][H:12])[n:7]1)([H:8])[H:9]>>[N+:1]1([H:8])([H:9])[C:2](=[C:3]([N:4]([C:5][O:6][H:12])[H:11])[H:10])[N-:7]1"
N        2.29181468       0.62935097      -0.05650570
C        0.96209764       0.15711109      -0.00769039
C        0.31596012      -1.00452423       0.14248793
N       -1.09237450      -0.83891416       0.10130840
C       -1.59982870       0.36318275      -0.06982291
O       -2.94344763       0.28803891      -0.07789006
N        0.68851931       1.41520268      -0.18226700
H        2.80425329       0.60387746      -0.91961586
H        2.78503283       0.83600246       0.79335068
H        0.75115437      -1.97762372       0.27650976
H       -1.69116266      -1.65048189       0.20443695
H       -3.27201875       1.17877765      -0.20430184
12
Frame=1 idx=011947 GeodesicLength=0.047970652451710935 rxn_smarts="[N:1]([c:2]1[c:3]([H:10])[n:4]([H:11])[c:5]([O:6][H:12])[n:7]1)([H:8])[H:9]>>[N+:1]1([H:8])([H:9])[C:2](=[C:3]([N:4]([C:5][O:6][H:12])[H:11])[H:10])[N-:7]1"
N        2.28283245       0.64080699      -0.05715910
C        0.96167948       0.15379650       0.03285152
C        0.31743213      -1.01210648       0.15740862
N       -1.08924615      -0.85005136       0.07569343
C       -1.58787979       0.35849907      -0.08497978
O       -2.93216863       0.30149701      -0.06835725
N        0.66240794       1.40497154      -0.16526689
H        2.78582122       0.57842997      -0.92406397
H        2.78586431       0.87078652       0.78111666
H        0.75725055      -1.98813273       0.24872630
H       -1.69304103      -1.65163475       0.21756626
H       -3.25095247       1.19313771      -0.21353579
12
Frame=2 idx=011947 GeodesicLength=0.09657548909085928 rxn_smarts="[N:1]([c:2]1[c:3]([H:10])[n:4]([H:11])[c:5]([O:6][H:12])[n:7]1)([H:8])[H:9]>>[N+:1]1([H:8])([H:9])[C:2](=[C:3]([N:4]([C:5][O:6][H:12])[H:11])[H:10])[N-:7]1"
N        2.27287415       0.65122730      -0.05982088
C        0.96097458       0.15054841       0.07250425
C        0.31912572      -1.01967190       0.16975021
N       -1.08591000      -0.85949381       0.06350615
C       -1.57585153       0.35360809      -0.09981306
O       -2.92031588       0.31291393      -0.07273852
N        0.63602543       1.39588005      -0.13861741
H        2.76441591       0.55677667      -0.93083383
H        2.78837382       0.89916326       0.76625407
H        0.76406515      -1.99660221       0.21793268
H       -1.69422179      -1.65139538       0.23553240
H       -3.22955555       1.20704560      -0.22365606
12
Frame=3 idx=011947 GeodesicLength=0.1446082913583679 rxn_smarts="[N:1]([c:2]1[c:3]([H:10])[n:4]([H:11])[c:5]([O:6][H:12])[n:7]1)([H:8])[H:9]>>[N+:1]1([H:8])([H:9])[C:2](=[C:3]([N:4]([C:5][O:6][H:12])[H:11])[H:10])[N-:7]1"
N        2.26250417       0.66162544      -0.05821807
C        0.96005190       0.14604215       0.09893710
C        0.32119106      -1.02816563       0.17118846
N       -1.08298402      -0.86845105       0.05588240
C       -1.56434596       0.34853421      -0.11364216
O       -2.90845286       0.32584824      -0.06598726
N        0.61093333       1.38306057      -0.13599867
H        2.75695713       0.53085002      -0.92264936
H        2.77657301       0.93371670       0.76101663
H        0.77100200      -2.00415386       0.17969666
H       -1.69498782      -1.65012075       0.25802773
H       -3.20844195       1.22121394      -0.22825346
12
Frame=4 idx=011947 GeodesicLength=0.19308705901779688 rxn_smarts="[N:1]([c:2]1[c:3]([H:10])[n:4]([H:11])[c:5]([O:6][H:12])[n:7]1)([H:8])[H:9]>>[N+:1]1([H:8])([H:9])[C:2](=[C:3]([N:4]([C:5][O:6][H:12])[H:11])[H:10])[N-:7]1"
N        2.25187708       0.67142431      -0.05812205
C        0.95901801       0.14129002       0.12366849
C        0.32347400      -1.03664366       0.17012156
N       -1.08027891      -0.87695594       0.05282070
C       -1.55315021       0.34334447      -0.12605665
O       -2.89660873       0.33810451      -0.06304344
N        0.58574828       1.37129236      -0.12503553
H        2.74809782       0.50925214      -0.91635119
H        2.76648713       0.96239678       0.75453350
H        0.77788395      -2.01023033       0.14012212
H       -1.69505351      -1.64734487       0.28603803
H       -3.18749491       1.23407019      -0.23869553
12
Frame=5 idx=011947 GeodesicLength=0.24174183765799256 rxn_smarts="[N:1]([c:2]1[c:3]([H:10])[n:4]([H:11])[c:5]([O:6][H:12])[n:7]1)([H:8])[H:9]>>[N+:1]1([H:8])([H:9])[C:2](=[C:3]([N:4]([C:5][O:6][H:12])[H:11])[H:10])[N-:7]1"
N        2.24108611       0.68073377      -0.05881961
C        0.95809463       0.13623901       0.14619356
C        0.32590144      -1.04492443       0.16775795
N       -1.07776428      -0.88499987       0.05270968
C       -1.54226761       0.33846354      -0.13519175
O       -2.88486605       0.35023459      -0.06022045
N        0.56101966       1.35972519      -0.11163260
H        2.73991595       0.48913362      -0.90964230
H        2.75607781       0.98855330       0.74769121
H        0.78437034      -2.01480764       0.09908222
H       -1.69456170      -1.64385717       0.31549300
H       -3.16700629       1.24550611      -0.25342090
12
Frame=6 idx=011947 GeodesicLength=0.2905670243627402 rxn_smarts="[N:1]([c:2]1[c:3]([H:10])[n:4]([H:11])[c:5]([O:6][H:12])[n:7]1)([H:8])[H:9]>>[N+:1]1([H:8])([H:9])[C:2](=[C:3]([N:4]([C:5][O:6][H:12])[H:11])[H:10])[N-:7]1"
N        2.23019139       0.68979775      -0.05882802
C        0.95686749       0.13086517       0.16476451
C        0.32833788      -1.05325715       0.16287459
N       -1.07557715      -0.89327902       0.05316837
C       -1.53188379       0.33255902      -0.14754926
O       -2.87267861       0.36350270      -0.05198179
N        0.53663546       1.34735378      -0.10302030
H        2.73590314       0.46848869      -0.89850418
H        2.74205806       1.01521258       0.74305105
H        0.79048921      -2.01815247       0.05626207
H       -1.69349902      -1.63940293       0.34717083
H       -3.14684405       1.25631188      -0.26740785
12
Frame=7 idx=011947 GeodesicLength=0.3398576084413745 rxn_smarts="[N:1]([c:2]1[c:3]([H:10])[n:4]([H:11])[c:5]([O:6][H:12])[n:7]1)([H:8])[H:9]>>[N+:1]1([H:8])([H:9])[C:2](=[C:3]([N:4]([C:5][O:6][H:12])[H:11])[H:10])[N-:7]1"
N        2.21890340       0.69837596      -0.06011674
C        0.95588411       0.12508430       0.18307856
C        0.33086612      -1.06140667       0.15791890
N       -1.07337976      -0.90114637       0.05624511
C       -1.52150596       0.32686879      -0.15704659
O       -2.86050194       0.37592727      -0.04818145
N        0.51251039       1.33542181      -0.08843880
H        2.73037317       0.44997569      -0.88887059
H        2.72930249       1.03871278       0.73681820
H        0.79582919      -2.01996162       0.01213713
H       -1.69156177      -1.63375406       0.38116792
H       -3.12671944       1.26590212      -0.28471165
12
Frame=8 idx=011947 GeodesicLength=0.38924166912344194 rxn_smarts="[N:1]([c:2]1[c:3]([H:10])[n:4]([H:11])[c:5]([O:6][H:12])[n:7]1)([H:8])[H:9]>>[N+:1]1([H:8])([H:9])[C:2](=[C:3]([N:4]([C:5][O:6][H:12])[H:11])[H:10])[N-:7]1"
N        2.20759638       0.70654056      -0.06216983
C        0.95501616       0.11920757       0.19996804
C        0.33334795      -1.06925688       0.15303639
N       -1.07127892      -0.90885630       0.05966767
C       -1.51147705       0.32128884      -0.16514371
O       -2.84844257       0.38824350      -0.04433879
N        0.48886723       1.32350938      -0.07358867
H        2.72597725       0.43144330      -0.87839389
H        2.71608042       1.06154179       0.72997759
H        0.80059511      -2.02040641      -0.03042118
H       -1.68915948      -1.62803713       0.41319608
H       -3.10712246       1.27478178      -0.30178969
12
Frame=9 idx=011947 GeodesicLength=0.43899689734480707 rxn_smarts="[N:1]([c:2]1[c:3]([H:10])[n:4]([H:11])[c:5]([O:6][H:12])[n:7]1)([H:8])[H:9]>>[N+:1]1([H:8])([H:9])[C:2](=[C:3]([N:4]([C:5][O:6][H:12])[H:11])[H:10])[N-:7]1"
N        2.19613082       0.71435556      -0.06418784
C        0.95385253       0.11323427       0.21454660
C        0.33572821      -1.07702143       0.14734435
N       -1.06933130      -0.91680665       0.06257742
C       -1.50183782       0.31494421      -0.17528020
O       -2.83563898       0.40176987      -0.03618793
N        0.46550195       1.31100147      -0.06223564
H        2.72436084       0.41208446      -0.86459562
H        2.70039112       1.08507400       0.72380734
H        0.80489120      -2.01969160      -0.07254878
H       -1.68620920      -1.62192725       0.44438728
H       -3.08783938       1.28298308      -0.31762699
12
Frame=10 idx=011947 GeodesicLength=0.4890838135853266 rxn_smarts="[N:1]([c:2]1[c:3]([H:10])[n:4]([H:11])[c:5]([O:6][H:12])[n:7]1)([H:8])[H:9]>>[N+:1]1([H:8])([H:9])[C:2](=[C:3]([N:4]([C:5][O:6][H:12])[H:11])[H:10])[N-:7]1"
N        2.18443125       0.72173877      -0.06733247
C        0.95302112       0.10696303       0.22905878
C        0.33810673      -1.08460463       0.14194269
N       -1.06736094      -0.92443922       0.06690964
C       -1.49220870       0.30887242      -0.18311635
O       -2.82298757       0.41462838      -0.03106991
N        0.44250959       1.29874217      -0.04678773
H        2.72199389       0.39385874      -0.85161941
H        2.68556314       1.10688745       0.71614023
H        0.80831798      -2.01762413      -0.11471122
H       -1.68269023      -1.61529790       0.47572391
H       -3.06869625       1.29027491      -0.33513817
12
Frame=11 idx=011947 GeodesicLength=0.5394665532371398 rxn_smarts="[N:1]([c:2]1[c:3]([H:10])[n:4]([H:11])[c:5]([O:6][H:12])[n:7]1)([H:8])[H:9]>>[N+:1]1([H:8])([H:9])[C:2](=[C:3]([N:4]([C:5][O:6][H:12])[H:11])[H:10])[N-:7]1"
N        2.17262461       0.72870753      -0.07093759
C        0.95218840       0.10053788       0.24228125
C        0.34040021      -1.09207677       0.13609316
N       -1.06548985      -0.93205883       0.07132977
C       -1.48285348       0.30257804      -0.19099746
O       -2.80993954       0.42801989      -0.02455773
N        0.41988007       1.28624780      -0.03191245
H        2.72101355       0.37561924      -0.83693380
H        2.66971198       1.12849368       0.70820093
H        0.81109428      -2.01447998      -0.15641759
H       -1.67865091      -1.60828741       0.50645063
H       -3.04997932       1.29669892      -0.35259912
12
Frame=12 idx=011947 GeodesicLength=0.5900543521712457 rxn_smarts="[N:1]([c:2]1[c:3]([H:10])[n:4]([H:11])[c:5]([O:6][H:12])[n:7]1)([H:8])[H:9]>>[N+:1]1([H:8])([H:9])[C:2](=[C:3]([N:4]([C:5][O:6][H:12])[H:11])[H:10])[N-:7]1"
N        2.16077585       0.73520890      -0.07525425
C        0.95158786       0.09389538       0.25477491
C        0.34261281      -1.09938060       0.12998939
N       -1.06367170      -0.93941845       0.07639746
C       -1.47365709       0.29652972      -0.19745900
O       -2.79689889       0.44132586      -0.01863300
N        0.39777605       1.27370420      -0.01583489
H        2.72064229       0.35784296      -0.82153015
H        2.65370430       1.14930166       0.69950951
H        0.81300053      -2.01020352      -0.19797109
H       -1.67407942      -1.60086337       0.53685093
H       -3.03179260       1.30205725      -0.37083982
12
Frame=13 idx=011947 GeodesicLength=0.6407682152587544 rxn_smarts="[N:1]([c:2]1[c:3]([H:10])[n:4]([H:11])[c:5]([O:6][H:12])[n:7]1)([H:8])[H:9]>>[N+:1]1([H:8])([H:9])[C:2](=[C:3]([N:4]([C:5][O:6][H:12])[H:11])[H:10])[N-:7]1"
N        2.14899504       0.74117871      -0.08022406
C        0.95129755       0.08702543       0.26656424
C        0.34470858      -1.10646564       0.12349246
N       -1.06191310      -0.94638418       0.08212675
C       -1.46460207       0.29096727      -0.20215743
O       -2.78392255       0.45464443      -0.01288276
N        0.37635750       1.26112453       0.00141094
H        2.72093429       0.34056794      -0.80539244
H        2.63765110       1.16920685       0.69015727
H        0.81389563      -2.00476997      -0.23959459
H       -1.66895209      -1.59298848       0.56697118
H       -3.01444989       1.30589312      -0.39047155
12
Frame=14 idx=011947 GeodesicLength=0.6915169792886307 rxn_smarts="[N:1]([c:2]1[c:3]([H:10])[n:4]([H:11])[c:5]([O:6][H:12])[n:7]1)([H:8])[H:9]>>[N+:1]1([H:8])([H:9])[C:2](=[C:3]([N:4]([C:5][O:6][H:12])[H:11])[H:10])[N-:7]1"
N        2.13736753       0.74656757      -0.08581528
C        0.95132821       0.07997939       0.27762419
C        0.34665864      -1.11328315       0.11662331
N       -1.06021058      -0.95292163       0.08838762
C       -1.45570334       0.28598347      -0.20507296
O       -2.77116972       0.46780408      -0.00756808
N        0.35572074       1.24850472       0.01936088
H        2.72202191       0.32369979      -0.78837181
H        2.62150735       1.18834446       0.68017037
H        0.81376298      -1.99822838      -0.28102060
H       -1.66330072      -1.58478398       0.59657028
H       -2.99798301       1.30833366      -0.41088792
12
Frame=15 idx=011947 GeodesicLength=0.7422646018365852 rxn_smarts="[N:1]([c:2]1[c:3]([H:10])[n:4]([H:11])[c:5]([O:6][H:12])[n:7]1)([H:8])[H:9]>>[N+:1]1([H:8])([H:9])[C:2](=[C:3]([N:4]([C:5][O:6][H:12])[H:11])[H:10])[N-:7]1"
N        2.12596830       0.75132360      -0.09195978
C        0.95163192       0.07282908       0.28789849
C        0.34843463      -1.11979766       0.10940147
N       -1.05856539      -0.95903956       0.09493640
C       -1.44698079       0.28157795      -0.20650204
O       -2.75861130       0.48091100      -0.00229201
N        0.33591024       1.23583684       0.03735827
H        2.72406157       0.30713826      -0.77020976
H        2.60514061       1.20688609       0.66961879
H        0.81266141      -1.99067784      -0.32190642
H       -1.65719525      -1.57640937       0.62528498
H       -2.98245595       1.30942161      -0.43162839
12
Frame=16 idx=011947 GeodesicLength=0.7929551267485153 rxn_smarts="[N:1]([c:2]1[c:3]([H:10])[n:4]([H:11])[c:5]([O:6][H:12])[n:7]1)([H:8])[H:9]>>[N+:1]1([H:8])([H:9])[C:2](=[C:3]([N:4]([C:5][O:6][H:12])[H:11])[H:10])[N-:7]1"
N        2.11485791       0.75540600      -0.09860653
C        0.95216621       0.06563320       0.29737261
C        0.35002374      -1.12599120       0.10186357
N       -1.05697300      -0.96476601       0.10165463
C       -1.43845887       0.27771510      -0.20665140
O       -2.74633317       0.49383301       0.00276331
N        0.31694195       1.22312926       0.05494169
H        2.72708207       0.29089302      -0.75077872
H        2.58848555       1.22492073       0.65853891
H        0.81066658      -1.98222741      -0.36200497
H       -1.65068202      -1.56798027       0.65299551
H       -2.96777695       1.30943458      -0.45208860
