14
Frame=0 idx=002149 GeodesicLength=0.0 rxn_smarts="[C:1]([C@@:2]1([H:10])[C:3]([H:11])([H:12])[C@@:4]2([H:13])[O:5][C@@:6]12[H:14])([H:7])([H:8])[H:9]>>[C:1]([C@@:2]1([H:10])[C:3]([H:11])([H:12])[C:4]([H:13])([H:14])[O+:5]=[C-:6]1)([H:7])([H:8])[H:9]"
C        1.67503307       0.36836452       0.48178549
C        0.39480648       0.46833183      -0.32647564
C       -0.34344886      -0.84308319      -0.66544607
C       -1.57480877      -0.40060819       0.09852728
O       -1.14679853       0.04254179       1.34913418
C       -0.75838119       1.11871620       0.50772044
H        1.51499066      -0.21083941       1.39218616
H        2.03081528       1.36039336       0.76692570
H        2.46023961      -0.11942320      -0.09869947
H        0.56115438       1.06781344      -1.22295966
H        0.08659171      -1.76633086      -0.27274563
H       -0.52071397      -0.95778434      -1.73450181
H       -2.56330652      -0.85238581       0.10676068
H       -1.81617340       0.72429392      -0.38221167
14
Frame=1 idx=002149 GeodesicLength=0.05223255348090117 rxn_smarts="[C:1]([C@@:2]1([H:10])[C:3]([H:11])([H:12])[C@@:4]2([H:13])[O:5][C@@:6]12[H:14])([H:7])([H:8])[H:9]>>[C:1]([C@@:2]1([H:10])[C:3]([H:11])([H:12])[C:4]([H:13])([H:14])[O+:5]=[C-:6]1)([H:7])([H:8])[H:9]"
C        1.68008499       0.36731036       0.47979741
C        0.39587834       0.46753746      -0.32168024
C       -0.34327561      -0.84343517      -0.66230942
C       -1.58036845      -0.39878738       0.09160519
O       -1.15728744       0.04530057       1.34735609
C       -0.75635735       1.11461736       0.51077163
H        1.52465698      -0.21315343       1.39026338
H        2.03641863       1.35919743       0.76463017
H        2.46275215      -0.11930563      -0.10515208
H        0.55703449       1.06966544      -1.21778058
H        0.08550931      -1.76473727      -0.26373727
H       -0.51241088      -0.96184480      -1.73227929
H       -2.56267909      -0.86339468       0.10151261
H       -1.82995607       0.74102973      -0.38299760
14
Frame=2 idx=002149 GeodesicLength=0.10468743463963667 rxn_smarts="[C:1]([C@@:2]1([H:10])[C:3]([H:11])([H:12])[C@@:4]2([H:13])[O:5][C@@:6]12[H:14])([H:7])([H:8])[H:9]>>[C:1]([C@@:2]1([H:10])[C:3]([H:11])([H:12])[C:4]([H:13])([H:14])[O+:5]=[C-:6]1)([H:7])([H:8])[H:9]"
C        1.68514424       0.36628898       0.47773677
C        0.39694175       0.46664698      -0.31682262
C       -0.34305943      -0.84392452      -0.65909853
C       -1.58592787      -0.39696053       0.08440407
O       -1.16793763       0.04793312       1.34540538
C       -0.75445267       1.11030561       0.51385762
H        1.53451009      -0.21550561       1.38820907
H        2.04191796       1.35806708       0.76228303
H        2.46523256      -0.11904839      -0.11173758
H        0.55285656       1.07138258      -1.21252150
H        0.08436890      -1.76319632      -0.25450803
H       -0.50392469      -0.96614654      -1.72987697
H       -2.56181916      -0.87420735       0.09594666
H       -1.84385061       0.75836490      -0.38327737
14
Frame=3 idx=002149 GeodesicLength=0.15713416173933564 rxn_smarts="[C:1]([C@@:2]1([H:10])[C:3]([H:11])([H:12])[C@@:4]2([H:13])[O:5][C@@:6]12[H:14])([H:7])([H:8])[H:9]>>[C:1]([C@@:2]1([H:10])[C:3]([H:11])([H:12])[C:4]([H:13])([H:14])[O+:5]=[C-:6]1)([H:7])([H:8])[H:9]"
C        1.69020907       0.36529020       0.47562915
C        0.39799839       0.46569587      -0.31192338
C       -0.34281797      -0.84450160      -0.65583891
C       -1.59147989      -0.39511992       0.07700603
O       -1.17869169       0.05048194       1.34332964
C       -0.75262733       1.10586018       0.51696485
H        1.54448603      -0.21787976       1.38607039
H        2.04735132       1.35698023       0.75990448
H        2.46769325      -0.11870248      -0.11840984
H        0.54864315       1.07300810      -1.20721357
H        0.08317778      -1.76168659      -0.24513294
H       -0.49531678      -0.97060441      -1.72735038
H       -2.56080616      -0.88489499       0.09017620
H       -1.85781918       0.77607325      -0.38321173
14
Frame=4 idx=002149 GeodesicLength=0.2095915055568741 rxn_smarts="[C:1]([C@@:2]1([H:10])[C:3]([H:11])([H:12])[C@@:4]2([H:13])[O:5][C@@:6]12[H:14])([H:7])([H:8])[H:9]>>[C:1]([C@@:2]1([H:10])[C:3]([H:11])([H:12])[C:4]([H:13])([H:14])[O+:5]=[C-:6]1)([H:7])([H:8])[H:9]"
C        1.69527746       0.36431473       0.47347395
C        0.39904848       0.46468299      -0.30698359
C       -0.34254897      -0.84516936      -0.65253015
C       -1.59702059      -0.39326958       0.06941203
O       -1.18954761       0.05294825       1.34112854
C       -0.75088221       1.10127900       0.52008993
H        1.55458162      -0.22027341       1.38384588
H        2.05271600       1.35593803       0.75749332
H        2.47013181      -0.11826804      -0.12516669
H        0.54439458       1.07454023      -1.20185752
H        0.08194061      -1.76020928      -0.23561202
H       -0.48658536      -0.97522321      -1.72470103
H       -2.55964409      -0.89545114       0.08419765
H       -1.87186173       0.79416077      -0.38279029
14
Frame=5 idx=002149 GeodesicLength=0.26204371188971787 rxn_smarts="[C:1]([C@@:2]1([H:10])[C:3]([H:11])([H:12])[C@@:4]2([H:13])[O:5][C@@:6]12[H:14])([H:7])([H:8])[H:9]>>[C:1]([C@@:2]1([H:10])[C:3]([H:11])([H:12])[C:4]([H:13])([H:14])[O+:5]=[C-:6]1)([H:7])([H:8])[H:9]"
C        1.70034821       0.36336422       0.47126925
C        0.40009157       0.46360669      -0.30200309
C       -0.34225050      -0.84593211      -0.64917028
C       -1.60254482      -0.39140876       0.06161244
O       -1.20050763       0.05533025       1.33879406
C       -0.74922041       1.09655797       0.52323138
H        1.56479774      -0.22268460       1.38153118
H        2.05800932       1.35494248       0.75504853
H        2.47254507      -0.11774176      -0.13201031
H        0.54011033       1.07597519      -1.19645429
H        0.08065553      -1.75876407      -0.22593902
H       -0.47772504      -0.98001171      -1.72192160
H       -2.55833386      -0.90586522       0.07799914
H       -1.88597550       0.81263143      -0.38198739
14
Frame=6 idx=002149 GeodesicLength=0.314490366757706 rxn_smarts="[C:1]([C@@:2]1([H:10])[C:3]([H:11])([H:12])[C@@:4]2([H:13])[O:5][C@@:6]12[H:14])([H:7])([H:8])[H:9]>>[C:1]([C@@:2]1([H:10])[C:3]([H:11])([H:12])[C:4]([H:13])([H:14])[O+:5]=[C-:6]1)([H:7])([H:8])[H:9]"
C        1.70541997       0.36244028       0.46901415
C        0.40112748       0.46246532      -0.29698225
C       -0.34192068      -0.84679386      -0.64575815
C       -1.60804560      -0.38953977       0.05360256
O       -1.21157084       0.05762665       1.33632134
C       -0.74764429       1.09169361       0.52638611
H        1.57513387      -0.22511094       1.37912310
H        2.06322882       1.35399565       0.75256897
H        2.47493136      -0.11712144      -0.13894125
H        0.53578954       1.07730993      -1.19100550
H        0.07932320      -1.75735156      -0.21611152
H       -0.46872917      -0.98497841      -1.71900591
H       -2.55688113      -0.91612262       0.07156962
H       -1.90016253       0.83148717      -0.38078127
14
Frame=7 idx=002149 GeodesicLength=0.36694816069511016 rxn_smarts="[C:1]([C@@:2]1([H:10])[C:3]([H:11])([H:12])[C@@:4]2([H:13])[O:5][C@@:6]12[H:14])([H:7])([H:8])[H:9]>>[C:1]([C@@:2]1([H:10])[C:3]([H:11])([H:12])[C:4]([H:13])([H:14])[O+:5]=[C-:6]1)([H:7])([H:8])[H:9]"
C        1.71049163       0.36154349       0.46670985
C        0.40215636       0.46125820      -0.29192297
C       -0.34155865      -0.84775603      -0.64229480
C       -1.61351881      -0.38766607       0.04538548
O       -1.22273371       0.05984124       1.33370930
C       -0.74615412       1.08668716       0.52954876
H        1.58558549      -0.22754908       1.37662290
H        2.06837345       1.35309820       0.75005570
H        2.47729071      -0.11640798      -0.14595539
H        0.53143440       1.07854183      -1.18551361
H        0.07794605      -1.75597430      -0.20613174
H       -0.45960139      -0.99012244      -1.71595733
H       -2.55528761      -0.92622258       0.06491054
H       -1.91442380       0.85072837      -0.37916668
14
Frame=8 idx=002149 GeodesicLength=0.4194378351863192 rxn_smarts="[C:1]([C@@:2]1([H:10])[C:3]([H:11])([H:12])[C@@:4]2([H:13])[O:5][C@@:6]12[H:14])([H:7])([H:8])[H:9]>>[C:1]([C@@:2]1([H:10])[C:3]([H:11])([H:12])[C:4]([H:13])([H:14])[O+:5]=[C-:6]1)([H:7])([H:8])[H:9]"
C        1.71557256       0.36066626       0.46434589
C        0.40317886       0.45998555      -0.28682828
C       -0.34116285      -0.84880630      -0.63878831
C       -1.61897095      -0.38577227       0.03692374
O       -1.23401278       0.06198821       1.33092443
C       -0.74475271       1.08152550       0.53273540
H        1.59617637      -0.23001198       1.37401422
H        2.07343549       1.35224860       0.74750482
H        2.47962707      -0.11559600      -0.15304716
H        0.52705561       1.07967885      -1.17996978
H        0.07650755      -1.75462498      -0.19597718
H       -0.45031632      -0.99545797      -1.71275513
H       -2.55355883      -0.93618497       0.05804102
H       -1.92877908       0.87036149      -0.37712368
14
Frame=9 idx=002149 GeodesicLength=0.4719458775620598 rxn_smarts="[C:1]([C@@:2]1([H:10])[C:3]([H:11])([H:12])[C@@:4]2([H:13])[O:5][C@@:6]12[H:14])([H:7])([H:8])[H:9]>>[C:1]([C@@:2]1([H:10])[C:3]([H:11])([H:12])[C:4]([H:13])([H:14])[O+:5]=[C-:6]1)([H:7])([H:8])[H:9]"
C        1.72065446       0.35981051       0.46192843
C        0.40419221       0.45863884      -0.28170383
C       -0.34072566      -0.84995337      -0.63523059
C       -1.62438199      -0.38387773       0.02824606
O       -1.24538109       0.06405239       1.32799099
C       -0.74343629       1.07622282       0.53591781
H        1.60687246      -0.23248285       1.37130785
H        2.07841488       1.35144849       0.74491781
H        2.48193084      -0.11467581      -0.16021881
H        0.52265179       1.08070808      -1.17437412
H        0.07502508      -1.75331375      -0.18565844
H       -0.44089815      -1.00098386      -1.70941496
H       -2.55170368      -0.94597566       0.05093176
H       -1.94321487       0.89038190      -0.37463995
14
Frame=10 idx=002149 GeodesicLength=0.52483112958412 rxn_smarts="[C:1]([C@@:2]1([H:10])[C:3]([H:11])([H:12])[C@@:4]2([H:13])[O:5][C@@:6]12[H:14])([H:7])([H:8])[H:9]>>[C:1]([C@@:2]1([H:10])[C:3]([H:11])([H:12])[C:4]([H:13])([H:14])[O+:5]=[C-:6]1)([H:7])([H:8])[H:9]"
C        1.72568565       0.35904805       0.45945744
C        0.40520014       0.45717233      -0.27651689
C       -0.34022015      -0.85137476      -0.63155877
C       -1.62966320      -0.38207766       0.01927679
O       -1.25689711       0.06594386       1.32485270
C       -0.74229176       1.07065999       0.53904014
H        1.61769148      -0.23491218       1.36847992
H        2.08326136       1.35075872       0.74227957
H        2.48416541      -0.11362828      -0.16754974
H        0.51812454       1.08152162      -1.16878700
H        0.07354373      -1.75206101      -0.17514021
H       -0.43126755      -1.00686411      -1.70583850
H       -2.54963529      -0.95536336       0.04329474
H       -1.95769725       0.91117680      -0.37129018
14
Frame=11 idx=002149 GeodesicLength=0.5772702167749526 rxn_smarts="[C:1]([C@@:2]1([H:10])[C:3]([H:11])([H:12])[C@@:4]2([H:13])[O:5][C@@:6]12[H:14])([H:7])([H:8])[H:9]>>[C:1]([C@@:2]1([H:10])[C:3]([H:11])([H:12])[C:4]([H:13])([H:14])[O+:5]=[C-:6]1)([H:7])([H:8])[H:9]"
C        1.73074201       0.35827402       0.45694488
C        0.40620033       0.45569238      -0.27130713
C       -0.33970808      -0.85277439      -0.62787580
C       -1.63494616      -0.38020315       0.01016193
O       -1.26846013       0.06783177       1.32161188
C       -0.74117454       1.06506399       0.54219410
H        1.62859944      -0.23737304       1.36558160
H        2.08808107       1.35007677       0.73961997
H        2.48639133      -0.11252589      -0.17490456
H        0.51363692       1.08230914      -1.16314004
H        0.07198112      -1.75081050      -0.16451123
H       -0.42156289      -1.01279500      -1.70219272
H       -2.54754484      -0.96473755       0.03561280
H       -1.97223558       0.93197144      -0.36779568
14
Frame=12 idx=002149 GeodesicLength=0.6297089233130138 rxn_smarts="[C:1]([C@@:2]1([H:10])[C:3]([H:11])([H:12])[C@@:4]2([H:13])[O:5][C@@:6]12[H:14])([H:7])([H:8])[H:9]>>[C:1]([C@@:2]1([H:10])[C:3]([H:11])([H:12])[C:4]([H:13])([H:14])[O+:5]=[C-:6]1)([H:7])([H:8])[H:9]"
C        1.73579291       0.35753430       0.45437594
C        0.40719210       0.45414181      -0.26605903
C       -0.33915531      -0.85429193      -0.62413041
C       -1.64016717      -0.37832926       0.00080898
O       -1.28012695       0.06963731       1.31819968
C       -0.74015603       1.05931495       0.54534127
H        1.63962403      -0.23983546       1.36257447
H        2.09281575       1.34945237       0.73692121
H        2.48857935      -0.11131787      -0.18235183
H        0.50911342       1.08297809      -1.15745719
H        0.07036674      -1.74959037      -0.15370232
H       -0.41169960      -1.01894432      -1.69837955
H       -2.54534090      -0.97390956       0.02764131
H       -1.98683835       0.95315992      -0.36378253
14
Frame=13 idx=002149 GeodesicLength=0.6821470624302753 rxn_smarts="[C:1]([C@@:2]1([H:10])[C:3]([H:11])([H:12])[C@@:4]2([H:13])[O:5][C@@:6]12[H:14])([H:7])([H:8])[H:9]>>[C:1]([C@@:2]1([H:10])[C:3]([H:11])([H:12])[C:4]([H:13])([H:14])[O+:5]=[C-:6]1)([H:7])([H:8])[H:9]"
C        1.74083636       0.35683015       0.45175084
C        0.40817578       0.45251952      -0.26077386
C       -0.33856021      -0.85593042      -0.62032198
C       -1.64531655      -0.37646027      -0.00878398
O       -1.29189490       0.07136414       1.31461037
C       -0.73923874       1.05341367       0.54847396
H        1.65076187      -0.24229635       1.35945691
H        2.09746195       1.34888713       0.73418434
H        2.49072724      -0.11000322      -0.18988945
H        0.50455663       1.08352406      -1.15174189
H        0.06870131      -1.74840016      -0.14271336
H       -0.40167809      -1.02531601      -1.69439500
H       -2.54302976      -0.98287241       0.01937398
H       -2.00150290       0.97474018      -0.35923089
14
Frame=14 idx=002149 GeodesicLength=0.7345774136913145 rxn_smarts="[C:1]([C@@:2]1([H:10])[C:3]([H:11])([H:12])[C@@:4]2([H:13])[O:5][C@@:6]12[H:14])([H:7])([H:8])[H:9]>>[C:1]([C@@:2]1([H:10])[C:3]([H:11])([H:12])[C:4]([H:13])([H:14])[O+:5]=[C-:6]1)([H:7])([H:8])[H:9]"
C        1.74587009       0.35616284       0.44906958
C        0.40915170       0.45082491      -0.25545358
C       -0.33792161      -0.85769215      -0.61645049
C       -1.65038501      -0.37459954      -0.01861926
O       -1.30376135       0.07301652       1.31083742
C       -0.73842546       1.04736044       0.55158431
H        1.66200919      -0.24475317       1.35622700
H        2.10201626       1.34838218       0.73141075
H        2.49283266      -0.10858062      -0.19751543
H        0.49996945       1.08394312      -1.14599815
H        0.06698473      -1.74723858      -0.13154390
H       -0.39149815      -1.03191518      -1.69023289
H       -2.54061622      -0.99161782       0.01080356
H       -2.01622628       0.99670705      -0.35411891
14
Frame=15 idx=002149 GeodesicLength=0.7869982031941358 rxn_smarts="[C:1]([C@@:2]1([H:10])[C:3]([H:11])([H:12])[C@@:4]2([H:13])[O:5][C@@:6]12[H:14])([H:7])([H:8])[H:9]>>[C:1]([C@@:2]1([H:10])[C:3]([H:11])([H:12])[C:4]([H:13])([H:14])[O+:5]=[C-:6]1)([H:7])([H:8])[H:9]"
C        1.75089171       0.35553341       0.44633258
C        0.41011999       0.44905765      -0.25009980
C       -0.33723866      -0.85957917      -0.61251566
C       -1.65536307      -0.37275111      -0.02869772
O       -1.31572328       0.07459966       1.30687498
C       -0.73771897       1.04115663       0.55466410
H        1.67336187      -0.24720353       1.35288304
H        2.10647524       1.34793841       0.72860230
H        2.49489332      -0.10704938      -0.20522740
H        0.49535514       1.08423135      -1.14022993
H        0.06521663      -1.74610419      -0.12019482
H       -0.38116065      -1.03874519      -1.68588838
H       -2.53810461      -1.00014109       0.00192566
H       -2.03100466       1.01905655      -0.34842896
14
Frame=16 idx=002149 GeodesicLength=0.8394027864973052 rxn_smarts="[C:1]([C@@:2]1([H:10])[C:3]([H:11])([H:12])[C@@:4]2([H:13])[O:5][C@@:6]12[H:14])([H:7])([H:8])[H:9]>>[C:1]([C@@:2]1([H:10])[C:3]([H:11])([H:12])[C:4]([H:13])([H:14])[O+:5]=[C-:6]1)([H:7])([H:8])[H:9]"
C        1.75589870       0.35494296       0.44354057
C        0.41108116       0.44721731      -0.24471473
C       -0.33651023      -0.86159352      -0.60851751
C       -1.66024060      -0.37091955      -0.03902037
O       -1.32777739       0.07611943       1.30271648
C       -0.73712236       1.03480480       0.55770375
H        1.68481472      -0.24964463       1.34942401
H        2.11083542       1.34755669       0.72576108
H        2.49690710      -0.10540894      -0.21302217
H        0.49071783       1.08438446      -1.13444206
H        0.06339705      -1.74499539      -0.10866772
H       -0.37066744      -1.04580901      -1.68135700
H       -2.53550044      -1.00843801      -0.00726342
H       -2.04583351       1.04178340      -0.34214092
