12
Frame=0 idx=011856 GeodesicLength=0.0 rxn_smarts="[C:1]([N:2]([C:3]([C:4]#[N:5])([C:6]#[N:7])[H:12])[H:11])([H:8])([H:9])[H:10]>>[C:1]([N:2]([C@@:3]([N+:5]#[C-:4])([C:6]#[N:7])[H:12])[H:11])([H:8])([H:9])[H:10]"
C       -1.43652272       0.30098925      -0.35193158
N       -0.52987126      -0.78013493      -0.01381658
C        0.69739927      -0.55128534       0.42760414
C        2.12738213      -0.25540019      -1.13155649
N        1.51030838       0.74120506      -1.21801213
C        0.90730365       0.54163672       1.34701927
N        1.03342171       1.34529763       2.15422910
H       -1.56399693       0.95914020       0.50639635
H       -2.40123589      -0.11889280      -0.62544894
H       -1.01673608       0.87588261      -1.18316020
H       -0.64568476      -1.64246964      -0.52120751
H        1.31823254      -1.41596860       0.60988453
12
Frame=1 idx=011856 GeodesicLength=0.10692589458368154 rxn_smarts="[C:1]([N:2]([C:3]([C:4]#[N:5])([C:6]#[N:7])[H:12])[H:11])([H:8])([H:9])[H:10]>>[C:1]([N:2]([C@@:3]([N+:5]#[C-:4])([C:6]#[N:7])[H:12])[H:11])([H:8])([H:9])[H:10]"
C       -1.44464248       0.29581482      -0.33992597
N       -0.52575883      -0.78129588      -0.02305540
C        0.70832112      -0.53870483       0.41039425
C        2.08677452      -0.31274775      -1.18686642
N        1.59777148       0.75245592      -1.16283968
C        0.90013928       0.54134527       1.35284386
N        1.02619876       1.38972404       2.11280531
H       -1.59662633       0.91978061       0.53988651
H       -2.39956849      -0.12868300      -0.63980164
H       -1.02307181       0.90432103      -1.14631846
H       -0.63662824      -1.63153050      -0.55141547
H        1.30709103      -1.41047974       0.63429312
12
Frame=2 idx=011856 GeodesicLength=0.2132720242037292 rxn_smarts="[C:1]([N:2]([C:3]([C:4]#[N:5])([C:6]#[N:7])[H:12])[H:11])([H:8])([H:9])[H:10]>>[C:1]([N:2]([C@@:3]([N+:5]#[C-:4])([C:6]#[N:7])[H:12])[H:11])([H:8])([H:9])[H:10]"
C       -1.45298051       0.29003640      -0.32897722
N       -0.52244344      -0.78236705      -0.03105560
C        0.71839490      -0.52552881       0.39422600
C        2.03869832      -0.35601903      -1.24136685
N        1.69318360       0.75259920      -1.10365694
C        0.89056012       0.54166863       1.35963125
N        1.02376316       1.43089052       2.07015173
H       -1.62871741       0.88030203       0.56967235
H       -2.39807602      -0.13791187      -0.65437259
H       -1.03005107       0.92969103      -1.11053910
H       -0.62935828      -1.62112733      -0.57813340
H        1.29702664      -1.40223370       0.65442039
12
Frame=3 idx=011856 GeodesicLength=0.3177499904873193 rxn_smarts="[C:1]([N:2]([C:3]([C:4]#[N:5])([C:6]#[N:7])[H:12])[H:11])([H:8])([H:9])[H:10]>>[C:1]([N:2]([C@@:3]([N+:5]#[C-:4])([C:6]#[N:7])[H:12])[H:11])([H:8])([H:9])[H:10]"
C       -1.46180436       0.28376818      -0.31914785
N       -0.51971945      -0.78290049      -0.03771334
C        0.72792299      -0.51077450       0.37843532
C        1.98490048      -0.38454911      -1.29512207
N        1.79590845       0.73856155      -1.04321672
C        0.88009472       0.54534222       1.36445595
N        1.02391463       1.46601794       2.03179640
H       -1.66001371       0.84179551       0.59548534
H       -2.39720659      -0.14714046      -0.66812521
H       -1.03876389       0.95168086      -1.07702240
H       -0.62347183      -1.61120071      -0.60101507
H        1.28823856      -1.39060099       0.67118965
12
Frame=4 idx=011856 GeodesicLength=0.4190991177761354 rxn_smarts="[C:1]([N:2]([C:3]([C:4]#[N:5])([C:6]#[N:7])[H:12])[H:11])([H:8])([H:9])[H:10]>>[C:1]([N:2]([C@@:3]([N+:5]#[C-:4])([C:6]#[N:7])[H:12])[H:11])([H:8])([H:9])[H:10]"
C       -1.47125813       0.27714268      -0.31015671
N       -0.51721390      -0.78254076      -0.04332681
C        0.73733669      -0.49382754       0.36209760
C        1.92731471      -0.39832242      -1.34801530
N        1.90547276       0.70684222      -0.98463343
C        0.87070637       0.55468803       1.36426149
N        1.02289167       1.49414996       2.00328139
H       -1.68987381       0.80498706       0.61784822
H       -2.39739511      -0.15687742      -0.67969643
H       -1.05021581       0.97034032      -1.04650547
H       -0.61837993      -1.60140465      -0.62067935
H        1.28061449      -1.37517747       0.68552480
12
Frame=5 idx=011856 GeodesicLength=0.5169318526024074 rxn_smarts="[C:1]([N:2]([C:3]([C:4]#[N:5])([C:6]#[N:7])[H:12])[H:11])([H:8])([H:9])[H:10]>>[C:1]([N:2]([C@@:3]([N+:5]#[C-:4])([C:6]#[N:7])[H:12])[H:11])([H:8])([H:9])[H:10]"
C       -1.48152022       0.26993605      -0.30130734
N       -0.51507872      -0.78191621      -0.04892545
C        0.74615826      -0.47619975       0.34547622
C        1.86927184      -0.39440275      -1.39738346
N        2.01944081       0.65567964      -0.92587927
C        0.86223757       0.56785142       1.35985166
N        1.02234180       1.51984042       1.97837181
H       -1.71824981       0.76888484       0.63835937
H       -2.39905078      -0.16711442      -0.68861806
H       -1.06494044       0.98651972      -1.01789720
H       -0.61343298      -1.59105554      -0.64031305
H        1.27282266      -1.35802343       0.69826478
12
Frame=6 idx=011856 GeodesicLength=0.6115576038644647 rxn_smarts="[C:1]([N:2]([C:3]([C:4]#[N:5])([C:6]#[N:7])[H:12])[H:11])([H:8])([H:9])[H:10]>>[C:1]([N:2]([C@@:3]([N+:5]#[C-:4])([C:6]#[N:7])[H:12])[H:11])([H:8])([H:9])[H:10]"
C       -1.49278751       0.26218856      -0.29191963
N       -0.51247955      -0.78037098      -0.05552958
C        0.75503768      -0.45700360       0.32785925
C        1.81365842      -0.37455125      -1.44198982
N        2.13615494       0.58071571      -0.87197047
C        0.85692501       0.58822874       1.34756141
N        1.01808628       1.54230790       1.96270460
H       -1.74484655       0.73262656       0.65859576
H       -2.40227421      -0.17850352      -0.69409714
H       -1.08414977       1.00108786      -0.99055481
H       -0.60719887      -1.57859147      -0.66225246
H        1.26387413      -1.33813451       0.71159290
12
Frame=7 idx=011856 GeodesicLength=0.7023321855336225 rxn_smarts="[C:1]([N:2]([C:3]([C:4]#[N:5])([C:6]#[N:7])[H:12])[H:11])([H:8])([H:9])[H:10]>>[C:1]([N:2]([C@@:3]([N+:5]#[C-:4])([C:6]#[N:7])[H:12])[H:11])([H:8])([H:9])[H:10]"
C       -1.50492725       0.25330911      -0.28143915
N       -0.51002852      -0.77938899      -0.06455857
C        0.76277898      -0.43975163       0.31119850
C        1.76509355      -0.33160897      -1.47769044
N        2.24870816       0.48296809      -0.81559315
C        0.85229945       0.61015221       1.33224993
N        1.01795182       1.56879042       1.93915492
H       -1.76927758       0.69499559       0.67962999
H       -2.40760059      -0.19072912      -0.69542750
H       -1.10748861       1.01412527      -0.96309878
H       -0.59905216      -1.56310239      -0.69088497
H        1.25154274      -1.31975958       0.72645922
12
Frame=8 idx=011856 GeodesicLength=0.7918898001186611 rxn_smarts="[C:1]([N:2]([C:3]([C:4]#[N:5])([C:6]#[N:7])[H:12])[H:11])([H:8])([H:9])[H:10]>>[C:1]([N:2]([C@@:3]([N+:5]#[C-:4])([C:6]#[N:7])[H:12])[H:11])([H:8])([H:9])[H:10]"
C       -1.51663142       0.24375723      -0.27000197
N       -0.50611802      -0.77788074      -0.07545473
C        0.77124865      -0.42258901       0.29514031
C        1.72428484      -0.27200677      -1.50402551
N        2.35100902       0.35971416      -0.77003685
C        0.85285923       0.63958892       1.30833838
N        1.01206565       1.59407334       1.92332046
H       -1.79033807       0.65597567       0.70164103
H       -2.41299282      -0.20384592      -0.69410081
H       -1.13411288       1.02632848      -0.93567228
H       -0.58766237      -1.54337268      -0.72517492
H        1.23638819      -1.29974270       0.74602689
12
Frame=9 idx=011856 GeodesicLength=0.8784454456745192 rxn_smarts="[C:1]([N:2]([C:3]([C:4]#[N:5])([C:6]#[N:7])[H:12])[H:11])([H:8])([H:9])[H:10]>>[C:1]([N:2]([C@@:3]([N+:5]#[C-:4])([C:6]#[N:7])[H:12])[H:11])([H:8])([H:9])[H:10]"
C       -1.52872938       0.23302019      -0.25639972
N       -0.50100714      -0.77621192      -0.09216451
C        0.77919658      -0.40838467       0.28090967
C        1.70300639      -0.19868019      -1.51478827
N        2.43392367       0.21956523      -0.72942385
C        0.85486380       0.67011823       1.28137578
N        1.00943903       1.62480816       1.89709204
H       -1.80764277       0.61323953       0.72684686
H       -2.42032799      -0.21800516      -0.68722535
H       -1.16555692       1.03857602      -0.90548029
H       -0.57237847      -1.51663888      -0.77170096
H        1.21521321      -1.28140653       0.77095862
12
Frame=10 idx=011856 GeodesicLength=0.9658781625862993 rxn_smarts="[C:1]([N:2]([C:3]([C:4]#[N:5])([C:6]#[N:7])[H:12])[H:11])([H:8])([H:9])[H:10]>>[C:1]([N:2]([C@@:3]([N+:5]#[C-:4])([C:6]#[N:7])[H:12])[H:11])([H:8])([H:9])[H:10]"
C       -1.53833295       0.22206368      -0.24244025
N       -0.49390267      -0.77413274      -0.11040557
C        0.78839852      -0.39554308       0.26905345
C        1.69504311      -0.12255094      -1.51306621
N        2.49165688       0.06982254      -0.70669317
C        0.86175466       0.70459834       1.24954888
N        0.99984142       1.65378812       1.87732422
H       -1.82025424       0.56943438       0.75214327
H       -2.42540257      -0.23167171      -0.68012327
H       -1.19687407       1.05050283      -0.87446638
H       -0.55431057      -1.48509587      -0.82203300
H        1.19238247      -1.26121555       0.80115802
12
Frame=11 idx=011856 GeodesicLength=1.054957250646869 rxn_smarts="[C:1]([N:2]([C:3]([C:4]#[N:5])([C:6]#[N:7])[H:12])[H:11])([H:8])([H:9])[H:10]>>[C:1]([N:2]([C@@:3]([N+:5]#[C-:4])([C:6]#[N:7])[H:12])[H:11])([H:8])([H:9])[H:10]"
C       -1.54687949       0.21049956      -0.22758760
N       -0.48515505      -0.77086858      -0.13243142
C        0.79802332      -0.38351427       0.25855546
C        1.70614441      -0.04930189      -1.49894869
N        2.52552066      -0.08332772      -0.69543535
C        0.87060317       0.74048199       1.21539418
N        0.98770114       1.68263147       1.85768752
H       -1.82820446       0.52424678       0.77835877
H       -2.43048748      -0.24635762      -0.66943443
H       -1.23026708       1.06172170      -0.84218285
H       -0.53389149      -1.44730360      -0.87806232
H        1.16689235      -1.23890782       0.83408672
12
Frame=12 idx=011856 GeodesicLength=1.1455856325370444 rxn_smarts="[C:1]([N:2]([C:3]([C:4]#[N:5])([C:6]#[N:7])[H:12])[H:11])([H:8])([H:9])[H:10]>>[C:1]([N:2]([C@@:3]([N+:5]#[C-:4])([C:6]#[N:7])[H:12])[H:11])([H:8])([H:9])[H:10]"
C       -1.55274823       0.19883221      -0.21359160
N       -0.47535830      -0.76754501      -0.15382330
C        0.80819449      -0.37223717       0.25079081
C        1.72824055       0.01837112      -1.47459164
N        2.53482006      -0.23211869      -0.69899831
C        0.88097648       0.77580249       1.18238677
N        0.97242162       1.70926264       1.84123884
H       -1.83273115       0.48008932       0.80236469
H       -2.43285196      -0.26049525      -0.66029884
H       -1.26119743       1.07150810      -0.81038563
H       -0.51271209      -1.40675321      -0.93249896
H        1.14294596      -1.21471657       0.86740714
12
Frame=13 idx=011856 GeodesicLength=1.2375427829735481 rxn_smarts="[C:1]([N:2]([C:3]([C:4]#[N:5])([C:6]#[N:7])[H:12])[H:11])([H:8])([H:9])[H:10]>>[C:1]([N:2]([C@@:3]([N+:5]#[C-:4])([C:6]#[N:7])[H:12])[H:11])([H:8])([H:9])[H:10]"
C       -1.55765070       0.18662679      -0.19953216
N       -0.46482960      -0.76327641      -0.17654825
C        0.81831952      -0.36090223       0.24442451
C        1.76457529       0.07557681      -1.44084008
N        2.52449961      -0.37350868      -0.71098255
C        0.89069843       0.80971907       1.15148771
N        0.95772774       1.73630549       1.82288558
H       -1.83522099       0.43433397       0.82584812
H       -2.43419762      -0.27494031      -0.65136245
H       -1.29235151       1.08069158      -0.77673280
H       -0.49120968      -1.36168626      -0.98767166
H        1.11963951      -1.18893983       0.89902403
12
Frame=14 idx=011856 GeodesicLength=1.3310326896115794 rxn_smarts="[C:1]([N:2]([C:3]([C:4]#[N:5])([C:6]#[N:7])[H:12])[H:11])([H:8])([H:9])[H:10]>>[C:1]([N:2]([C@@:3]([N+:5]#[C-:4])([C:6]#[N:7])[H:12])[H:11])([H:8])([H:9])[H:10]"
C       -1.56239223       0.17363452      -0.18513684
N       -0.45379852      -0.75738120      -0.20117311
C        0.82826920      -0.34869128       0.23827253
C        1.81528230       0.11918069      -1.39939616
N        2.49865719      -0.50607141      -0.72773667
C        0.89912096       0.84313974       1.12161061
N        0.94456791       1.76377241       1.80302255
H       -1.83608988       0.38614135       0.84921593
H       -2.43529967      -0.29040271      -0.64192310
H       -1.32516900       1.08915483      -0.74066116
H       -0.46996211      -1.31123483      -1.04382709
H        1.09681384      -1.16124211       0.92773250
12
Frame=15 idx=011856 GeodesicLength=1.4255328278884423 rxn_smarts="[C:1]([N:2]([C:3]([C:4]#[N:5])([C:6]#[N:7])[H:12])[H:11])([H:8])([H:9])[H:10]>>[C:1]([N:2]([C@@:3]([N+:5]#[C-:4])([C:6]#[N:7])[H:12])[H:11])([H:8])([H:9])[H:10]"
C       -1.56627825       0.16004331      -0.17097629
N       -0.44282354      -0.75100849      -0.22573304
C        0.83800419      -0.33694285       0.23319290
C        1.87526144       0.15121059      -1.34988488
N        2.45913889      -0.62690368      -0.74984007
C        0.90599438       0.87386094       1.09500157
N        0.93293398       1.79323308       1.77919951
H       -1.83585278       0.33654196       0.87126519
H       -2.43532290      -0.30569835      -0.63383198
H       -1.35738269       1.09638222      -0.70281940
H       -0.44973258      -1.25664259      -1.09854312
H        1.07605986      -1.13407614       0.95296963
12
Frame=16 idx=011856 GeodesicLength=1.5210089234977733 rxn_smarts="[C:1]([N:2]([C:3]([C:4]#[N:5])([C:6]#[N:7])[H:12])[H:11])([H:8])([H:9])[H:10]>>[C:1]([N:2]([C@@:3]([N+:5]#[C-:4])([C:6]#[N:7])[H:12])[H:11])([H:8])([H:9])[H:10]"
C       -1.57049901       0.14550161      -0.15664078
N       -0.43192736      -0.74271742      -0.25195168
C        0.84746757      -0.32384560       0.22699483
C        1.94648437       0.16732533      -1.29456602
N        2.41017680      -0.73656191      -0.77313440
C        0.91162317       0.90574274       1.06675298
N        0.92310643       1.82156400       1.75626285
H       -1.83395178       0.28501714       0.89281380
H       -2.43570422      -0.32262558      -0.62472514
H       -1.39197217       1.10195534      -0.66331304
H       -0.43074910      -1.19643827      -1.15311548
H        1.05594529      -1.10491738       0.97462207
