14
Frame=0 idx=010228 GeodesicLength=0.0 rxn_smarts="[C:1]([C:2]([N:3](/[C:4](=[N:5]/[H:14])[C:6]#[N:7])[H:13])([H:11])[H:12])([H:8])([H:9])[H:10]>>[C-:2]([N:3]([C+:4]=[N:5][H:14])[H:13])([H:11])[H:12].[C:1]([C:6]#[N:7])([H:8])([H:9])[H:10]"
C       -1.00089116       1.07396057      -0.46847179
C       -0.95650508      -1.09281244       0.29731424
N        0.16528588      -0.99947581       0.99982125
C        1.21962535      -0.30617839       0.35142444
N        2.40348215      -0.38084479       0.75047357
C        0.62574298       0.40904699      -0.86464904
N        1.08174664       0.48002973      -1.96338795
H       -1.78186892       0.80088428      -1.17703863
H       -0.64157942       2.05828488      -0.76448180
H       -1.41423373       1.21027735       0.53397943
H       -0.90017915      -1.44129209      -0.72363084
H       -1.89261928      -1.19355046       0.83071253
H        0.10261601      -0.86061622       1.99820220
H        2.98937768       0.24228641       0.19973242
14
Frame=1 idx=010228 GeodesicLength=0.1486434819307994 rxn_smarts="[C:1]([C:2]([N:3](/[C:4](=[N:5]/[H:14])[C:6]#[N:7])[H:13])([H:11])[H:12])([H:8])([H:9])[H:10]>>[C-:2]([N:3]([C+:4]=[N:5][H:14])[H:13])([H:11])[H:12].[C:1]([C:6]#[N:7])([H:8])([H:9])[H:10]"
C       -1.03060207       1.07882884      -0.47592817
C       -0.94360103      -1.09518520       0.31178094
N        0.16555441      -0.95759945       1.03006106
C        1.22746607      -0.28542190       0.37018659
N        2.41760636      -0.47852346       0.70968644
C        0.64741795       0.45698367      -0.87012004
N        1.11803961       0.55554704      -1.95814673
H       -1.78028867       0.79930797      -1.21547988
H       -0.69487364       2.08278325      -0.73336398
H       -1.50383895       1.19608454       0.50204505
H       -0.86073729      -1.46513767      -0.70018893
H       -1.87737937      -1.24138853       0.83914179
H        0.08804072      -0.77742787       2.02059851
H        3.02719590       0.13114876       0.16972736
14
Frame=2 idx=010228 GeodesicLength=0.2964146262370277 rxn_smarts="[C:1]([C:2]([N:3](/[C:4](=[N:5]/[H:14])[C:6]#[N:7])[H:13])([H:11])[H:12])([H:8])([H:9])[H:10]>>[C-:2]([N:3]([C+:4]=[N:5][H:14])[H:13])([H:11])[H:12].[C:1]([C:6]#[N:7])([H:8])([H:9])[H:10]"
C       -1.05796936       1.08263778      -0.48344067
C       -0.93097137      -1.09733095       0.32823344
N        0.16625372      -0.91698517       1.05857174
C        1.23704860      -0.26896815       0.38689960
N        2.42075888      -0.57108818       0.66909934
C        0.67042098       0.50414685      -0.87626445
N        1.15813663       0.63572945      -1.95074652
H       -1.77465995       0.79973707      -1.25414233
H       -0.74660164       2.10436685      -0.70090623
H       -1.59006132       1.17774187       0.46621942
H       -0.82372885      -1.48868007      -0.67380919
H       -1.85855034      -1.28750648       0.85295774
H        0.07503383      -0.69493059       2.03922210
H        3.05489020       0.02112970       0.13810601
14
Frame=3 idx=010228 GeodesicLength=0.4436657936741395 rxn_smarts="[C:1]([C:2]([N:3](/[C:4](=[N:5]/[H:14])[C:6]#[N:7])[H:13])([H:11])[H:12])([H:8])([H:9])[H:10]>>[C-:2]([N:3]([C+:4]=[N:5][H:14])[H:13])([H:11])[H:12].[C:1]([C:6]#[N:7])([H:8])([H:9])[H:10]"
C       -1.08341268       1.08533826      -0.49131141
C       -0.91892026      -1.09927950       0.34667576
N        0.16738380      -0.87783694       1.08546021
C        1.24780404      -0.25630675       0.40197751
N        2.41486400      -0.65868367       0.62879820
C        0.69476647       0.55091871      -0.88283594
N        1.20213881       0.72060683      -1.94021894
H       -1.76522232       0.80213083      -1.29329078
H       -0.79726729       2.12289167      -0.66740090
H       -1.67282016       1.15530224       0.42613620
H       -0.78946022      -1.51211192      -0.64456223
H       -1.83669475      -1.33162820       0.87216511
H        0.06364207      -0.61372353       2.05421313
H        3.07319850      -0.08761803       0.10419407
14
Frame=4 idx=010228 GeodesicLength=0.5904783402267595 rxn_smarts="[C:1]([C:2]([N:3](/[C:4](=[N:5]/[H:14])[C:6]#[N:7])[H:13])([H:11])[H:12])([H:8])([H:9])[H:10]>>[C-:2]([N:3]([C+:4]=[N:5][H:14])[H:13])([H:11])[H:12].[C:1]([C:6]#[N:7])([H:8])([H:9])[H:10]"
C       -1.10720728       1.08687317      -0.49977654
C       -0.90763274      -1.10106040       0.36706645
N        0.16896447      -0.84029354       1.11086827
C        1.25930048      -0.24685457       0.41588395
N        2.40136588      -0.74134879       0.58878073
C        0.72052657       0.59769160      -0.88954527
N        1.24995561       0.80980955      -1.92563033
H       -1.75208951       0.80651040      -1.33305631
H       -0.84727072       2.13818861      -0.63306705
H       -1.75193294       1.12883073       0.38149684
H       -0.75804603      -1.53560790      -0.61252855
H       -1.81228597      -1.37349671       0.89659973
H        0.05382386      -0.53429020       2.06577202
H        3.08252830      -0.19495195       0.06713604
14
Frame=5 idx=010228 GeodesicLength=0.7367695593277895 rxn_smarts="[C:1]([C:2]([N:3](/[C:4](=[N:5]/[H:14])[C:6]#[N:7])[H:13])([H:11])[H:12])([H:8])([H:9])[H:10]>>[C-:2]([N:3]([C+:4]=[N:5][H:14])[H:13])([H:11])[H:12].[C:1]([C:6]#[N:7])([H:8])([H:9])[H:10]"
C       -1.12942837       1.08723708      -0.50899236
C       -0.89732436      -1.10272320       0.38929361
N        0.17099214      -0.80465193       1.13487542
C        1.27117113      -0.24029967       0.42890177
N        2.38150134      -0.81888417       0.54903062
C        0.74780818       0.64470475      -0.89620492
N        1.30121781       0.90222885      -1.90643578
H       -1.73541579       0.81304224      -1.37329129
H       -0.89676884       2.15009206      -0.59817916
H       -1.82679699       1.09854662       0.33228617
H       -0.72969863      -1.55931018      -0.57785968
H       -1.78585885      -1.41284003       0.92596416
H        0.04552657      -0.45723829       2.07407180
H        3.08307466      -0.29990415       0.02653962
14
Frame=6 idx=010228 GeodesicLength=0.8825409665191879 rxn_smarts="[C:1]([C:2]([N:3](/[C:4](=[N:5]/[H:14])[C:6]#[N:7])[H:13])([H:11])[H:12])([H:8])([H:9])[H:10]>>[C-:2]([N:3]([C+:4]=[N:5][H:14])[H:13])([H:11])[H:12].[C:1]([C:6]#[N:7])([H:8])([H:9])[H:10]"
C       -1.15016686       1.08636492      -0.51914957
C       -0.88807631      -1.10430335       0.41328510
N        0.17347008      -0.77098258       1.15766768
C        1.28319624      -0.23620524       0.44138062
N        2.35619329      -0.89139940       0.50930385
C        0.77677808       0.69240263      -0.90247637
N        1.35555429       0.99688048      -1.88215529
H       -1.71532211       0.82181466      -1.41391022
H       -0.94604498       2.15840041      -0.56297090
H       -1.89700129       1.06459450       0.27842753
H       -0.70439111      -1.58334809      -0.54062373
H       -1.75785775      -1.44940743       0.95991345
H        0.03867591      -0.38290403       2.07941035
H        3.07499250      -0.40190748      -0.01810252
14
Frame=7 idx=010228 GeodesicLength=1.0278253039157903 rxn_smarts="[C:1]([C:2]([N:3](/[C:4](=[N:5]/[H:14])[C:6]#[N:7])[H:13])([H:11])[H:12])([H:8])([H:9])[H:10]>>[C-:2]([N:3]([C+:4]=[N:5][H:14])[H:13])([H:11])[H:12].[C:1]([C:6]#[N:7])([H:8])([H:9])[H:10]"
C       -1.16946080       1.08412092      -0.53038175
C       -0.87993315      -1.10584497       0.43903122
N        0.17642408      -0.73927210       1.17940591
C        1.29522091      -0.23430025       0.45343043
N        2.32614868      -0.95901245       0.46935649
C        0.80756374       0.74119634      -0.90809037
N        1.41270825       1.09290016      -1.85245126
H       -1.69182521       0.83294726      -1.45481253
H       -0.99531106       2.16280032      -0.52744278
H       -1.96229968       1.02702453       0.21974426
H       -0.68212245      -1.60789044      -0.50078955
H       -1.72870069      -1.48290847       0.99818168
H        0.03325091      -0.31135182       2.08201312
H        3.05833647      -0.50040904      -0.06719486
14
Frame=8 idx=010228 GeodesicLength=1.1727468140652195 rxn_smarts="[C:1]([C:2]([N:3](/[C:4](=[N:5]/[H:14])[C:6]#[N:7])[H:13])([H:11])[H:12])([H:8])([H:9])[H:10]>>[C-:2]([N:3]([C+:4]=[N:5][H:14])[H:13])([H:11])[H:12].[C:1]([C:6]#[N:7])([H:8])([H:9])[H:10]"
C       -1.18727480       1.08043360      -0.54286571
C       -0.87302391      -1.10736915       0.46652834
N        0.17983799      -0.70960980       1.20021930
C        1.30708982      -0.23446674       0.46507128
N        2.29200244      -1.02178120       0.42888920
C        0.84033126       0.79150737      -0.91276873
N        1.47239587       1.18920502      -1.81736818
H       -1.66508006       0.84656501      -1.49578117
H       -1.04476591       2.16300794      -0.49181760
H       -2.02218628       0.98604170       0.15625359
H       -0.66302832      -1.63305135      -0.45832259
H       -1.69885956      -1.51314850       1.04054950
H        0.02929499      -0.24289083       2.08217099
H        3.03326647      -0.59444307      -0.12075821
14
Frame=9 idx=010228 GeodesicLength=1.3169034582970878 rxn_smarts="[C:1]([C:2]([N:3](/[C:4](=[N:5]/[H:14])[C:6]#[N:7])[H:13])([H:11])[H:12])([H:8])([H:9])[H:10]>>[C-:2]([N:3]([C+:4]=[N:5][H:14])[H:13])([H:11])[H:12].[C:1]([C:6]#[N:7])([H:8])([H:9])[H:10]"
C       -1.20335538       1.07533277      -0.55674691
C       -0.86748111      -1.10886293       0.49563863
N        0.18363540      -0.68224514       1.22020993
C        1.31854118      -0.23666331       0.47642670
N        2.25429620      -1.07951353       0.38762792
C        0.87530198       0.84374036      -0.91593976
N        1.53397413       1.28424141      -1.77747637
H       -1.63534006       0.86258141      -1.53634776
H       -1.09458393       2.15882949      -0.45678972
H       -2.07557542       0.94197602       0.08848604
H       -0.64726841      -1.65881516      -0.41333850
H       -1.66888470      -1.53984562       1.08651200
H        0.02683497      -0.17815881       2.08028354
H        2.99990515      -0.68259696      -0.17854573
14
Frame=10 idx=010228 GeodesicLength=1.460719165771044 rxn_smarts="[C:1]([C:2]([N:3](/[C:4](=[N:5]/[H:14])[C:6]#[N:7])[H:13])([H:11])[H:12])([H:8])([H:9])[H:10]>>[C-:2]([N:3]([C+:4]=[N:5][H:14])[H:13])([H:11])[H:12].[C:1]([C:6]#[N:7])([H:8])([H:9])[H:10]"
C       -1.21775003       1.06859996      -0.57210479
C       -0.86334539      -1.11037853       0.52651549
N        0.18786182      -0.65704186       1.23949827
C        1.32950136      -0.24071313       0.48725014
N        2.21319751      -1.13252235       0.34498084
C        0.91249350       0.89831672      -0.91746033
N        1.59761401       1.37744056      -1.73316066
H       -1.60261162       0.88128645      -1.57644177
H       -1.14485208       2.14970713      -0.42198836
H       -2.12262014       0.89475407       0.01609716
H       -0.63491538      -1.68542180      -0.36554884
H       -1.63921601      -1.56275836       1.13608599
H        0.02600668      -0.11700819       2.07661004
H        2.95863576      -0.76426067      -0.24033317
14
Frame=11 idx=010228 GeodesicLength=1.6041837016457663 rxn_smarts="[C:1]([C:2]([N:3](/[C:4](=[N:5]/[H:14])[C:6]#[N:7])[H:13])([H:11])[H:12])([H:8])([H:9])[H:10]>>[C-:2]([N:3]([C+:4]=[N:5][H:14])[H:13])([H:11])[H:12].[C:1]([C:6]#[N:7])([H:8])([H:9])[H:10]"
C       -1.23028119       1.06000493      -0.58912111
C       -0.86068071      -1.11187189       0.55935126
N        0.19254905      -0.63399461       1.25825857
C        1.33982135      -0.24660629       0.49741288
N        2.16868356      -1.18094384       0.30024674
C        0.95201053       0.95561855      -0.91684604
N        1.66343969       1.46872697      -1.68435841
H       -1.56683161       0.90251023      -1.61585276
H       -1.19583583       2.13506253      -0.38790167
H       -2.16281197       0.84425171      -0.06102030
H       -0.62614574      -1.71303943      -0.31456391
H       -1.61036113      -1.58145788       1.18928837
H        0.02700786      -0.05944017       2.07148006
H        2.90943613      -0.83882080      -0.30637369
14
Frame=12 idx=010228 GeodesicLength=1.747536477158386 rxn_smarts="[C:1]([C:2]([N:3](/[C:4](=[N:5]/[H:14])[C:6]#[N:7])[H:13])([H:11])[H:12])([H:8])([H:9])[H:10]>>[C-:2]([N:3]([C+:4]=[N:5][H:14])[H:13])([H:11])[H:12].[C:1]([C:6]#[N:7])([H:8])([H:9])[H:10]"
C       -1.24075021       1.04929825      -0.60813004
C       -0.85960374      -1.11321376       0.59442465
N        0.19771673      -0.61301307       1.27663706
C        1.34937042      -0.25429401       0.50670480
N        2.12045560      -1.22488021       0.25258486
C        0.99394405       1.01603666      -0.91371495
N        1.73172860       1.55805629      -1.63108039
H       -1.52795658       0.92621439      -1.65451291
H       -1.24776414       2.11415900      -0.35477960
H       -2.19564462       0.79024130      -0.14319516
H       -0.62119534      -1.74175599      -0.25987109
H       -1.58269688      -1.59562510       1.24638200
H        0.03012311      -0.00559037       2.06540560
H        2.85227302      -0.90563337      -0.37685482
14
Frame=13 idx=010228 GeodesicLength=1.890356506052132 rxn_smarts="[C:1]([C:2]([N:3](/[C:4](=[N:5]/[H:14])[C:6]#[N:7])[H:13])([H:11])[H:12])([H:8])([H:9])[H:10]>>[C-:2]([N:3]([C+:4]=[N:5][H:14])[H:13])([H:11])[H:12].[C:1]([C:6]#[N:7])([H:8])([H:9])[H:10]"
C       -1.24864097       1.03619550      -0.62960409
C       -0.86022123      -1.11414533       0.63188468
N        0.20337333      -0.59408979       1.29475516
C        1.35794187      -0.26378144       0.51510824
N        2.06793291      -1.26402173       0.20110127
C        1.03842172       1.07957150      -0.90750157
N        1.80230715       1.64499490      -1.57355047
H       -1.48628598       0.95242548      -1.69225651
H       -1.30057231       2.08599692      -0.32304864
H       -2.21981107       0.73224125      -0.23035219
H       -0.62037036      -1.77139316      -0.20105258
H       -1.55667899      -1.60468441       1.30731043
H        0.03569249       0.04419846       2.05898691
H        2.78691143      -0.96350815      -0.45178064
14
Frame=14 idx=010228 GeodesicLength=2.0332955307162854 rxn_smarts="[C:1]([C:2]([N:3](/[C:4](=[N:5]/[H:14])[C:6]#[N:7])[H:13])([H:11])[H:12])([H:8])([H:9])[H:10]>>[C-:2]([N:3]([C+:4]=[N:5][H:14])[H:13])([H:11])[H:12].[C:1]([C:6]#[N:7])([H:8])([H:9])[H:10]"
C       -1.25378040       1.02039352      -0.65360196
C       -0.86252516      -1.11456788       0.67195309
N        0.20957395      -0.57717085       1.31273801
C        1.36545004      -0.27501448       0.52226813
N        2.01041280      -1.29817836       0.14507874
C        1.08541804       1.14664008      -0.89789539
N        1.87568326       1.72926620      -1.51196675
H       -1.44175875       0.98122103      -1.72875453
H       -1.35431881       2.04951587      -0.29291176
H       -2.23488976       0.67001333      -0.32278830
H       -0.62359348      -1.80202411      -0.13752661
H       -1.53264731      -1.60833916       1.37222036
H        0.04385998       0.09008681       2.05257174
H        2.71311562      -1.01184199      -0.53138478
14
Frame=15 idx=010228 GeodesicLength=2.176496117732637 rxn_smarts="[C:1]([C:2]([N:3](/[C:4](=[N:5]/[H:14])[C:6]#[N:7])[H:13])([H:11])[H:12])([H:8])([H:9])[H:10]>>[C-:2]([N:3]([C+:4]=[N:5][H:14])[H:13])([H:11])[H:12].[C:1]([C:6]#[N:7])([H:8])([H:9])[H:10]"
C       -1.25565390       1.00145986      -0.68035160
C       -0.86650710      -1.11416104       0.71489779
N        0.21647550      -0.56224762       1.33071841
C        1.37177207      -0.28818144       0.52787967
N        1.94664258      -1.32689698       0.08342424
C        1.13495329       1.21725269      -0.88440366
N        1.95224323       1.81120115      -1.44525826
H       -1.39442085       1.01194737      -1.76361643
H       -1.40891973       2.00358965      -0.26562633
H       -2.23960994       0.60303475      -0.42043796
H       -0.63095918      -1.83352667      -0.06848588
H       -1.51084863      -1.60595506       1.44128162
H        0.05507094       0.13222616       2.04642572
H        2.62976171      -1.04974284      -0.61644734
14
Frame=16 idx=010228 GeodesicLength=2.320366566269037 rxn_smarts="[C:1]([C:2]([N:3](/[C:4](=[N:5]/[H:14])[C:6]#[N:7])[H:13])([H:11])[H:12])([H:8])([H:9])[H:10]>>[C-:2]([N:3]([C+:4]=[N:5][H:14])[H:13])([H:11])[H:12].[C:1]([C:6]#[N:7])([H:8])([H:9])[H:10]"
C       -1.25373645       0.97914761      -0.70986629
C       -0.87209727      -1.11260526       0.76074556
N        0.22417686      -0.54934971       1.34874907
C        1.37681546      -0.30344990       0.53171506
N        1.87509931      -1.34928318       0.01535629
C        1.18701403       1.29135382      -0.86651915
N        2.03214340       1.89006155      -1.37332682
H       -1.34450854       1.04393978      -1.79626446
H       -1.46414093       1.94724827      -0.24233648
H       -2.23257644       0.53093157      -0.52288436
H       -0.64228232      -1.86541744       0.00649031
H       -1.49134447      -1.59718475       1.51429224
H        0.06968033       0.17046728       2.04095669
H        2.53575702      -1.07585965      -0.70710766
