12
Frame=0 idx=006750 GeodesicLength=0.0 rxn_smarts="[O:1]=[C:2]([C:3](=[O:4])[N:5]1[C:6]([H:9])([H:10])[C:7]1([H:11])[H:12])[H:8]>>[O:1]([C+:2]=[C:3]([O-:4])[N:5]1[C:6]([H:9])([H:10])[C:7]1([H:11])[H:12])[H:8]"
O        1.81863673       1.66958717      -0.41452986
C        1.98750947       0.53911357       0.19240504
C        1.01578993      -0.57417995      -0.09998724
O        1.37433601      -1.49606939      -0.78843433
N       -0.18727796      -0.47748846       0.55788421
C       -1.41846335      -0.95462675      -0.01409699
C       -1.20805365       0.50016808       0.22994331
H        2.75913554       1.51550792       0.26988415
H       -2.05258112      -1.52162403       0.65567538
H       -1.37253003      -1.31423595      -1.03563275
H       -1.03524840       1.13474240      -0.63117661
H       -1.68125321       0.97910543       1.07806565
12
Frame=1 idx=006750 GeodesicLength=0.033118415971213185 rxn_smarts="[O:1]=[C:2]([C:3](=[O:4])[N:5]1[C:6]([H:9])([H:10])[C:7]1([H:11])[H:12])[H:8]>>[O:1]([C+:2]=[C:3]([O-:4])[N:5]1[C:6]([H:9])([H:10])[C:7]1([H:11])[H:12])[H:8]"
O        1.80914705       1.67509871      -0.39319847
C        1.98262747       0.54549652       0.20740239
C        1.01446546      -0.56858962      -0.09415352
O        1.37907862      -1.48883756      -0.78180012
N       -0.19143018      -0.47573662       0.55872086
C       -1.41953411      -0.95632150      -0.01656791
C       -1.21405796       0.49896733       0.22947670
H        2.79591314       1.49972330       0.23147701
H       -2.05374112      -1.52572850       0.65110565
H       -1.37002011      -1.31472182      -1.03838033
H       -1.04193298       1.13469639      -0.63096721
H       -1.69051528       0.97595337       1.07688496
12
Frame=2 idx=006750 GeodesicLength=0.06600791575580015 rxn_smarts="[O:1]=[C:2]([C:3](=[O:4])[N:5]1[C:6]([H:9])([H:10])[C:7]1([H:11])[H:12])[H:8]>>[O:1]([C+:2]=[C:3]([O-:4])[N:5]1[C:6]([H:9])([H:10])[C:7]1([H:11])[H:12])[H:8]"
O        1.80038720       1.68030600      -0.37192910
C        1.97836952       0.55151753       0.22227571
C        1.01349786      -0.56325081      -0.08827035
O        1.38391960      -1.48195995      -0.77510625
N       -0.19517385      -0.47406649       0.55958440
C       -1.42031401      -0.95775950      -0.01908254
C       -1.21943017       0.49799412       0.22911867
H        2.82768139       1.48360520       0.19293104
H       -2.05471279      -1.52953127       0.64642211
H       -1.36732694      -1.31485964      -1.04120247
H       -1.04788117       1.13494982      -0.63059045
H       -1.69901665       0.97305498       1.07584923
12
Frame=3 idx=006750 GeodesicLength=0.09873591682754676 rxn_smarts="[O:1]=[C:2]([C:3](=[O:4])[N:5]1[C:6]([H:9])([H:10])[C:7]1([H:11])[H:12])[H:8]>>[O:1]([C+:2]=[C:3]([O-:4])[N:5]1[C:6]([H:9])([H:10])[C:7]1([H:11])[H:12])[H:8]"
O        1.79209400       1.68503577      -0.35073536
C        1.97468459       0.55711127       0.23692139
C        1.01289279      -0.55815514      -0.08226344
O        1.38892812      -1.47532693      -0.76826495
N       -0.19858170      -0.47246711       0.56050191
C       -1.42078697      -0.95886105      -0.02164533
C       -1.22419086       0.49716924       0.22888864
H        2.85481788       1.46726445       0.15420053
H       -2.05559000      -1.53291033       0.64157018
H       -1.36430596      -1.31447922      -1.04409918
H       -1.05307027       1.13536742      -0.63003206
H       -1.70689163       0.97025163       1.07495767
12
Frame=4 idx=006750 GeodesicLength=0.1312620540556964 rxn_smarts="[O:1]=[C:2]([C:3](=[O:4])[N:5]1[C:6]([H:9])([H:10])[C:7]1([H:11])[H:12])[H:8]>>[O:1]([C+:2]=[C:3]([O-:4])[N:5]1[C:6]([H:9])([H:10])[C:7]1([H:11])[H:12])[H:8]"
O        1.78435172       1.68935205      -0.32971044
C        1.97149501       0.56222533       0.25114118
C        1.01252812      -0.55334809      -0.07642954
O        1.39388501      -1.46913373      -0.76159744
N       -0.20158148      -0.47086959       0.56134598
C       -1.42094378      -0.95972182      -0.02417325
C       -1.22835275       0.49656398       0.22868861
H        2.87754747       1.45101667       0.11621433
H       -2.05612591      -1.53588573       0.63679143
H       -1.36116071      -1.31393445      -1.04694855
H       -1.05764760       1.13591675      -0.62943703
H       -1.71399509       0.96781862       1.07411472
12
Frame=5 idx=006750 GeodesicLength=0.16387668055229473 rxn_smarts="[O:1]=[C:2]([C:3](=[O:4])[N:5]1[C:6]([H:9])([H:10])[C:7]1([H:11])[H:12])[H:8]>>[O:1]([C+:2]=[C:3]([O-:4])[N:5]1[C:6]([H:9])([H:10])[C:7]1([H:11])[H:12])[H:8]"
O        1.77717190       1.69319734      -0.30922345
C        1.96890063       0.56689829       0.26485310
C        1.01244805      -0.54886190      -0.07064292
O        1.39884991      -1.46335349      -0.75492356
N       -0.20425948      -0.46937362       0.56218202
C       -1.42093173      -0.96035962      -0.02668810
C       -1.23198626       0.49610178       0.22856229
H        2.89648963       1.43521948       0.07907659
H       -2.05661983      -1.53858006       0.63201417
H       -1.35797793      -1.31305008      -1.04981119
H       -1.06162893       1.13663635      -0.62878003
H       -1.72045598       0.96552554       1.07338107
12
Frame=6 idx=006750 GeodesicLength=0.19654811014427945 rxn_smarts="[O:1]=[C:2]([C:3](=[O:4])[N:5]1[C:6]([H:9])([H:10])[C:7]1([H:11])[H:12])[H:8]>>[O:1]([C+:2]=[C:3]([O-:4])[N:5]1[C:6]([H:9])([H:10])[C:7]1([H:11])[H:12])[H:8]"
O        1.77041574       1.69667593      -0.28894240
C        1.96680969       0.57110772       0.27806227
C        1.01257673      -0.54466789      -0.06501271
O        1.40374098      -1.45794364      -0.74841337
N       -0.20662541      -0.46793622       0.56295543
C       -1.42074366      -0.96081842      -0.02914240
C       -1.23512783       0.49578284       0.22842515
H        2.91208759       1.41986417       0.04283877
H       -2.05698770      -1.54096125       0.62735549
H       -1.35478319      -1.31202277      -1.05259105
H       -1.06510094       1.13743437      -0.62818050
H       -1.72626200       0.96348517       1.07264532
12
Frame=7 idx=006750 GeodesicLength=0.22916843418570892 rxn_smarts="[O:1]=[C:2]([C:3](=[O:4])[N:5]1[C:6]([H:9])([H:10])[C:7]1([H:11])[H:12])[H:8]>>[O:1]([C+:2]=[C:3]([O-:4])[N:5]1[C:6]([H:9])([H:10])[C:7]1([H:11])[H:12])[H:8]"
O        1.76404751       1.69972405      -0.26903790
C        1.96516238       0.57489450       0.29077865
C        1.01290127      -0.54078143      -0.05950248
O        1.40857121      -1.45294578      -0.74202393
N       -0.20870671      -0.46655533       0.56367839
C       -1.42039329      -0.96110783      -0.03156213
C       -1.23782682       0.49560343       0.22830857
H        2.92466756       1.40506520       0.00756656
H       -2.05724497      -1.54304863       0.62275885
H       -1.35157528      -1.31084630      -1.05533292
H       -1.06812056       1.13831516      -0.62758452
H       -1.73148231       0.96168296       1.07195287
12
Frame=8 idx=006750 GeodesicLength=0.2618215138594021 rxn_smarts="[O:1]=[C:2]([C:3](=[O:4])[N:5]1[C:6]([H:9])([H:10])[C:7]1([H:11])[H:12])[H:8]>>[O:1]([C+:2]=[C:3]([O-:4])[N:5]1[C:6]([H:9])([H:10])[C:7]1([H:11])[H:12])[H:8]"
O        1.75807024       1.70238397      -0.24949722
C        1.96390664       0.57830289       0.30305723
C        1.01339160      -0.53714922      -0.05410516
O        1.41335805      -1.44828204      -0.73572690
N       -0.21055312      -0.46522154       0.56436113
C       -1.41991477      -0.96124770      -0.03394384
C       -1.24015982       0.49553211       0.22820250
H        2.93465996       1.39077830      -0.02682921
H       -2.05741791      -1.54489466       0.61823872
H       -1.34836058      -1.30951999      -1.05803779
H       -1.07074551       1.13926832      -0.62700819
H       -1.73623478       0.96004954       1.07128875
12
Frame=9 idx=006750 GeodesicLength=0.2945407930936588 rxn_smarts="[O:1]=[C:2]([C:3](=[O:4])[N:5]1[C:6]([H:9])([H:10])[C:7]1([H:11])[H:12])[H:8]>>[O:1]([C+:2]=[C:3]([O-:4])[N:5]1[C:6]([H:9])([H:10])[C:7]1([H:11])[H:12])[H:8]"
O        1.75240745       1.70467853      -0.23030908
C        1.96301287       0.58136718       0.31492026
C        1.01403418      -0.53376959      -0.04879871
O        1.41810077      -1.44396820      -0.72949707
N       -0.21218412      -0.46393093       0.56500840
C       -1.41931960      -0.96125368      -0.03630041
C       -1.24215898       0.49556770       0.22811163
H        2.94235337       1.37701662      -0.06039773
H       -2.05751554      -1.54652119       0.61376650
H       -1.34514253      -1.30806390      -1.06071982
H       -1.07302080       1.14029277      -0.62643647
H       -1.74056706       0.95858470       1.07065250
12
Frame=10 idx=006750 GeodesicLength=0.3272909317709992 rxn_smarts="[O:1]=[C:2]([C:3](=[O:4])[N:5]1[C:6]([H:9])([H:10])[C:7]1([H:11])[H:12])[H:8]>>[O:1]([C+:2]=[C:3]([O-:4])[N:5]1[C:6]([H:9])([H:10])[C:7]1([H:11])[H:12])[H:8]"
O        1.74704848       1.70664462      -0.21138734
C        1.96242653       0.58412458       0.32643811
C        1.01480285      -0.53060215      -0.04354869
O        1.42280780      -1.43995460      -0.72326940
N       -0.21363526      -0.46267121       0.56563296
C       -1.41860926      -0.96113214      -0.03864629
C       -1.24386284       0.49569354       0.22803550
H        2.94797079       1.36369226      -0.09334893
H       -2.05753863      -1.54795982       0.60930740
H       -1.34188755      -1.30646570      -1.06339070
H       -1.07496605       1.14139044      -0.62585356
H       -1.74455684       0.95724018       1.07003094
12
Frame=11 idx=006750 GeodesicLength=0.3601438015586484 rxn_smarts="[O:1]=[C:2]([C:3](=[O:4])[N:5]1[C:6]([H:9])([H:10])[C:7]1([H:11])[H:12])[H:8]>>[O:1]([C+:2]=[C:3]([O-:4])[N:5]1[C:6]([H:9])([H:10])[C:7]1([H:11])[H:12])[H:8]"
O        1.74193096       1.70831928      -0.19268741
C        1.96214685       0.58659907       0.33763872
C        1.01569950      -0.52764706      -0.03832308
O        1.42749956      -1.43625762      -0.71700077
N       -0.21492011      -0.46144820       0.56625010
C       -1.41779482      -0.96089293      -0.04099609
C       -1.24529673       0.49591079       0.22798094
H        2.95170222       1.35079234      -0.12579457
H       -2.05751313      -1.54923058       0.60482711
H       -1.33859113      -1.30472620      -1.06607191
H       -1.07661276       1.14257224      -0.62525120
H       -1.74825039       0.95600886       1.06942817
12
Frame=12 idx=006750 GeodesicLength=0.3930949594231081 rxn_smarts="[O:1]=[C:2]([C:3](=[O:4])[N:5]1[C:6]([H:9])([H:10])[C:7]1([H:11])[H:12])[H:8]>>[O:1]([C+:2]=[C:3]([O-:4])[N:5]1[C:6]([H:9])([H:10])[C:7]1([H:11])[H:12])[H:8]"
O        1.73698858       1.70980091      -0.17371597
C        1.96230476       0.58877512       0.34863263
C        1.01679377      -0.52489907      -0.03301486
O        1.43227174      -1.43285947      -0.71061419
N       -0.21604949      -0.46025814       0.56692666
C       -1.41689771      -0.96052952      -0.04338037
C       -1.24648929       0.49621873       0.22793223
H        2.95355656       1.33820193      -0.15834756
H       -2.05753096      -1.55031898       0.60028039
H       -1.33521410      -1.30283792      -1.06883271
H       -1.07796933       1.14381522      -0.62468876
H       -1.75176453       0.95489119       1.06882252
12
Frame=13 idx=006750 GeodesicLength=0.4260506173422758 rxn_smarts="[O:1]=[C:2]([C:3](=[O:4])[N:5]1[C:6]([H:9])([H:10])[C:7]1([H:11])[H:12])[H:8]>>[O:1]([C+:2]=[C:3]([O-:4])[N:5]1[C:6]([H:9])([H:10])[C:7]1([H:11])[H:12])[H:8]"
O        1.73275380       1.71066768      -0.15692814
C        1.96235405       0.59093742       0.35901859
C        1.01781472      -0.52224550      -0.02811923
O        1.43687256      -1.42973626      -0.70442033
N       -0.21707598      -0.45905703       0.56742668
C       -1.41601774      -0.96014191      -0.04567557
C       -1.24760965       0.49653975       0.22798434
H        2.95462024       1.32645722      -0.18821258
H       -2.05735878      -1.55143869       0.59594966
H       -1.33210243      -1.30088314      -1.07151504
H       -1.07930344       1.14513954      -0.62396339
H       -1.75494735       0.95376093       1.06845501
12
Frame=14 idx=006750 GeodesicLength=0.45898968777455856 rxn_smarts="[O:1]=[C:2]([C:3](=[O:4])[N:5]1[C:6]([H:9])([H:10])[C:7]1([H:11])[H:12])[H:8]>>[O:1]([C+:2]=[C:3]([O-:4])[N:5]1[C:6]([H:9])([H:10])[C:7]1([H:11])[H:12])[H:8]"
O        1.72801133       1.71159192      -0.13832734
C        1.96281112       0.59260386       0.36943646
C        1.01899745      -0.51989850      -0.02276395
O        1.44146092      -1.42697691      -0.69770797
N       -0.21793168      -0.45792970       0.56806103
C       -1.41478520      -0.95952542      -0.04811941
C       -1.24820786       0.49702882       0.22798267
H        2.95300087       1.31455754      -0.22005011
H       -2.05709333      -1.55222519       0.59116404
H       -1.32845153      -1.29863168      -1.07424672
H       -1.07999185       1.14659406      -0.62321718
H       -1.75782025       0.95281120       1.06778848
12
Frame=15 idx=006750 GeodesicLength=0.4920314390595681 rxn_smarts="[O:1]=[C:2]([C:3](=[O:4])[N:5]1[C:6]([H:9])([H:10])[C:7]1([H:11])[H:12])[H:8]>>[O:1]([C+:2]=[C:3]([O-:4])[N:5]1[C:6]([H:9])([H:10])[C:7]1([H:11])[H:12])[H:8]"
O        1.72375898       1.71215178      -0.12073365
C        1.96345913       0.59417528       0.37948018
C        1.02027292      -0.51767398      -0.01759588
O        1.44607124      -1.42443047      -0.69114441
N       -0.21868821      -0.45681204       0.56865261
C       -1.41360617      -0.95887675      -0.05051331
C       -1.24875740       0.49754182       0.22802411
H        2.95051634       1.30326119      -0.25050390
H       -2.05685839      -1.55295948       0.58653854
H       -1.32497316      -1.29635675      -1.07699277
H       -1.08063888       1.14807002      -0.62247968
H       -1.76055639       0.95190938       1.06726817
12
Frame=16 idx=006750 GeodesicLength=0.5251069345251436 rxn_smarts="[O:1]=[C:2]([C:3](=[O:4])[N:5]1[C:6]([H:9])([H:10])[C:7]1([H:11])[H:12])[H:8]>>[O:1]([C+:2]=[C:3]([O-:4])[N:5]1[C:6]([H:9])([H:10])[C:7]1([H:11])[H:12])[H:8]"
O        1.71972884       1.71244995      -0.10354683
C        1.96427550       0.59558424       0.38924837
C        1.02161895      -0.51560217      -0.01247429
O        1.45064835      -1.42210642      -0.68458141
N       -0.21933936      -0.45572054       0.56922516
C       -1.41237738      -0.95816036      -0.05289796
C       -1.24914231       0.49810295       0.22807807
H        2.94686809       1.29238126      -0.28028419
H       -2.05659636      -1.55358799       0.58193056
H       -1.32150316      -1.29400525      -1.07973387
H       -1.08110027       1.14958571      -0.62173470
H       -1.76308091       0.95107863       1.06677108
