17
Frame=0 idx=010324 GeodesicLength=0.0 rxn_smarts="[C:1]([C@@:2]1([H:11])[C@:3]([O:4][H:13])([H:12])[C:5]([H:14])([H:15])[C@:6]1([O:7][H:17])[H:16])([H:8])([H:9])[H:10]>>[C:1]([C@@:2]([C@@:3]([O:4][H:13])([C:5]([H:14])([H:15])[H:17])[H:12])([C:6](=[O:7])[H:16])[H:11])([H:8])([H:9])[H:10]"
C       -1.64685642      -0.45551795      -0.55899549
C       -0.76506514       0.17016327       0.50521358
C        0.55002543      -0.57537860       0.76264761
O        0.44039966      -1.96249939       0.57684296
C        1.40729704       0.18963227      -0.26022475
C       -0.00436464       1.40647899       0.01508644
O       -0.26036604       2.03901945      -1.11798342
H       -2.44984083       0.23080846      -0.82579414
H       -2.07637749      -1.38540952      -0.18752071
H       -1.09254582      -0.68195503      -1.46986863
H       -1.34484289       0.37363402       1.40787898
H        0.91028389      -0.35124647       1.77244152
H        1.29335045      -2.36736736       0.74488125
H        2.40980287       0.48823660       0.03614652
H        1.41555721      -0.34508624      -1.21693050
H        0.42926135       1.99364897       0.84014155
H        0.78428145       1.23283857      -1.02396281
17
Frame=1 idx=010324 GeodesicLength=0.09513360002074346 rxn_smarts="[C:1]([C@@:2]1([H:11])[C@:3]([O:4][H:13])([H:12])[C:5]([H:14])([H:15])[C@:6]1([O:7][H:17])[H:16])([H:8])([H:9])[H:10]>>[C:1]([C@@:2]([C@@:3]([O:4][H:13])([C:5]([H:14])([H:15])[H:17])[H:12])([C:6](=[O:7])[H:16])[H:11])([H:8])([H:9])[H:10]"
C       -1.64580240      -0.45574863      -0.56116429
C       -0.76545501       0.16857782       0.50477021
C        0.55129241      -0.57385958       0.76410288
O        0.43896909      -1.96235334       0.58922914
C        1.40710228       0.18495294      -0.26427497
C       -0.01157036       1.40999350       0.01889241
O       -0.26979631       2.03774169      -1.11483342
H       -2.45423787       0.22697150      -0.82119618
H       -2.06928847      -1.39018042      -0.19414473
H       -1.09353304      -0.67304851      -1.47542442
H       -1.34432317       0.36614328       1.40943181
H        0.91248412      -0.34347709       1.77239181
H        1.29376809      -2.36611359       0.75025819
H        2.41657730       0.46269594       0.02978211
H        1.40599251      -0.35487088      -1.21802566
H        0.41735987       1.99904224       0.84527899
H        0.81046095       1.26353315      -1.03507387
17
Frame=2 idx=010324 GeodesicLength=0.19019150644176913 rxn_smarts="[C:1]([C@@:2]1([H:11])[C@:3]([O:4][H:13])([H:12])[C:5]([H:14])([H:15])[C@:6]1([O:7][H:17])[H:16])([H:8])([H:9])[H:10]>>[C:1]([C@@:2]([C@@:3]([O:4][H:13])([C:5]([H:14])([H:15])[H:17])[H:12])([C:6](=[O:7])[H:16])[H:11])([H:8])([H:9])[H:10]"
C       -1.64486877      -0.45604900      -0.56320908
C       -0.76597126       0.16688783       0.50447646
C        0.55256458      -0.57228652       0.76551071
O        0.43764192      -1.96207388       0.60158662
C        1.40674616       0.18043987      -0.26842191
C       -0.01922864       1.41353777       0.02289760
O       -0.27781023       2.03562584      -1.11237163
H       -2.45860497       0.22307244      -0.81658867
H       -2.06223910      -1.39498527      -0.20066896
H       -1.09473084      -0.66424967      -1.48079617
H       -1.34388543       0.35848387       1.41113138
H        0.91479131      -0.33561236       1.77220454
H        1.29424098      -2.36477361       0.75540082
H        2.42294677       0.43683451       0.02296331
H        1.39614535      -0.36435726      -1.21917649
H        0.40492167       2.00458458       0.85052418
H        0.83734051       1.29492085      -1.04546271
17
Frame=3 idx=010324 GeodesicLength=0.28520899862261684 rxn_smarts="[C:1]([C@@:2]1([H:11])[C@:3]([O:4][H:13])([H:12])[C:5]([H:14])([H:15])[C@:6]1([O:7][H:17])[H:16])([H:8])([H:9])[H:10]>>[C:1]([C@@:2]([C@@:3]([O:4][H:13])([C:5]([H:14])([H:15])[H:17])[H:12])([C:6](=[O:7])[H:16])[H:11])([H:8])([H:9])[H:10]"
C       -1.64405435      -0.45641281      -0.56513479
C       -0.76661417       0.16508949       0.50433393
C        0.55384640      -0.57065413       0.76686728
O        0.43642240      -1.96165784       0.61392268
C        1.40622944       0.17609895      -0.27267298
C       -0.02735869       1.41711420       0.02712972
O       -0.28437175       2.03272635      -1.11054319
H       -2.46293225       0.21913204      -0.81198470
H       -2.05523165      -1.39981596      -0.20710193
H       -1.09613392      -0.65555779      -1.48598655
H       -1.34352884       0.35063527       1.41298126
H        0.91721175      -0.32764470       1.77187319
H        1.29476726      -2.36334545       0.76032229
H        2.42887560       0.41071713       0.01567220
H        1.38606179      -0.37360523      -1.22034837
H        0.39196416       2.01026238       0.85589439
H        0.86484683       1.32691810      -1.05522444
17
Frame=4 idx=010324 GeodesicLength=0.38021194224894 rxn_smarts="[C:1]([C@@:2]1([H:11])[C@:3]([O:4][H:13])([H:12])[C:5]([H:14])([H:15])[C@:6]1([O:7][H:17])[H:16])([H:8])([H:9])[H:10]>>[C:1]([C@@:2]([C@@:3]([O:4][H:13])([C:5]([H:14])([H:15])[H:17])[H:12])([C:6](=[O:7])[H:16])[H:11])([H:8])([H:9])[H:10]"
C       -1.64335487      -0.45683231      -0.56694867
C       -0.76738272       0.16317892       0.50434391
C        0.55514207      -0.56895826       0.76817140
O        0.43531412      -1.96110277       0.62624646
C        1.40555531       0.17193183      -0.27703207
C       -0.03597672       1.42072408       0.03161494
O       -0.28945651       2.02910673      -1.10927457
H       -2.46720959       0.21517071      -0.80739714
H       -2.04826500      -1.40466516      -0.21345656
H       -1.09773286      -0.64696685      -1.49100086
H       -1.34325321       0.34257815       1.41498431
H        0.91974924      -0.31956776       1.77139468
H        1.29534364      -2.36182868       0.76504035
H        2.43433191       0.38441248       0.00790129
H        1.37578485      -0.38267458      -1.22150705
H        0.37851038       2.01605806       0.86140804
H        0.89289996       1.35943540      -1.06448847
17
Frame=5 idx=010324 GeodesicLength=0.47528318550254084 rxn_smarts="[C:1]([C@@:2]1([H:11])[C@:3]([O:4][H:13])([H:12])[C:5]([H:14])([H:15])[C@:6]1([O:7][H:17])[H:16])([H:8])([H:9])[H:10]>>[C:1]([C@@:2]([C@@:3]([O:4][H:13])([C:5]([H:14])([H:15])[H:17])[H:12])([C:6](=[O:7])[H:16])[H:11])([H:8])([H:9])[H:10]"
C       -1.64276581      -0.45730127      -0.56865823
C       -0.76827802       0.16115073       0.50450916
C        0.55645361      -0.56719434       0.76942381
O        0.43432039      -1.96040547       0.63856981
C        1.40472409       0.16794072      -0.28150030
C       -0.04510569       1.42436901       0.03637948
O       -0.29305409       2.02483809      -1.10847109
H       -2.47143201       0.21120206      -0.80283592
H       -2.04133096      -1.40952819      -0.21975184
H       -1.09951758      -0.63846281      -1.49584564
H       -1.34305970       0.33428928       1.41714259
H        0.92240425      -0.31137333       1.77076782
H        1.29596675      -2.36022116       0.76957731
H        2.43927730       0.35798563      -0.00035598
H        1.36534926      -0.39162919      -1.22261658
H        0.36458741       2.02195053       0.86708413
H        0.92146080       1.39238970      -1.07341854
17
Frame=6 idx=010324 GeodesicLength=0.5703952000841574 rxn_smarts="[C:1]([C@@:2]1([H:11])[C@:3]([O:4][H:13])([H:12])[C:5]([H:14])([H:15])[C@:6]1([O:7][H:17])[H:16])([H:8])([H:9])[H:10]>>[C:1]([C@@:2]([C@@:3]([O:4][H:13])([C:5]([H:14])([H:15])[H:17])[H:12])([C:6](=[O:7])[H:16])[H:11])([H:8])([H:9])[H:10]"
C       -1.64227758      -0.45780735      -0.57027533
C       -0.76929659       0.15900197       0.50483067
C        0.55778476      -0.56535986       0.77062699
O        0.43344359      -1.95956411       0.65090426
C        1.40374119       0.16412129      -0.28607749
C       -0.05475586       1.42804798       0.04145270
O       -0.29515621       2.01999411      -1.10802530
H       -2.47558872       0.20724759      -0.79831284
H       -2.03442059      -1.41439605      -0.22601319
H       -1.10147154      -0.63002372      -1.50053189
H       -1.34294825       0.32574739       1.41945550
H        0.92517794      -0.30305694       1.76999385
H        1.29663096      -2.35852412       0.77396047
H        2.44368975       0.33151256      -0.00908378
H        1.35479742      -0.40053161      -1.22363695
H        0.35022800       2.02791405       0.87294769
H        0.95042172       1.42567683      -1.08221535
17
Frame=7 idx=010324 GeodesicLength=0.665558480619341 rxn_smarts="[C:1]([C@@:2]1([H:11])[C@:3]([O:4][H:13])([H:12])[C:5]([H:14])([H:15])[C@:6]1([O:7][H:17])[H:16])([H:8])([H:9])[H:10]>>[C:1]([C@@:2]([C@@:3]([O:4][H:13])([C:5]([H:14])([H:15])[H:17])[H:12])([C:6](=[O:7])[H:16])[H:11])([H:8])([H:9])[H:10]"
C       -1.64188134      -0.45833845      -0.57181226
C       -0.77043798       0.15672786       0.50531074
C        0.55913639      -0.56345206       0.77178534
O        0.43268575      -1.95857665       0.66326276
C        1.40260786       0.16046891      -0.29076225
C       -0.06494603       1.43176088       0.04686525
O       -0.29576410       2.01465378      -1.10781286
H       -2.47967406       0.20332472      -0.79383620
H       -2.02751958      -1.41926404      -0.23227108
H       -1.10357919      -0.62161971      -1.50507147
H       -1.34292217       0.31692758       1.42192401
H        0.92806842      -0.29461265       1.76907473
H        1.29733180      -2.35673668       0.77821895
H        2.44754345       0.30507603      -0.01826498
H        1.34416226      -0.40944302      -1.22453184
H        0.33546307       2.03392132       0.87902820
H        0.97972547       1.45918219      -1.09110704
17
Frame=8 idx=010324 GeodesicLength=0.7607320380694403 rxn_smarts="[C:1]([C@@:2]1([H:11])[C@:3]([O:4][H:13])([H:12])[C:5]([H:14])([H:15])[C@:6]1([O:7][H:17])[H:16])([H:8])([H:9])[H:10]>>[C:1]([C@@:2]([C@@:3]([O:4][H:13])([C:5]([H:14])([H:15])[H:17])[H:12])([C:6](=[O:7])[H:16])[H:11])([H:8])([H:9])[H:10]"
C       -1.64156379      -0.45888078      -0.57328314
C       -0.77169842       0.15432503       0.50595128
C        0.56050968      -0.56147117       0.77290670
O        0.43204756      -1.95744331       0.67565896
C        1.40133228       0.15697403      -0.29554448
C       -0.07568402       1.43550296       0.05264579
O       -0.29488971       2.00889934      -1.10769844
H       -2.48368054       0.19944874      -0.78941416
H       -2.02060885      -1.42412388      -0.23856300
H       -1.10581910      -0.61321268      -1.50947800
H       -1.34298282       0.30780834       1.42454387
H        0.93107055      -0.28603917       1.76801838
H        1.29806252      -2.35486203       0.78238815
H        2.45082218       0.27874659      -0.02786569
H        1.33347669      -0.41841747      -1.22526158
H        0.32033043       2.03993790       0.88535613
H        1.00927536       1.49280758      -1.10036078
17
Frame=9 idx=010324 GeodesicLength=0.8560340575837937 rxn_smarts="[C:1]([C@@:2]1([H:11])[C@:3]([O:4][H:13])([H:12])[C:5]([H:14])([H:15])[C@:6]1([O:7][H:17])[H:16])([H:8])([H:9])[H:10]>>[C:1]([C@@:2]([C@@:3]([O:4][H:13])([C:5]([H:14])([H:15])[H:17])[H:12])([C:6](=[O:7])[H:16])[H:11])([H:8])([H:9])[H:10]"
C       -1.64131549      -0.45943213      -0.57470129
C       -0.77307722       0.15178883       0.50674885
C        0.56189830      -0.55942010       0.77399937
O        0.43152492      -1.95616656       0.68811083
C        1.39992081       0.15361179      -0.30041392
C       -0.08698223       1.43927040       0.05879674
O       -0.29262614       2.00283398      -1.10752256
H       -2.48761707       0.19561195      -0.78504434
H       -2.01366229      -1.42898606      -0.24492072
H       -1.10817645      -0.60476759      -1.51376896
H       -1.34313320       0.29837728       1.42731086
H        0.93416868      -0.27733169       1.76683460
H        1.29881168      -2.35290503       0.78650892
H        2.45351561       0.25257322      -0.03785189
H        1.32275130      -0.42750009      -1.22580289
H        0.30487379       2.04593007       0.89194211
H        1.03912500       1.52651173      -1.11022572
17
Frame=10 idx=010324 GeodesicLength=0.9512858242991552 rxn_smarts="[C:1]([C@@:2]1([H:11])[C@:3]([O:4][H:13])([H:12])[C:5]([H:14])([H:15])[C@:6]1([O:7][H:17])[H:16])([H:8])([H:9])[H:10]>>[C:1]([C@@:2]([C@@:3]([O:4][H:13])([C:5]([H:14])([H:15])[H:17])[H:12])([C:6](=[O:7])[H:16])[H:11])([H:8])([H:9])[H:10]"
C       -1.64111757      -0.45996801      -0.57608395
C       -0.77456933       0.14911626       0.50771055
C        0.56330431      -0.55730085       0.77507716
O        0.43111961      -1.95474763       0.70062390
C        1.39838517       0.15037814      -0.30534859
C       -0.09884396       1.44305796       0.06536664
O       -0.28895036       1.99652722      -1.10714690
H       -2.49146977       0.19183937      -0.78073584
H       -2.00665634      -1.43383273      -0.25139552
H       -1.11062280      -0.59622669      -1.51795723
H       -1.34337853       0.28860725       1.43022234
H        0.93735409      -0.26849889       1.76553775
H        1.29957547      -2.35086924       0.79061074
H        2.45562325       0.22663568      -0.04815791
H        1.31202475      -0.43672548      -1.22611107
H        0.28912494       2.05186144       0.89883893
H        1.06909708       1.56014621      -1.12105100
17
Frame=11 idx=010324 GeodesicLength=1.0464547111578353 rxn_smarts="[C:1]([C@@:2]1([H:11])[C@:3]([O:4][H:13])([H:12])[C:5]([H:14])([H:15])[C@:6]1([O:7][H:17])[H:16])([H:8])([H:9])[H:10]>>[C:1]([C@@:2]([C@@:3]([O:4][H:13])([C:5]([H:14])([H:15])[H:17])[H:12])([C:6](=[O:7])[H:16])[H:11])([H:8])([H:9])[H:10]"
C       -1.64095398      -0.46047140      -0.57744780
C       -0.77617284       0.14630236       0.50884110
C        0.56472287      -0.55511870       0.77615571
O        0.43082930      -1.95319085       0.71320699
C        1.39673509       0.14725812      -0.31032346
C       -0.11127919       1.44686133       0.07238977
O       -0.28389155       1.99006508      -1.10640816
H       -2.49523559       0.18814201      -0.77649014
H       -1.99956013      -1.43865861      -0.25803831
H       -1.11313287      -0.58753020      -1.52205791
H       -1.34372637       0.27847249       1.43327571
H        0.94060890      -0.25954838       1.76414692
H        1.30034742      -2.34875989       0.79472773
H        2.45714842       0.20100288      -0.05871531
H        1.30132088      -0.44611853      -1.22614993
H        0.27311797       2.05769381       0.90609362
H        1.09912168       1.59359847      -1.13320654
17
Frame=12 idx=010324 GeodesicLength=1.1415179684492687 rxn_smarts="[C:1]([C@@:2]1([H:11])[C@:3]([O:4][H:13])([H:12])[C:5]([H:14])([H:15])[C@:6]1([O:7][H:17])[H:16])([H:8])([H:9])[H:10]>>[C:1]([C@@:2]([C@@:3]([O:4][H:13])([C:5]([H:14])([H:15])[H:17])[H:12])([C:6](=[O:7])[H:16])[H:11])([H:8])([H:9])[H:10]"
C       -1.64080722      -0.46092729      -0.57880985
C       -0.77788487       0.14334451       0.51014295
C        0.56614766      -0.55288044       0.77725218
O        0.43064909      -1.95150175       0.72586837
C        1.39498431       0.14423332      -0.31530813
C       -0.12428995       1.45067340       0.07989334
O       -0.27750798       1.98353641      -1.10514158
H       -2.49891568       0.18452035      -0.77230651
H       -1.99233853      -1.44345959      -0.26490086
H       -1.11568130      -0.57861694      -1.52608599
H       -1.34418470       0.26795450       1.43646541
H        0.94391169      -0.25048946       1.76268372
H        1.30111837      -2.34658460       0.79889516
H        2.45810376       0.17572049      -0.06944903
H        1.29065845      -0.45569428      -1.22588816
H        0.25688421       2.06338517       0.91375316
H        1.12915270       1.62678622      -1.14706417
17
Frame=13 idx=010324 GeodesicLength=1.2364491204857835 rxn_smarts="[C:1]([C@@:2]1([H:11])[C@:3]([O:4][H:13])([H:12])[C:5]([H:14])([H:15])[C@:6]1([O:7][H:17])[H:16])([H:8])([H:9])[H:10]>>[C:1]([C@@:2]([C@@:3]([O:4][H:13])([C:5]([H:14])([H:15])[H:17])[H:12])([C:6](=[O:7])[H:16])[H:11])([H:8])([H:9])[H:10]"
C       -1.64065646      -0.46131439      -0.58018993
C       -0.77970454       0.14023649       0.51162424
C        0.56757152      -0.55059410       0.77838968
O        0.43057581      -1.94968779       0.73861128
C        1.39314784       0.14129309      -0.32025927
C       -0.13788333       1.45448944       0.08792338
O       -0.26983070       1.97703084      -1.10316752
H       -2.50250482       0.18098413      -0.76818701
H       -1.98495476      -1.44822752      -0.27204663
H       -1.11823536      -0.56941100      -1.53005691
H       -1.34476720       0.25702435       1.43978935
H        0.94723576      -0.24133906       1.76117823
H        1.30188303      -2.34435028       0.80314596
H        2.45850608       0.15084218      -0.08026750
H        1.28006179      -0.46545261      -1.22528846
H        0.24045297       2.06889112       0.92188431
H        1.15910235       1.65958511      -1.16308321
17
Frame=14 idx=010324 GeodesicLength=1.331270011232464 rxn_smarts="[C:1]([C@@:2]1([H:11])[C@:3]([O:4][H:13])([H:12])[C:5]([H:14])([H:15])[C@:6]1([O:7][H:17])[H:16])([H:8])([H:9])[H:10]>>[C:1]([C@@:2]([C@@:3]([O:4][H:13])([C:5]([H:14])([H:15])[H:17])[H:12])([C:6](=[O:7])[H:16])[H:11])([H:8])([H:9])[H:10]"
C       -1.64048114      -0.46161390      -0.58160737
C       -0.78163059       0.13697415       0.51329058
C        0.56898426      -0.54827094       0.77959212
O        0.43060142      -1.94775934       0.75143999
C        1.39124243       0.13841926      -0.32513180
C       -0.15205859       1.45830119       0.09651791
O       -0.26092154       1.97063625      -1.10030942
H       -2.50600380       0.17753184      -0.76412996
H       -1.97736684      -1.45295603      -0.27953955
H       -1.12076478      -0.55983631      -1.53398360
H       -1.34548671       0.24565713       1.44324008
H        0.95055158      -0.23211530       1.75966372
H        1.30263163      -2.34206760       0.80751500
H        2.45838025       0.12640271      -0.09107586
H        1.26954994      -0.47538641      -1.22431785
H        0.22385046       2.07416481       0.93055373
H        1.18892202       1.69191849      -1.18171771
17
Frame=15 idx=010324 GeodesicLength=1.4260515675918097 rxn_smarts="[C:1]([C@@:2]1([H:11])[C@:3]([O:4][H:13])([H:12])[C:5]([H:14])([H:15])[C@:6]1([O:7][H:17])[H:16])([H:8])([H:9])[H:10]>>[C:1]([C@@:2]([C@@:3]([O:4][H:13])([C:5]([H:14])([H:15])[H:17])[H:12])([C:6](=[O:7])[H:16])[H:11])([H:8])([H:9])[H:10]"
C       -1.64025963      -0.46180672      -0.58308318
C       -0.78366392       0.13355098       0.51515080
C        0.57037397      -0.54592370       0.78088786
O        0.43071689      -1.94572903       0.76435608
C        1.38928529       0.13559713      -0.32987167
C       -0.16681817       1.46210202       0.10572369
O       -0.25084146       1.96444134      -1.09638325
H       -2.50941257       0.17416140      -0.76013432
H       -1.96953051      -1.45763939      -0.28745010
H       -1.12323614      -0.54980990      -1.53787956
H       -1.34636163       0.23382342       1.44681489
H        0.95382472      -0.22284152       1.75817823
H        1.30335517      -2.33974829       0.81203496
H        2.45775465       0.10243103      -0.10177093
H        1.25914173      -0.48547490      -1.22294227
H        0.20710055       2.07915848       0.93983701
H        1.21857107       1.72370765      -1.20346824
17
Frame=16 idx=010324 GeodesicLength=1.520905827553462 rxn_smarts="[C:1]([C@@:2]1([H:11])[C@:3]([O:4][H:13])([H:12])[C:5]([H:14])([H:15])[C@:6]1([O:7][H:17])[H:16])([H:8])([H:9])[H:10]>>[C:1]([C@@:2]([C@@:3]([O:4][H:13])([C:5]([H:14])([H:15])[H:17])[H:12])([C:6](=[O:7])[H:16])[H:11])([H:8])([H:9])[H:10]"
C       -1.63996820      -0.46187138      -0.58463919
C       -0.78580581       0.12996036       0.51721463
C        0.57172708      -0.54356779       0.78230832
O        0.43091085      -1.94361263       0.77735873
C        1.38729652       0.13281353      -0.33441687
C       -0.18216103       1.46588492       0.11559262
O       -0.23965242       1.95853346      -1.09120271
H       -2.51272930       0.17087019      -0.75620081
H       -1.96139902      -1.46227003      -0.29585280
H       -1.12561327      -0.53924496      -1.54175591
H       -1.34741305       0.22149138       1.45050944
H        0.95701687      -0.21354608       1.75676696
H        1.30404384      -2.33740629       0.81673755
H        2.45666177       0.07894856      -0.11224484
H        1.24885626      -0.49568716      -1.22112782
H        0.19021807       2.08382166       0.94982471
H        1.24801085       1.75488227      -1.22887202
