14
Frame=0 idx=000657 GeodesicLength=0.0 rxn_smarts="[O:1]([C@@:2]1([H:8])[C:3]([H:9])([H:10])[C@@:4]2([H:11])[C:5]([H:12])([H:13])[C@@:6]12[H:14])[H:7]>>[O:1]([C:2]1=[C:6]([H:14])[C:5]([H:12])([H:13])[C:4]([H:8])([H:11])[C:3]1([H:9])[H:10])[H:7]"
O       -1.43894969       1.74197492       0.40429495
C       -0.68021413       0.63848122       0.27166977
C       -1.06684775      -0.64317575      -0.48325141
C        0.17409003      -1.46993632      -0.43181342
C        1.34484325      -0.46726734      -0.38871079
C        0.74447463       0.61445421       0.41879033
H       -0.91110425       2.54321390       0.32579711
H       -0.17898398       0.11280707       1.31440116
H       -1.32409525      -0.27792626      -1.48919741
H       -1.95571474      -1.11649380      -0.06869495
H        0.19226247      -2.11243088       0.45480735
H        1.59251811      -0.06248342      -1.38508692
H        2.26343720      -0.87289620       0.03458123
H        1.24428404       1.37167870       1.02241302
14
Frame=1 idx=000657 GeodesicLength=0.11340720377798924 rxn_smarts="[O:1]([C@@:2]1([H:8])[C:3]([H:9])([H:10])[C@@:4]2([H:11])[C:5]([H:12])([H:13])[C@@:6]12[H:14])[H:7]>>[O:1]([C:2]1=[C:6]([H:14])[C:5]([H:12])([H:13])[C:4]([H:8])([H:11])[C:3]1([H:9])[H:10])[H:7]"
O       -1.43612838       1.74976268       0.39904624
C       -0.68251358       0.63945672       0.28311906
C       -1.07032471      -0.63418690      -0.48325299
C        0.17511892      -1.45161914      -0.39494823
C        1.34859372      -0.45789397      -0.39695776
C        0.74199640       0.61152247       0.42295304
H       -0.90359521       2.54444262       0.29203925
H       -0.19408148       0.06557701       1.32778318
H       -1.31644447      -0.27633907      -1.49374014
H       -1.96230416      -1.10740642      -0.07509775
H        0.20159708      -2.12611669       0.46425834
H        1.57593585      -0.05464916      -1.39769546
H        2.27341408      -0.85873168       0.01672254
H        1.24873593       1.35618151       1.03577066
14
Frame=2 idx=000657 GeodesicLength=0.22682908464764895 rxn_smarts="[O:1]([C@@:2]1([H:8])[C:3]([H:9])([H:10])[C@@:4]2([H:11])[C:5]([H:12])([H:13])[C@@:6]12[H:14])[H:7]>>[O:1]([C:2]1=[C:6]([H:14])[C:5]([H:12])([H:13])[C:4]([H:8])([H:11])[C:3]1([H:9])[H:10])[H:7]"
O       -1.43299521       1.75786846       0.39328663
C       -0.68482794       0.64058031       0.29582484
C       -1.07341596      -0.62498638      -0.48233463
C        0.17615996      -1.43261210      -0.35859015
C        1.35169817      -0.44856726      -0.40438222
C        0.73963739       0.60914350       0.42745258
H       -0.89606930       2.54487996       0.25664829
H       -0.20985283       0.01872495       1.34143463
H       -1.30920311      -0.27467092      -1.49704363
H       -1.96814486      -1.09852350      -0.08037497
H        0.21150125      -2.14154854       0.46905661
H        1.55964709      -0.04726313      -1.40904016
H        2.28225653      -0.84494676       0.00011927
H        1.25360881       1.34192140       1.04794292
14
Frame=3 idx=000657 GeodesicLength=0.34025771740266963 rxn_smarts="[O:1]([C@@:2]1([H:8])[C:3]([H:9])([H:10])[C@@:4]2([H:11])[C:5]([H:12])([H:13])[C@@:6]12[H:14])[H:7]>>[O:1]([C:2]1=[C:6]([H:14])[C:5]([H:12])([H:13])[C:4]([H:8])([H:11])[C:3]1([H:9])[H:10])[H:7]"
O       -1.42956304       1.76624070       0.38698300
C       -0.68711160       0.64193397       0.30963519
C       -1.07610602      -0.61558436      -0.48046764
C        0.17723424      -1.41306727      -0.32253666
C        1.35419738      -0.43933814      -0.41096403
C        0.73742295       0.60738559       0.43219477
H       -0.88857926       2.54441733       0.21993463
H       -0.22643671      -0.02767871       1.35536247
H       -1.30229419      -0.27305617      -1.49916033
H       -1.97328024      -1.08976514      -0.08450602
H        0.22187164      -2.15845734       0.46898923
H        1.54364766      -0.04046549      -1.41920042
H        2.29006669      -0.83150967      -0.01520653
H        1.25893051       1.32894470       1.05894235
14
Frame=4 idx=000657 GeodesicLength=0.45368128518917594 rxn_smarts="[O:1]([C@@:2]1([H:8])[C:3]([H:9])([H:10])[C@@:4]2([H:11])[C:5]([H:12])([H:13])[C@@:6]12[H:14])[H:7]>>[O:1]([C:2]1=[C:6]([H:14])[C:5]([H:12])([H:13])[C:4]([H:8])([H:11])[C:3]1([H:9])[H:10])[H:7]"
O       -1.42585537       1.77481170       0.38013671
C       -0.68931331       0.64359330       0.32439687
C       -1.07837133      -0.60600243      -0.47763060
C        0.17837008      -1.39311817      -0.28656907
C        1.35613783      -0.43026818      -0.41668670
C        0.73538426       0.60631992       0.43707298
H       -0.88119219       2.54297103       0.18221967
H       -0.24397866      -0.07356294       1.36957415
H       -1.29562950      -0.27164234      -1.50014189
H       -1.97774368      -1.08106607      -0.08748032
H        0.23257864      -2.17650272       0.46382950
H        1.52793913      -0.03442485      -1.42825746
H        2.29694581      -0.81839951      -0.02923165
H        1.26472829       1.31729126       1.06876782
14
Frame=5 idx=000657 GeodesicLength=0.5670841674098592 rxn_smarts="[O:1]([C@@:2]1([H:8])[C:3]([H:9])([H:10])[C@@:4]2([H:11])[C:5]([H:12])([H:13])[C@@:6]12[H:14])[H:7]>>[O:1]([C:2]1=[C:6]([H:14])[C:5]([H:12])([H:13])[C:4]([H:8])([H:11])[C:3]1([H:9])[H:10])[H:7]"
O       -1.42190906       1.78350278       0.37278086
C       -0.69137600       0.64562533       0.33995798
C       -1.08017787      -0.59627467      -0.47381053
C        0.17960520      -1.37288262      -0.25045719
C        1.35757126      -0.42143089      -0.42153769
C        0.73355837       0.60601965       0.44196836
H       -0.87399325       2.54049128       0.14383618
H       -0.26263056      -0.11886092       1.38408089
H       -1.28910934      -0.27058803      -1.50003975
H       -1.98155639      -1.07237732      -0.08929837
H        0.24346452      -2.19527355       0.45334335
H        1.51252852      -0.02933957      -1.43629487
H        2.30299516      -0.80560739      -0.04193286
H        1.27102946       1.30699592       1.07740363
14
Frame=6 idx=000657 GeodesicLength=0.6804476728229508 rxn_smarts="[O:1]([C@@:2]1([H:8])[C:3]([H:9])([H:10])[C@@:4]2([H:11])[C:5]([H:12])([H:13])[C@@:6]12[H:14])[H:7]>>[O:1]([C:2]1=[C:6]([H:14])[C:5]([H:12])([H:13])[C:4]([H:8])([H:11])[C:3]1([H:9])[H:10])[H:7]"
O       -1.41777365       1.79222010       0.36496943
C       -0.69323850       0.64808490       0.35617291
C       -1.08148095      -0.58644718      -0.46899793
C        0.18098622      -1.35246175      -0.21395415
C        1.35855391      -0.41291248      -0.42550607
C        0.73198758       0.60655639       0.44675067
H       -0.86708075       2.53695033       0.10512195
H       -0.28255050      -0.16351541       1.39889463
H       -1.28262328      -0.27006094      -1.49889720
H       -1.98472758      -1.06366585      -0.08996827
H        0.25434069      -2.21426152       0.43727447
H        1.49742884      -0.02543589      -1.44339273
H        2.30831643      -0.79313661      -0.05328628
H        1.27786154       1.29808591       1.08481857
14
Frame=7 idx=000657 GeodesicLength=0.7937498147639092 rxn_smarts="[O:1]([C@@:2]1([H:8])[C:3]([H:9])([H:10])[C@@:4]2([H:11])[C:5]([H:12])([H:13])[C@@:6]12[H:14])[H:7]>>[O:1]([C:2]1=[C:6]([H:14])[C:5]([H:12])([H:13])[C:4]([H:8])([H:11])[C:3]1([H:9])[H:10])[H:7]"
O       -1.41350811       1.80086193       0.35678220
C       -0.69483514       0.65100882       0.37291228
C       -1.08222326      -0.57657903      -0.46319069
C        0.18257073      -1.33194820      -0.17681404
C        1.35914377      -0.40481003      -0.42858638
C        0.73071886       0.60799531       0.45128438
H       -0.86056583       2.53234862       0.06639655
H       -0.30390209      -0.20749822       1.41403084
H       -1.27605286      -0.27022825      -1.49675237
H       -1.98725188      -1.05492027      -0.08951222
H        0.26498620      -2.23284780       0.41538057
H        1.48265489      -0.02295729      -1.44962996
H        2.31301103      -0.78100216      -0.06327577
H        1.28525368       1.29057659       1.09097460
14
Frame=8 idx=000657 GeodesicLength=0.9069883663087243 rxn_smarts="[O:1]([C@@:2]1([H:8])[C:3]([H:9])([H:10])[C@@:4]2([H:11])[C:5]([H:12])([H:13])[C@@:6]12[H:14])[H:7]>>[O:1]([C:2]1=[C:6]([H:14])[C:5]([H:12])([H:13])[C:4]([H:8])([H:11])[C:3]1([H:9])[H:10])[H:7]"
O       -1.40919055       1.80931964       0.34830765
C       -0.69609535       0.65440966       0.39005859
C       -1.08234436      -0.56674830      -0.45640360
C        0.18443336      -1.31143981      -0.13879866
C        1.35940511      -0.39723257      -0.43077793
C        0.72981210       0.61039266       0.45542440
H       -0.85456943       2.52672456       0.02798905
H       -0.32684121      -0.25083641       1.42950012
H       -1.26929107      -0.27125328      -1.49364983
H       -1.98912210      -1.04616616      -0.08798040
H        0.27513270      -2.25025371       0.38747892
H        1.46822272      -0.02215867      -1.45508410
H        2.31719264      -0.76923108      -0.07188961
H        1.29325541       1.28447348       1.09582540
14
Frame=9 idx=000657 GeodesicLength=1.0200815957367353 rxn_smarts="[O:1]([C@@:2]1([H:8])[C:3]([H:9])([H:10])[C@@:4]2([H:11])[C:5]([H:12])([H:13])[C@@:6]12[H:14])[H:7]>>[O:1]([C:2]1=[C:6]([H:14])[C:5]([H:12])([H:13])[C:4]([H:8])([H:11])[C:3]1([H:9])[H:10])[H:7]"
O       -1.40483334       1.81745718       0.33974303
C       -0.69695159       0.65826064       0.40757979
C       -1.08173751      -0.55700479      -0.44864468
C        0.18663458      -1.29101396      -0.09975300
C        1.35937712      -0.39029026      -0.43212470
C        0.72929259       0.61374413       0.45906159
H       -0.84922209       2.51999396      -0.01000266
H       -0.35158405      -0.29362349       1.44528068
H       -1.26216824      -0.27322074      -1.48958742
H       -1.99026728      -1.03739251      -0.08543139
H        0.28454620      -2.26546556       0.35355482
H        1.45414602      -0.02324680      -1.45983468
H        2.32092310      -0.75787967      -0.07921062
H        1.30184449       1.27968187       1.09936924
14
Frame=10 idx=000657 GeodesicLength=1.1330649562654265 rxn_smarts="[O:1]([C@@:2]1([H:8])[C:3]([H:9])([H:10])[C@@:4]2([H:11])[C:5]([H:12])([H:13])[C@@:6]12[H:14])[H:7]>>[O:1]([C:2]1=[C:6]([H:14])[C:5]([H:12])([H:13])[C:4]([H:8])([H:11])[C:3]1([H:9])[H:10])[H:7]"
O       -1.40054929       1.82510899       0.33124785
C       -0.69731404       0.66247591       0.42535791
C       -1.08034820      -0.54744089      -0.44006539
C        0.18928012      -1.27079686      -0.05965957
C        1.35913653      -0.38409940      -0.43271083
C        0.72924880       0.61804089       0.46199246
H       -0.84466406       2.51224442      -0.04707922
H       -0.37824532      -0.33613085       1.46123409
H       -1.25463255      -0.27618836      -1.48470536
H       -1.99068086      -1.02870289      -0.08210744
H        0.29285153      -2.27719800       0.31428038
H        1.44045375      -0.02641829      -1.46400064
H        2.32433508      -0.74700342      -0.08531717
H        1.31112851       1.27610874       1.10153293
14
Frame=11 idx=000657 GeodesicLength=1.24592176485089 rxn_smarts="[O:1]([C@@:2]1([H:8])[C:3]([H:9])([H:10])[C@@:4]2([H:11])[C:5]([H:12])([H:13])[C@@:6]12[H:14])[H:7]>>[O:1]([C:2]1=[C:6]([H:14])[C:5]([H:12])([H:13])[C:4]([H:8])([H:11])[C:3]1([H:9])[H:10])[H:7]"
O       -1.39635089       1.83206313       0.32320775
C       -0.69711104       0.66688965       0.44338319
C       -1.07810016      -0.53804337      -0.43087547
C        0.19243105      -1.25085479      -0.01881228
C        1.35875092      -0.37872867      -0.43275864
C        0.72971862       0.62315206       0.46403874
H       -0.84105602       2.50334561      -0.08302654
H       -0.40703861      -0.37883808       1.47702330
H       -1.24657442      -0.27995578      -1.47912335
H       -1.99032008      -1.02010535      -0.07834626
H        0.29980572      -2.28400858       0.27125706
H        1.42721885      -0.03166723      -1.46774657
H        2.32750873      -0.73668675      -0.09051822
H        1.32111731       1.27343816       1.10229730
14
Frame=12 idx=000657 GeodesicLength=1.3586914665635237 rxn_smarts="[O:1]([C@@:2]1([H:8])[C:3]([H:9])([H:10])[C@@:4]2([H:11])[C:5]([H:12])([H:13])[C@@:6]12[H:14])[H:7]>>[O:1]([C:2]1=[C:6]([H:14])[C:5]([H:12])([H:13])[C:4]([H:8])([H:11])[C:3]1([H:9])[H:10])[H:7]"
O       -1.39226526       1.83813311       0.31607923
C       -0.69624246       0.67129631       0.46160751
C       -1.07499377      -0.52876323      -0.42147810
C        0.19613503      -1.23123535       0.02220619
C        1.35828998      -0.37419829      -0.43258393
C        0.73077211       0.62894682       0.46496008
H       -0.83857719       2.49329774      -0.11736695
H       -0.43803845      -0.42244457       1.49207542
H       -1.23802767      -0.28416921      -1.47316061
H       -1.98918657      -1.01165210      -0.07472912
H        0.30523111      -2.28467406       0.22723438
H        1.41447299      -0.03887065      -1.47132345
H        2.33052616      -0.72700352      -0.09516964
H        1.33190400       1.27133698       1.10164898
14
Frame=13 idx=000657 GeodesicLength=1.4714451862065672 rxn_smarts="[O:1]([C@@:2]1([H:8])[C:3]([H:9])([H:10])[C@@:4]2([H:11])[C:5]([H:12])([H:13])[C@@:6]12[H:14])[H:7]>>[O:1]([C:2]1=[C:6]([H:14])[C:5]([H:12])([H:13])[C:4]([H:8])([H:11])[C:3]1([H:9])[H:10])[H:7]"
O       -1.38832626       1.84316359       0.31047353
C       -0.69465299       0.67550324       0.48002550
C       -1.07102630      -0.51940229      -0.41227954
C        0.20036772      -1.21182449       0.06267072
C        1.35785423      -0.37047801      -0.43259339
C        0.73240940       0.63529502       0.46444295
H       -0.83746222       2.48208605      -0.14961214
H       -0.47145470      -0.46768555       1.50560154
H       -1.22890410      -0.28825274      -1.46711120
H       -1.98729138      -1.00322992      -0.07182536
H        0.30921117      -2.27874624       0.18555856
H        1.40239301      -0.04783217      -1.47504681
H        2.33342755      -0.71803675      -0.09973699
H        1.34345487       1.26944026       1.09943263
14
Frame=14 idx=000657 GeodesicLength=1.5842143896633927 rxn_smarts="[O:1]([C@@:2]1([H:8])[C:3]([H:9])([H:10])[C@@:4]2([H:11])[C:5]([H:12])([H:13])[C@@:6]12[H:14])[H:7]>>[O:1]([C:2]1=[C:6]([H:14])[C:5]([H:12])([H:13])[C:4]([H:8])([H:11])[C:3]1([H:9])[H:10])[H:7]"
O       -1.38465470       1.84721608       0.30685726
C       -0.69225488       0.67944993       0.49861360
C       -1.06627749      -0.50981755      -0.40367918
C        0.20511592      -1.19250925       0.10212052
C        1.35753443      -0.36756084      -0.43302896
C        0.73467919       0.64226122       0.46218524
H       -0.83799426       2.47011118      -0.17912225
H       -0.50723217      -0.51517525       1.51687185
H       -1.21929746      -0.29177771      -1.46138329
H       -1.98469451      -0.99481524      -0.07019507
H        0.31189442      -2.26678528       0.14886634
H        1.39102634      -0.05852261      -1.47918392
H        2.33629158      -0.70986040      -0.10435901
H        1.35586358       1.26778572       1.09543686
14
Frame=15 idx=000657 GeodesicLength=1.697016336332505 rxn_smarts="[O:1]([C@@:2]1([H:8])[C:3]([H:9])([H:10])[C@@:4]2([H:11])[C:5]([H:12])([H:13])[C@@:6]12[H:14])[H:7]>>[O:1]([C:2]1=[C:6]([H:14])[C:5]([H:12])([H:13])[C:4]([H:8])([H:11])[C:3]1([H:9])[H:10])[H:7]"
O       -1.38136821       1.85033276       0.30562432
C       -0.68898851       0.68313539       0.51739918
C       -1.06077578      -0.49981952      -0.39583238
C        0.21031215      -1.17302651       0.14045362
C        1.35740754      -0.36545078      -0.43397273
C        0.73756205       0.64996617       0.45787935
H       -0.84043711       2.45768870      -0.20543431
H       -0.54541773      -0.56526764       1.52517408
H       -1.20913550      -0.29441034      -1.45612290
H       -1.98144062      -0.98624027      -0.07011454
H        0.31352668      -2.24986708       0.11856113
H        1.38049714      -0.07109577      -1.48383364
H        2.33914216      -0.70250129      -0.10901804
H        1.36911575       1.26655619       1.08923686
14
Frame=16 idx=000657 GeodesicLength=1.8098459074569295 rxn_smarts="[O:1]([C@@:2]1([H:8])[C:3]([H:9])([H:10])[C@@:4]2([H:11])[C:5]([H:12])([H:13])[C@@:6]12[H:14])[H:7]>>[O:1]([C:2]1=[C:6]([H:14])[C:5]([H:12])([H:13])[C:4]([H:8])([H:11])[C:3]1([H:9])[H:10])[H:7]"
O       -1.37858851       1.85259108       0.30703707
C       -0.68478831       0.68660797       0.53643067
C       -1.05454698      -0.48926957      -0.38876066
C        0.21589197      -1.15312172       0.17784812
C        1.35751975      -0.36419403      -0.43534038
C        0.74102280       0.65856823       0.45127331
H       -0.84502055       2.44516968      -0.22819422
H       -0.58592781      -0.61817469       1.52985980
H       -1.19836538      -0.29597844      -1.45137366
H       -1.97757524      -0.97734809      -0.07171144
H        0.31430962      -2.22912687       0.09502886
H        1.37087344      -0.08585957      -1.48894942
H        2.34199709      -0.69597367      -0.11349520
H        1.38319811       1.26610971       1.08034715
