14
Frame=0 idx=001387 GeodesicLength=0.0 rxn_smarts="[C:1]([C:2](=[O:3])[C:4]1([H:10])[C:5]([H:11])([H:12])[C:6]1([H:13])[H:14])([H:7])([H:8])[H:9]>>[C:1](=[C:2]([O:3][H:8])[C:4]1([H:10])[C:5]([H:11])([H:12])[C:6]1([H:13])[H:14])([H:7])[H:9]"
C       -2.17883035       0.04700534       0.33507772
C       -0.77849297       0.26380112       0.29036408
O       -0.47876900       1.16755926       1.15625302
C        0.25904168      -0.40267172      -0.48649264
C        1.53053154       0.37659006      -0.76190426
C        1.56503169      -0.73911446       0.20704249
H       -2.61513002      -0.89556535       0.02101465
H       -1.66879707       0.88370014       1.44510171
H       -2.72955168       0.91891898      -0.01712269
H       -0.09091470      -1.07958819      -1.25269307
H        1.56321600       1.38500445      -0.37427293
H        1.97131143       0.23534131      -1.73906099
H        2.03533460      -1.66885644      -0.08220088
H        1.61601880      -0.49212451       1.25889380
14
Frame=1 idx=001387 GeodesicLength=0.04456924192964622 rxn_smarts="[C:1]([C:2](=[O:3])[C:4]1([H:10])[C:5]([H:11])([H:12])[C:6]1([H:13])[H:14])([H:7])([H:8])[H:9]>>[C:1](=[C:2]([O:3][H:8])[C:4]1([H:10])[C:5]([H:11])([H:12])[C:6]1([H:13])[H:14])([H:7])[H:9]"
C       -2.17617100       0.04661743       0.33385563
C       -0.78044767       0.28744697       0.26882716
O       -0.47645019       1.17021448       1.15471964
C        0.25925999      -0.39766106      -0.49039470
C        1.53515589       0.37297961      -0.76676933
C        1.55998346      -0.73647130       0.21047840
H       -2.59922536      -0.89412304      -0.00298536
H       -1.66928682       0.86254591       1.46575931
H       -2.74939899       0.91548488       0.01185086
H       -0.09243384      -1.08061652      -1.25047604
H        1.57225406       1.38348994      -0.38475222
H        1.98000009       0.22242395      -1.74074510
H        2.02734430      -1.67039392      -0.06994281
H        1.60941607      -0.48193732       1.26057456
14
Frame=2 idx=001387 GeodesicLength=0.08905258557723005 rxn_smarts="[C:1]([C:2](=[O:3])[C:4]1([H:10])[C:5]([H:11])([H:12])[C:6]1([H:13])[H:14])([H:7])([H:8])[H:9]>>[C:1](=[C:2]([O:3][H:8])[C:4]1([H:10])[C:5]([H:11])([H:12])[C:6]1([H:13])[H:14])([H:7])[H:9]"
C       -2.17331068       0.04676155       0.33180419
C       -0.78227634       0.30980856       0.24914841
O       -0.47415224       1.17209738       1.15379452
C        0.25925816      -0.39303809      -0.49328414
C        1.53900588       0.36944199      -0.77166240
C        1.55539746      -0.73353915       0.21391994
H       -2.58450133      -0.89079516      -0.02782830
H       -1.66959839       0.84032138       1.48587852
H       -2.76700383       0.91206926       0.03918437
H       -0.09428109      -1.08214409      -1.24700373
H        1.58031143       1.38206849      -0.39543907
H        1.98713800       0.20968282      -1.74272380
H        2.01995054      -1.67140034      -0.05792711
H        1.60406243      -0.47133462       1.26213861
14
Frame=3 idx=001387 GeodesicLength=0.13326267654148496 rxn_smarts="[C:1]([C:2](=[O:3])[C:4]1([H:10])[C:5]([H:11])([H:12])[C:6]1([H:13])[H:14])([H:7])([H:8])[H:9]>>[C:1](=[C:2]([O:3][H:8])[C:4]1([H:10])[C:5]([H:11])([H:12])[C:6]1([H:13])[H:14])([H:7])[H:9]"
C       -2.17032305       0.04742630       0.32904260
C       -0.78389704       0.33076086       0.23138304
O       -0.47182531       1.17315093       1.15356398
C        0.25906833      -0.38883052      -0.49521599
C        1.54209195       0.36599548      -0.77652724
C        1.55128982      -0.73036853       0.21730659
H       -2.57091570      -0.88577825      -0.05314079
H       -1.66991997       0.81744045       1.50523345
H       -2.78242868       0.90870796       0.06459887
H       -0.09646327      -1.08412595      -1.24236697
H        1.58740538       1.38071409      -0.40618524
H        1.99275508       0.19722923      -1.74492784
H        2.01318916      -1.67187769      -0.04629051
H        1.59997330      -0.46044435       1.26352604
14
Frame=4 idx=001387 GeodesicLength=0.17753262385074675 rxn_smarts="[C:1]([C:2](=[O:3])[C:4]1([H:10])[C:5]([H:11])([H:12])[C:6]1([H:13])[H:14])([H:7])([H:8])[H:9]>>[C:1](=[C:2]([O:3][H:8])[C:4]1([H:10])[C:5]([H:11])([H:12])[C:6]1([H:13])[H:14])([H:7])[H:9]"
C       -2.16732593       0.04856582       0.32574463
C       -0.78533462       0.35047752       0.21529510
O       -0.46954123       1.17354085       1.15393486
C        0.25875890      -0.38500799      -0.49634171
C        1.54456921       0.36261156      -0.78141903
C        1.54768295      -0.72701789       0.22066024
H       -2.55835749      -0.87920464      -0.07897580
H       -1.67038118       0.79392091       1.52402263
H       -2.79617895       0.90548900       0.08840993
H       -0.09888841      -1.08654201      -1.23672265
H        1.59368249       1.37943034      -0.41706152
H        1.99714084       0.18498771      -1.74739470
H        2.00711181      -1.67194741      -0.03493834
H        1.59706161      -0.44930377       1.26478637
14
Frame=5 idx=001387 GeodesicLength=0.2217189282392974 rxn_smarts="[C:1]([C:2](=[O:3])[C:4]1([H:10])[C:5]([H:11])([H:12])[C:6]1([H:13])[H:14])([H:7])([H:8])[H:9]>>[C:1](=[C:2]([O:3][H:8])[C:4]1([H:10])[C:5]([H:11])([H:12])[C:6]1([H:13])[H:14])([H:7])[H:9]"
C       -2.16429579       0.05011194       0.32203324
C       -0.78657915       0.36919207       0.20064601
O       -0.46730402       1.17337609       1.15482724
C        0.25834886      -0.38144558      -0.49680990
C        1.54655406       0.35928983      -0.78631604
C        1.54445944      -0.72354463       0.22396777
H       -2.54658415      -0.87133777      -0.10488191
H       -1.67105752       0.76989138       1.54210754
H       -2.80848300       0.90224572       0.11070802
H       -0.10153164      -1.08918926      -1.23027384
H        1.59932919       1.37818052      -0.42799290
H        2.00051721       0.17296259      -1.75006678
H        2.00153137      -1.67170009      -0.02386949
H        1.59509515      -0.43803280       1.26592107
14
Frame=6 idx=001387 GeodesicLength=0.26569955227055925 rxn_smarts="[C:1]([C:2](=[O:3])[C:4]1([H:10])[C:5]([H:11])([H:12])[C:6]1([H:13])[H:14])([H:7])([H:8])[H:9]>>[C:1](=[C:2]([O:3][H:8])[C:4]1([H:10])[C:5]([H:11])([H:12])[C:6]1([H:13])[H:14])([H:7])[H:9]"
C       -2.16126104       0.05199393       0.31804163
C       -0.78760142       0.38689767       0.18734766
O       -0.46502482       1.17268230       1.15608197
C        0.25783860      -0.37812220      -0.49667822
C        1.54809938       0.35602915      -0.79114029
C        1.54155273      -0.71995098       0.22717665
H       -2.53555112      -0.86236369      -0.13060972
H       -1.67198003       0.74558265       1.55940392
H       -2.81940026       0.89888766       0.13144563
H       -0.10443417      -1.09196516      -1.22308077
H        1.60445764       1.37690903      -0.43886852
H        2.00298994       0.16121185      -1.75278330
H        1.99636186      -1.67108251      -0.01316682
H        1.59395269      -0.42670970       1.26683019
14
Frame=7 idx=001387 GeodesicLength=0.3097118745444122 rxn_smarts="[C:1]([C:2](=[O:3])[C:4]1([H:10])[C:5]([H:11])([H:12])[C:6]1([H:13])[H:14])([H:7])([H:8])[H:9]>>[C:1](=[C:2]([O:3][H:8])[C:4]1([H:10])[C:5]([H:11])([H:12])[C:6]1([H:13])[H:14])([H:7])[H:9]"
C       -2.15824718       0.05417010       0.31388043
C       -0.78844051       0.40380362       0.17522112
O       -0.46277511       1.17163842       1.15775483
C        0.25727392      -0.37496944      -0.49611538
C        1.54931326       0.35283121      -0.79592785
C        1.53897505      -0.71636037       0.23029220
H       -2.52502494      -0.85262606      -0.15584997
H       -1.67333742       0.72125071       1.57604076
H       -2.82932807       0.89546801       0.15062838
H       -0.10751388      -1.09477937      -1.21543306
H        1.60917302       1.37565273      -0.44963349
H        2.00475935       0.14972498      -1.75563527
H        1.99162613      -1.67031089      -0.00285040
H        1.59354639      -0.41549366       1.26762769
14
Frame=8 idx=001387 GeodesicLength=0.35369973905602425 rxn_smarts="[C:1]([C:2](=[O:3])[C:4]1([H:10])[C:5]([H:11])([H:12])[C:6]1([H:13])[H:14])([H:7])([H:8])[H:9]>>[C:1](=[C:2]([O:3][H:8])[C:4]1([H:10])[C:5]([H:11])([H:12])[C:6]1([H:13])[H:14])([H:7])[H:9]"
C       -2.15523520       0.05660437       0.30958043
C       -0.78910250       0.42006592       0.16405586
O       -0.46054394       1.17029744       1.15971355
C        0.25665724      -0.37194426      -0.49516968
C        1.55024916       0.34966788      -0.80069155
C        1.53664807      -0.71271913       0.23334618
H       -2.51494759      -0.84207994      -0.18078454
H       -1.67500850       0.69662902       1.59207830
H       -2.83839582       0.89194626       0.16862320
H       -0.11075895      -1.09761983      -1.20732500
H        1.61355514       1.37438845      -0.46037810
H        2.00593971       0.13839222      -1.75856525
H        1.98719486      -1.66935591       0.00722003
H        1.59374831      -0.40427249       1.26829659
14
Frame=9 idx=001387 GeodesicLength=0.3976692414770234 rxn_smarts="[C:1]([C:2](=[O:3])[C:4]1([H:10])[C:5]([H:11])([H:12])[C:6]1([H:13])[H:14])([H:7])([H:8])[H:9]>>[C:1](=[C:2]([O:3][H:8])[C:4]1([H:10])[C:5]([H:11])([H:12])[C:6]1([H:13])[H:14])([H:7])[H:9]"
C       -2.15222327       0.05927358       0.30517400
C       -0.78960271       0.43580051       0.15370314
O       -0.45834662       1.16871185       1.16188297
C        0.25599917      -0.36901636      -0.49388688
C        1.55094969       0.34650900      -0.80544871
C        1.53454243      -0.70900603       0.23636007
H       -2.50526785      -0.83070088      -0.20554767
H       -1.67694082       0.67156415       1.60757223
H       -2.84675176       0.88831868       0.18569837
H       -0.11414475      -1.10047530      -1.19876907
H        1.61765068       1.37309063      -0.47116565
H        2.00662206       0.12712901      -1.76154953
H        1.98302682      -1.66821585       0.01714003
H        1.59448694      -0.39298300       1.26883669
14
Frame=10 idx=001387 GeodesicLength=0.4416475536953901 rxn_smarts="[C:1]([C:2](=[O:3])[C:4]1([H:10])[C:5]([H:11])([H:12])[C:6]1([H:13])[H:14])([H:7])([H:8])[H:9]>>[C:1](=[C:2]([O:3][H:8])[C:4]1([H:10])[C:5]([H:11])([H:12])[C:6]1([H:13])[H:14])([H:7])[H:9]"
C       -2.14919943       0.06215257       0.30069024
C       -0.78994630       0.45110923       0.14404665
O       -0.45618138       1.16694589       1.16422221
C        0.25530622      -0.36615270      -0.49232393
C        1.55145439       0.34334939      -0.81020435
C        1.53261563      -0.70522448       0.23934764
H       -2.49590923      -0.81854516      -0.23009816
H       -1.67911064       0.64600107       1.62254733
H       -2.85450315       0.88456004       0.20197235
H       -0.11765683      -1.10332032      -1.18983651
H        1.62151714       1.37176575      -0.48200615
H        2.00688133       0.11589885      -1.76458012
H        1.97905279      -1.66692616       0.02695751
H        1.59567944      -0.38161398       1.26926531
14
Frame=11 idx=001387 GeodesicLength=0.48561939827224976 rxn_smarts="[C:1]([C:2](=[O:3])[C:4]1([H:10])[C:5]([H:11])([H:12])[C:6]1([H:13])[H:14])([H:7])([H:8])[H:9]>>[C:1](=[C:2]([O:3][H:8])[C:4]1([H:10])[C:5]([H:11])([H:12])[C:6]1([H:13])[H:14])([H:7])[H:9]"
C       -2.14616213       0.06522221       0.29618018
C       -0.79014037       0.46603380       0.13503921
O       -0.45403813       1.16503454       1.16670618
C        0.25458345      -0.36332716      -0.49052303
C        1.55179600       0.34019136      -0.81494424
C        1.53085022      -0.70140623       0.24229129
H       -2.48680664      -0.80576353      -0.25425349
H       -1.68158463       0.62007403       1.63698561
H       -2.86170917       0.88065357       0.21739794
H       -0.12129308      -1.10609207      -1.18059509
H        1.62520684       1.37039938      -0.49285206
H        2.00677172       0.10473404      -1.76763953
H        1.97525460      -1.66551415       0.03663113
H        1.59727134      -0.37023978       1.26957589
14
Frame=12 idx=001387 GeodesicLength=0.5295784970132325 rxn_smarts="[C:1]([C:2](=[O:3])[C:4]1([H:10])[C:5]([H:11])([H:12])[C:6]1([H:13])[H:14])([H:7])([H:8])[H:9]>>[C:1](=[C:2]([O:3][H:8])[C:4]1([H:10])[C:5]([H:11])([H:12])[C:6]1([H:13])[H:14])([H:7])[H:9]"
C       -2.14309519       0.06846518       0.29167660
C       -0.79017685       0.48061978       0.12662201
O       -0.45188698       1.16301477       1.16930102
C        0.25383365      -0.36051321      -0.48852999
C        1.55199638       0.33704077      -0.81964518
C        1.52921094      -0.69757483       0.24517446
H       -2.47787255      -0.79252238      -0.27781689
H       -1.68440490       0.59389088       1.65087070
H       -2.86842275       0.87659094       0.23192877
H       -0.12505482      -1.10873551      -1.17112340
H        1.62876756       1.36898462      -0.50364427
H        2.00632937       0.09366244      -1.77069643
H        1.97158096      -1.66400277       0.04612163
H        1.59919518      -0.35892069       1.26976097
14
Frame=13 idx=001387 GeodesicLength=0.5736007518158097 rxn_smarts="[C:1]([C:2](=[O:3])[C:4]1([H:10])[C:5]([H:11])([H:12])[C:6]1([H:13])[H:14])([H:7])([H:8])[H:9]>>[C:1](=[C:2]([O:3][H:8])[C:4]1([H:10])[C:5]([H:11])([H:12])[C:6]1([H:13])[H:14])([H:7])[H:9]"
C       -2.14001957       0.07188984       0.28717541
C       -0.79008503       0.49492802       0.11872426
O       -0.44977946       1.16090478       1.17202608
C        0.25307145      -0.35772794      -0.48634864
C        1.55206757       0.33386896      -0.82436070
C        1.52772751      -0.69370328       0.24803609
H       -2.46913629      -0.77868333      -0.30109996
H       -1.68753344       0.56723691       1.66431246
H       -2.87474178       0.87244950       0.24581276
H       -0.12890098      -1.11132873      -1.16137575
H        1.63217448       1.36752538      -0.51450100
H        2.00559303       0.08258457      -1.77379939
H        1.96808718      -1.66239433       0.05554595
H        1.60147533      -0.34755036       1.26985242
14
Frame=14 idx=001387 GeodesicLength=0.6175478946343346 rxn_smarts="[C:1]([C:2](=[O:3])[C:4]1([H:10])[C:5]([H:11])([H:12])[C:6]1([H:13])[H:14])([H:7])([H:8])[H:9]>>[C:1](=[C:2]([O:3][H:8])[C:4]1([H:10])[C:5]([H:11])([H:12])[C:6]1([H:13])[H:14])([H:7])[H:9]"
C       -2.13690229       0.07548743       0.28269434
C       -0.78983639       0.50899768       0.11132339
O       -0.44766025       1.15868720       1.17484496
C        0.25228664      -0.35493031      -0.48398463
C        1.55202101       0.33068768      -0.82905854
C        1.52634369      -0.68978766       0.25085364
H       -2.46052233      -0.76432026      -0.32385905
H       -1.69100008       0.54014659       1.67717504
H       -2.88063415       0.86813876       0.25896726
H       -0.13286107      -1.11380312      -1.15135749
H        1.63548990       1.36600329      -0.52536939
H        2.00456279       0.07153153      -1.77689748
H        1.96466366      -1.66067456       0.06486745
H        1.60404885      -0.33616424       1.26980051
14
Frame=15 idx=001387 GeodesicLength=0.6614374609930967 rxn_smarts="[C:1]([C:2](=[O:3])[C:4]1([H:10])[C:5]([H:11])([H:12])[C:6]1([H:13])[H:14])([H:7])([H:8])[H:9]>>[C:1](=[C:2]([O:3][H:8])[C:4]1([H:10])[C:5]([H:11])([H:12])[C:6]1([H:13])[H:14])([H:7])[H:9]"
C       -2.13372942       0.07922437       0.27829242
C       -0.78943985       0.52283698       0.10436427
O       -0.44549093       1.15644990       1.17765631
C        0.25147669      -0.35209382      -0.48150829
C        1.55188599       0.32750859      -0.83369015
C        1.52501635      -0.68587137       0.25359820
H       -2.45196772      -0.74974455      -0.34579965
H       -1.69483264       0.51284671       1.68948017
H       -2.88612464       0.86367037       0.27129026
H       -0.13694557      -1.11605365      -1.14122167
H        1.63877225       1.36440100      -0.53613807
H        2.00329974       0.06058042      -1.77992929
H        1.96127533      -1.65886790       0.07399870
H        1.60680441      -0.32488704       1.26960679
14
Frame=16 idx=001387 GeodesicLength=0.705353575779208 rxn_smarts="[C:1]([C:2](=[O:3])[C:4]1([H:10])[C:5]([H:11])([H:12])[C:6]1([H:13])[H:14])([H:7])([H:8])[H:9]>>[C:1](=[C:2]([O:3][H:8])[C:4]1([H:10])[C:5]([H:11])([H:12])[C:6]1([H:13])[H:14])([H:7])[H:9]"
C       -2.13052570       0.08312706       0.27397881
C       -0.78891285       0.53648855       0.09783741
O       -0.44331509       1.15420828       1.18055422
C        0.25066248      -0.34923012      -0.47893352
C        1.55167382       0.32433113      -0.83830104
C        1.52378952      -0.68198452       0.25628150
H       -2.44342817      -0.73500369      -0.36696326
H       -1.69912549       0.48532999       1.70131331
H       -2.89130798       0.85915832       0.28278415
H       -0.14111051      -1.11812363      -1.13098976
H        1.64199565       1.36275475      -0.54685269
H        2.00182626       0.04970783      -1.78298081
H        1.95799611      -1.65703694       0.08295383
H        1.60978196      -0.31372701       1.26931785
