13
Frame=0 idx=008348 GeodesicLength=0.0 rxn_smarts="[O:1]([C@@:2]([C:3]([C:4]#[C:5][H:12])([H:10])[H:11])([C:6]#[C:7][H:13])[H:9])[H:8]>>[O:1]([C:2]([C:3]([C:4]#[C:5][H:12])([H:10])[H:11])=[C:6]=[C:7]([H:9])[H:13])[H:8]"
O       -0.22748196      -0.46061592       1.64516797
C        0.42607592      -0.14629716       0.49126937
C       -0.36311006      -0.54355653      -0.75331207
C       -1.49288318       0.35810609      -0.95654748
C       -2.42193741       1.09104970      -1.12653691
C        1.27384933       1.09955571       0.50155902
C        2.08553895       0.07369053       0.46441429
H       -0.05554227       0.24793291       2.27621167
H        1.39204251      -1.04466072       0.33851035
H       -0.73253990      -1.56632927      -0.64412865
H        0.29982407      -0.50635320      -1.61822944
H       -3.24236115       1.75165964      -1.27870936
H        3.05852509      -0.35418172       0.66033118
13
Frame=1 idx=008348 GeodesicLength=0.11483367634309284 rxn_smarts="[O:1]([C@@:2]([C:3]([C:4]#[C:5][H:12])([H:10])[H:11])([C:6]#[C:7][H:13])[H:9])[H:8]>>[O:1]([C:2]([C:3]([C:4]#[C:5][H:12])([H:10])[H:11])=[C:6]=[C:7]([H:9])[H:13])[H:8]"
O       -0.23838646      -0.46916690       1.64567857
C        0.42061019      -0.16122202       0.49137308
C       -0.37455389      -0.55051122      -0.75177833
C       -1.50531131       0.35154890      -0.94866795
C       -2.42525152       1.09621159      -1.11796089
C        1.26823363       1.07577923       0.49400737
C        2.11042995       0.07939227       0.46410964
H       -0.08483598       0.25061550       2.26832421
H        1.41413343      -1.05741726       0.34416643
H       -0.74451941      -1.57338232      -0.64520930
H        0.28493692      -0.51174347      -1.61934871
H       -3.22443837       1.77887240      -1.28548814
H        3.09895282      -0.30897669       0.66079401
13
Frame=2 idx=008348 GeodesicLength=0.22966287832846077 rxn_smarts="[O:1]([C@@:2]([C:3]([C:4]#[C:5][H:12])([H:10])[H:11])([C:6]#[C:7][H:13])[H:9])[H:8]>>[O:1]([C:2]([C:3]([C:4]#[C:5][H:12])([H:10])[H:11])=[C:6]=[C:7]([H:9])[H:13])[H:8]"
O       -0.24925382      -0.47829806       1.64683980
C        0.41509653      -0.17694634       0.49208674
C       -0.38666262      -0.55659224      -0.74966438
C       -1.51735037       0.34730491      -0.93946024
C       -2.42726914       1.10468392      -1.10728891
C        1.26415879       1.05016221       0.48775063
C        2.13624114       0.08453306       0.46381729
H       -0.11354157       0.25212537       2.26080471
H        1.43649884      -1.07088117       0.35016306
H       -0.75827605      -1.57919527      -0.64617096
H        0.26931802      -0.51653241      -1.61992470
H       -3.20872278       1.80163622      -1.29802108
H        3.13976303      -0.26200021       0.65906805
13
Frame=3 idx=008348 GeodesicLength=0.34447859387208457 rxn_smarts="[O:1]([C@@:2]([C:3]([C:4]#[C:5][H:12])([H:10])[H:11])([C:6]#[C:7][H:13])[H:9])[H:8]>>[O:1]([C:2]([C:3]([C:4]#[C:5][H:12])([H:10])[H:11])=[C:6]=[C:7]([H:9])[H:13])[H:8]"
O       -0.26196660      -0.48690614       1.64735260
C        0.40853262      -0.19354834       0.49232247
C       -0.39875720      -0.56463363      -0.74828363
C       -1.52905627       0.34107555      -0.93279523
C       -2.42880708       1.11062013      -1.10095509
C        1.25940487       1.02345174       0.48064697
C        2.16177032       0.09083188       0.46376251
H       -0.14468777       0.25456887       2.25141614
H        1.45924697      -1.08428013       0.35794102
H       -0.77216644      -1.58682612      -0.64711535
H        0.25448538      -0.52419351      -1.62067315
H       -3.18771544       1.82982820      -1.30019265
H        3.17971663      -0.20998849       0.65657339
13
Frame=4 idx=008348 GeodesicLength=0.45926989013649694 rxn_smarts="[O:1]([C@@:2]([C:3]([C:4]#[C:5][H:12])([H:10])[H:11])([C:6]#[C:7][H:13])[H:9])[H:8]>>[O:1]([C:2]([C:3]([C:4]#[C:5][H:12])([H:10])[H:11])=[C:6]=[C:7]([H:9])[H:13])[H:8]"
O       -0.27461821      -0.49633191       1.64864558
C        0.40196233      -0.21113678       0.49334664
C       -0.41152021      -0.57158750      -0.74619948
C       -1.54024751       0.33756304      -0.92446791
C       -2.42891539       1.12022644      -1.09196099
C        1.25637477       0.99458831       0.47523474
C        2.18834721       0.09645117       0.46386430
H       -0.17496152       0.25545771       2.24266798
H        1.48235422      -1.09855342       0.36618796
H       -0.78796590      -1.59296616      -0.64802141
H        0.23890894      -0.53093088      -1.62076695
H       -3.16946410       1.85315470      -1.30967787
H        3.21974537      -0.15593473       0.65114740
13
Frame=5 idx=008348 GeodesicLength=0.5740247466400444 rxn_smarts="[O:1]([C@@:2]([C:3]([C:4]#[C:5][H:12])([H:10])[H:11])([C:6]#[C:7][H:13])[H:9])[H:8]>>[O:1]([C:2]([C:3]([C:4]#[C:5][H:12])([H:10])[H:11])=[C:6]=[C:7]([H:9])[H:13])[H:8]"
O       -0.28883783      -0.50536424       1.64948221
C        0.39451702      -0.22974478       0.49407554
C       -0.42438218      -0.58011407      -0.74464360
C       -1.55103907       0.33276984      -0.91805383
C       -2.42865713       1.12790972      -1.08602143
C        1.25317313       0.96422550       0.46929499
C        2.21489896       0.10300738       0.46409376
H       -0.20696721       0.25695941       2.23231747
H        1.50591989      -1.11293850       0.37622866
H       -0.80421164      -1.60047727      -0.64890352
H        0.22385674      -0.54006731      -1.62095013
H       -3.14661180       1.88075038      -1.31147119
H        3.25834112      -0.09691606       0.64455107
13
Frame=6 idx=008348 GeodesicLength=0.6887321650572245 rxn_smarts="[O:1]([C@@:2]([C:3]([C:4]#[C:5][H:12])([H:10])[H:11])([C:6]#[C:7][H:13])[H:9])[H:8]>>[O:1]([C:2]([C:3]([C:4]#[C:5][H:12])([H:10])[H:11])=[C:6]=[C:7]([H:9])[H:13])[H:8]"
O       -0.30334461      -0.51499127       1.65087937
C        0.38699953      -0.24947471       0.49548800
C       -0.43769083      -0.58773520      -0.74260706
C       -1.56094141       0.33057785      -0.91057154
C       -2.42660332       1.13900053      -1.07819803
C        1.25172451       0.93145225       0.46493308
C        2.24251016       0.10892620       0.46467149
H       -0.23832251       0.25723603       2.22231249
H        1.52991513      -1.12831840       0.38720230
H       -0.82225401      -1.60661017      -0.64991859
H        0.20847043      -0.54861475      -1.62057358
H       -3.12667216       1.90402455      -1.31859283
H        3.29620908      -0.03547291       0.63497491
13
Frame=7 idx=008348 GeodesicLength=0.8033873009516506 rxn_smarts="[O:1]([C@@:2]([C:3]([C:4]#[C:5][H:12])([H:10])[H:11])([C:6]#[C:7][H:13])[H:9])[H:8]>>[O:1]([C:2]([C:3]([C:4]#[C:5][H:12])([H:10])[H:11])=[C:6]=[C:7]([H:9])[H:13])[H:8]"
O       -0.31935461      -0.52459461       1.65214168
C        0.37869139      -0.27046423       0.49703786
C       -0.45110190      -0.59651753      -0.74077967
C       -1.57019693       0.32785854      -0.90437203
C       -2.42369273       1.14924475      -1.07238484
C        1.25041706       0.89672771       0.46088311
C        2.27020936       0.11565896       0.46579400
H       -0.27103399       0.25755575       2.21122278
H        1.55446654      -1.14400393       0.40033778
H       -0.84100391      -1.61361760      -0.65092255
H        0.19359677      -0.55903868      -1.61997601
H       -3.10302458       1.93023542      -1.32100624
H        3.33202753       0.03095545       0.62202412
13
Frame=8 idx=008348 GeodesicLength=0.9179767468649909 rxn_smarts="[O:1]([C@@:2]([C:3]([C:4]#[C:5][H:12])([H:10])[H:11])([C:6]#[C:7][H:13])[H:9])[H:8]>>[O:1]([C:2]([C:3]([C:4]#[C:5][H:12])([H:10])[H:11])=[C:6]=[C:7]([H:9])[H:13])[H:8]"
O       -0.33608723      -0.53490464       1.65390314
C        0.37011603      -0.29282948       0.49937775
C       -0.46473780      -0.60478707      -0.73853718
C       -1.57835511       0.32718634      -0.89752853
C       -2.41880691       1.16216030      -1.06536142
C        1.25048183       0.85939959       0.45863900
C        2.29869652       0.12223546       0.46779717
H       -0.30365844       0.25667726       2.20033283
H        1.57962585      -1.16061174       0.41516745
H       -0.86123731      -1.61963487      -0.65215073
H        0.17882812      -0.56925809      -1.61872731
H       -3.08079407       1.95375114      -1.32715255
H        3.36592852       0.10061580       0.60424038
13
Frame=9 idx=008348 GeodesicLength=1.0324887197885761 rxn_smarts="[O:1]([C@@:2]([C:3]([C:4]#[C:5][H:12])([H:10])[H:11])([C:6]#[C:7][H:13])[H:9])[H:8]>>[O:1]([C:2]([C:3]([C:4]#[C:5][H:12])([H:10])[H:11])=[C:6]=[C:7]([H:9])[H:13])[H:8]"
O       -0.35351680      -0.54490874       1.65529046
C        0.36114825      -0.31652729       0.50137557
C       -0.47864564      -0.61400663      -0.73664124
C       -1.58584359       0.32645069      -0.89160697
C       -2.41307314       1.17477813      -1.05918857
C        1.25134087       0.81975334       0.45582449
C        2.32767493       0.12971210       0.46884058
H       -0.33616905       0.25613144       2.18806650
H        1.60572421      -1.17760241       0.43149011
H       -0.88255251      -1.62618894      -0.65337031
H        0.16399485      -0.58128143      -1.61769623
H       -3.05603240       1.97914021      -1.32945209
H        3.39595001       0.17454953       0.58706770
13
Frame=10 idx=008348 GeodesicLength=1.1469171577243347 rxn_smarts="[O:1]([C@@:2]([C:3]([C:4]#[C:5][H:12])([H:10])[H:11])([C:6]#[C:7][H:13])[H:9])[H:8]>>[O:1]([C:2]([C:3]([C:4]#[C:5][H:12])([H:10])[H:11])=[C:6]=[C:7]([H:9])[H:13])[H:8]"
O       -0.37163216      -0.55539292       1.65691148
C        0.35195078      -0.34173505       0.50390475
C       -0.49264317      -0.62297135      -0.73454349
C       -1.59202908       0.32744378      -0.88541259
C       -2.40528920       1.18952633      -1.05218306
C        1.25356800       0.77727511       0.45436943
C        2.35732252       0.13754803       0.47033747
H       -0.36838358       0.25476790       2.17559147
H        1.63274271      -1.19542738       0.44976299
H       -0.90521309      -1.63194340      -0.65489507
H        0.14938691      -0.59348761      -1.61623786
H       -3.03213165       2.00275547      -1.33371269
H        3.42235100       0.25164110       0.56610718
13
Frame=11 idx=008348 GeodesicLength=1.2612639823618312 rxn_smarts="[O:1]([C@@:2]([C:3]([C:4]#[C:5][H:12])([H:10])[H:11])([C:6]#[C:7][H:13])[H:9])[H:8]>>[O:1]([C:2]([C:3]([C:4]#[C:5][H:12])([H:10])[H:11])=[C:6]=[C:7]([H:9])[H:13])[H:8]"
O       -0.39057843      -0.56633187       1.65865149
C        0.34242693      -0.36857193       0.50690078
C       -0.50662970      -0.63205588      -0.73232864
C       -1.59686896       0.32960682      -0.87927046
C       -2.39539964       1.20575583      -1.04490646
C        1.25686681       0.73192701       0.45412486
C        2.38730812       0.14632460       0.47231449
H       -0.40053636       0.25272542       2.16266989
H        1.66087301      -1.21389773       0.47037484
H       -0.92900469      -1.63726997      -0.65670576
H        0.13517126      -0.60631709      -1.61438686
H       -3.00764170       2.02593051      -1.33832977
H        3.44401334       0.33217429       0.54089160
13
Frame=12 idx=008348 GeodesicLength=1.3755457732530976 rxn_smarts="[O:1]([C@@:2]([C:3]([C:4]#[C:5][H:12])([H:10])[H:11])([C:6]#[C:7][H:13])[H:9])[H:8]>>[O:1]([C:2]([C:3]([C:4]#[C:5][H:12])([H:10])[H:11])=[C:6]=[C:7]([H:9])[H:13])[H:8]"
O       -0.40953128      -0.57718325       1.66014040
C        0.33281581      -0.39705123       0.50958268
C       -0.52095427      -0.64168128      -0.73023868
C       -1.60071963       0.33245892      -0.87324323
C       -2.38371699       1.22300807      -1.03721644
C        1.26141345       0.68361955       0.45338728
C        2.41761026       0.15649238       0.47256442
H       -0.43141893       0.25075739       2.14862364
H        1.69050639      -1.23287899       0.49240433
H       -0.95427355      -1.64250441      -0.65845482
H        0.12051580      -0.62056726      -1.61273774
H       -2.98199754       2.04943499      -1.34183960
H        3.45975048       0.41609514       0.51702775
13
Frame=13 idx=008348 GeodesicLength=1.48976032228949 rxn_smarts="[O:1]([C@@:2]([C:3]([C:4]#[C:5][H:12])([H:10])[H:11])([C:6]#[C:7][H:13])[H:9])[H:8]>>[O:1]([C:2]([C:3]([C:4]#[C:5][H:12])([H:10])[H:11])=[C:6]=[C:7]([H:9])[H:13])[H:8]"
O       -0.42904977      -0.58846637       1.66165434
C        0.32301663      -0.42732290       0.51264538
C       -0.53514184      -0.65133192      -0.72805770
C       -1.60288724       0.33665459      -0.86715466
C       -2.36937053       1.24202081      -1.02897585
C        1.26721898       0.63205920       0.45374521
C        2.44781700       0.16816300       0.47317785
H       -0.46183084       0.24819946       2.13398249
H        1.72163344      -1.25253746       0.51697088
H       -0.98066654      -1.64707749      -0.66057225
H        0.10628087      -0.63538839      -1.61077768
H       -2.95602936       2.07224835      -1.34577373
H        3.46900920       0.50277912       0.48913573
13
Frame=14 idx=008348 GeodesicLength=1.6039311224317157 rxn_smarts="[O:1]([C@@:2]([C:3]([C:4]#[C:5][H:12])([H:10])[H:11])([C:6]#[C:7][H:13])[H:9])[H:8]>>[O:1]([C:2]([C:3]([C:4]#[C:5][H:12])([H:10])[H:11])=[C:6]=[C:7]([H:9])[H:13])[H:8]"
O       -0.44811779      -0.59944548       1.66285474
C        0.31331618      -0.45935795       0.51524862
C       -0.54963550      -0.66136935      -0.72597994
C       -1.60369300       0.34187886      -0.86099208
C       -2.35250582       1.26256871      -1.02003818
C        1.27463533       0.57702896       0.45324411
C        2.47780406       0.18158513       0.47165543
H       -0.49021694       0.24600192       2.11807581
H        1.75462088      -1.27292356       0.54293426
H       -1.00873961      -1.65118981      -0.66253428
H        0.09143309      -0.65166673      -1.60912406
H       -2.92977060       2.09469075      -1.34903359
H        3.47086972       0.59219856       0.46368917
13
Frame=15 idx=008348 GeodesicLength=1.7180754490435426 rxn_smarts="[O:1]([C@@:2]([C:3]([C:4]#[C:5][H:12])([H:10])[H:11])([C:6]#[C:7][H:13])[H:9])[H:8]>>[O:1]([C:2]([C:3]([C:4]#[C:5][H:12])([H:10])[H:11])=[C:6]=[C:7]([H:9])[H:13])[H:8]"
O       -0.46780750      -0.61104211       1.66405559
C        0.30346087      -0.49333948       0.51842805
C       -0.56358057      -0.67121178      -0.72379161
C       -1.60211675       0.34871643      -0.85477930
C       -2.33187226       1.28527041      -1.01073856
C        1.28339243       0.51829613       0.45436812
C        2.50670505       0.19722697       0.47180191
H       -0.51815580       0.24298301       2.10165474
H        1.78942171      -1.29413340       0.57217125
H       -1.03764060      -1.65424985      -0.66512998
H        0.07755150      -0.66824393      -1.60701605
H       -2.90343903       2.11621824      -1.35254930
H        3.46408096       0.68350937       0.43152515
13
Frame=16 idx=008348 GeodesicLength=1.8322401094273817 rxn_smarts="[O:1]([C@@:2]([C:3]([C:4]#[C:5][H:12])([H:10])[H:11])([C:6]#[C:7][H:13])[H:9])[H:8]>>[O:1]([C:2]([C:3]([C:4]#[C:5][H:12])([H:10])[H:11])=[C:6]=[C:7]([H:9])[H:13])[H:8]"
O       -0.48597625      -0.62152601       1.66472104
C        0.29393767      -0.52913160       0.52047104
C       -0.57817597      -0.68193238      -0.72176488
C       -1.59922090       0.35611380      -0.84853838
C       -2.30843995       1.30903862      -1.00102815
C        1.29410520       0.45550782       0.45274133
C        2.53433440       0.21519552       0.46793303
H       -0.54251701       0.24137187       2.08329870
H        1.82661989      -1.31630215       0.60198434
H       -1.06872255      -1.65706040      -0.66681316
H        0.06211331      -0.68743002      -1.60566398
H       -2.87573821       2.13826223      -1.35410014
H        3.44768036       0.77789271       0.40675921
