11
Frame=0 idx=000527 GeodesicLength=0.0 rxn_smarts="[O:1]=[C:2]1[C:3]([H:7])([H:8])[N:4]2[C:5]([H:9])([H:10])[C@@:6]12[H:11]>>[O-:1][C:2]1=[C:6]([H:11])[N+:4](=[C:5]([H:9])[H:10])[C:3]1([H:7])[H:8]"
O       -1.98156104       1.47240505       0.81158523
C       -1.12881554       0.67540075       0.55785822
C       -1.02612803      -0.50452966      -0.45613420
N        0.36920725      -0.67410050       0.05643611
C        1.50007649      -0.18638336      -0.56048952
C        0.22750794       0.32880459       1.00042173
H       -1.64107994      -1.36885740      -0.21363204
H       -1.10345504      -0.24377282      -1.51334154
H        1.58645632       0.86966420      -0.78776206
H        2.33236109      -0.85523777      -0.74979841
H        0.86543046       0.48660695       1.85485646
11
Frame=1 idx=000527 GeodesicLength=0.027519436914038714 rxn_smarts="[O:1]=[C:2]1[C:3]([H:7])([H:8])[N:4]2[C:5]([H:9])([H:10])[C@@:6]12[H:11]>>[O-:1][C:2]1=[C:6]([H:11])[N+:4](=[C:5]([H:9])[H:10])[C:3]1([H:7])[H:8]"
O       -1.98766964       1.45948996       0.82335802
C       -1.12644190       0.67553950       0.55681194
C       -1.02215567      -0.50192618      -0.45838878
N        0.36850440      -0.67907006       0.06182750
C        1.49625414      -0.18503976      -0.55183903
C        0.23212144       0.33648169       0.99672557
H       -1.63926085      -1.36610738      -0.22028086
H       -1.09593624      -0.24051994      -1.51555392
H        1.59305688       0.86588909      -0.79658322
H        2.31919937      -0.86171235      -0.75269396
H        0.86232808       0.49697542       1.85661674
11
Frame=2 idx=000527 GeodesicLength=0.05503863896889727 rxn_smarts="[O:1]=[C:2]1[C:3]([H:7])([H:8])[N:4]2[C:5]([H:9])([H:10])[C@@:6]12[H:11]>>[O-:1][C:2]1=[C:6]([H:11])[N+:4](=[C:5]([H:9])[H:10])[C:3]1([H:7])[H:8]"
O       -1.99347899       1.44651238       0.83501289
C       -1.12414123       0.67563999       0.55584493
C       -1.01821310      -0.49933564      -0.46060976
N        0.36774848      -0.68386997       0.06717608
C        1.49237336      -0.18363592      -0.54331970
C        0.23664063       0.34405249       0.99304981
H       -1.63738496      -1.36340855      -0.22691108
H       -1.08849733      -0.23726504      -1.51771384
H        1.59986993       0.86182077      -0.80523873
H        2.30590298      -0.86789404      -0.75552182
H        0.85918024       0.50738353       1.85823120
11
Frame=3 idx=000527 GeodesicLength=0.08254245052710306 rxn_smarts="[O:1]=[C:2]1[C:3]([H:7])([H:8])[N:4]2[C:5]([H:9])([H:10])[C@@:6]12[H:11]>>[O-:1][C:2]1=[C:6]([H:11])[N+:4](=[C:5]([H:9])[H:10])[C:3]1([H:7])[H:8]"
O       -1.99887461       1.43364781       0.84638638
C       -1.12190409       0.67566386       0.55498160
C       -1.01432027      -0.49679343      -0.46277697
N        0.36694641      -0.68852830       0.07244417
C        1.48840987      -0.18213022      -0.53497047
C        0.24106291       0.35143955       0.98942507
H       -1.63547092      -1.36078777      -0.23346752
H       -1.08118925      -0.23405851      -1.51980303
H        1.60680789       0.85752645      -0.81370175
H        2.29253374      -0.87367818      -0.75825091
H        0.85599833       0.51769875       1.85973342
11
Frame=4 idx=000527 GeodesicLength=0.11004385259250674 rxn_smarts="[O:1]=[C:2]1[C:3]([H:7])([H:8])[N:4]2[C:5]([H:9])([H:10])[C@@:6]12[H:11]>>[O-:1][C:2]1=[C:6]([H:11])[N+:4](=[C:5]([H:9])[H:10])[C:3]1([H:7])[H:8]"
O       -2.00396135       1.42076947       0.85763560
C       -1.11973295       0.67563464       0.55420595
C       -1.01048127      -0.49426776      -0.46491331
N        0.36608746      -0.69303687       0.07762417
C        1.48436652      -0.18056285      -0.52681241
C        0.24540011       0.35869490       0.98580993
H       -1.63352648      -1.35821759      -0.23999343
H       -1.07401075      -0.23084604      -1.52183978
H        1.61391160       0.85296026      -0.82201189
H        2.27913258      -0.87913212      -0.76076923
H        0.85281453       0.52800395       1.86106440
11
Frame=5 idx=000527 GeodesicLength=0.13754976252216572 rxn_smarts="[O:1]=[C:2]1[C:3]([H:7])([H:8])[N:4]2[C:5]([H:9])([H:10])[C@@:6]12[H:11]>>[O-:1][C:2]1=[C:6]([H:11])[N+:4](=[C:5]([H:9])[H:10])[C:3]1([H:7])[H:8]"
O       -2.00880947       1.40779271       0.86885118
C       -1.11763267       0.67556467       0.55351186
C       -1.00669432      -0.49173815      -0.46703315
N        0.36516941      -0.69739045       0.08271870
C        1.48025217      -0.17895694      -0.51884786
C        0.24965657       0.36585606       0.98218441
H       -1.63155103      -1.35568103      -0.24651868
H       -1.06695223      -0.22759153      -1.52383656
H        1.62120763       0.84809569      -0.83018135
H        2.26570754      -0.88431629      -0.76304315
H        0.84964640       0.53836526       1.86219461
11
Frame=6 idx=000527 GeodesicLength=0.16507225696239394 rxn_smarts="[O:1]=[C:2]1[C:3]([H:7])([H:8])[N:4]2[C:5]([H:9])([H:10])[C@@:6]12[H:11]>>[O-:1][C:2]1=[C:6]([H:11])[N+:4](=[C:5]([H:9])[H:10])[C:3]1([H:7])[H:8]"
O       -2.01347490       1.39464207       0.88010706
C       -1.11560806       0.67546582       0.55289215
C       -1.00295450      -0.48918660      -0.46914769
N        0.36418903      -0.70158572       0.08773650
C        1.47607554      -0.17733210      -0.51106488
C        0.25383524       0.37295422       0.97853583
H       -1.62954347      -1.35316158      -0.25307260
H       -1.05999457      -0.22426532      -1.52580204
H        1.62871213       0.84290642      -0.83821772
H        2.25225767      -0.88928312      -0.76506728
H        0.84650588       0.54884591       1.86310068
11
Frame=7 idx=000527 GeodesicLength=0.19258662786282088 rxn_smarts="[O:1]=[C:2]1[C:3]([H:7])([H:8])[N:4]2[C:5]([H:9])([H:10])[C@@:6]12[H:11]>>[O-:1][C:2]1=[C:6]([H:11])[N+:4](=[C:5]([H:9])[H:10])[C:3]1([H:7])[H:8]"
O       -2.01803233       1.38120693       0.89152533
C       -1.11367474       0.67535768       0.55233998
C       -0.99927311      -0.48658961      -0.47127611
N        0.36313349      -0.70561452       0.09267923
C        1.47185010      -0.17571464      -0.50347279
C        0.25793934       0.38003803       0.97483911
H       -1.62751981      -1.35063922      -0.25969287
H       -1.05314093      -0.22082771      -1.52775727
H        1.63647723       0.83735499      -0.84614466
H        2.23882823      -0.89409951      -0.76679108
H        0.84341252       0.55952758       1.86375113
11
Frame=8 idx=000527 GeodesicLength=0.22016591881512915 rxn_smarts="[O:1]=[C:2]1[C:3]([H:7])([H:8])[N:4]2[C:5]([H:9])([H:10])[C@@:6]12[H:11]>>[O-:1][C:2]1=[C:6]([H:11])[N+:4](=[C:5]([H:9])[H:10])[C:3]1([H:7])[H:8]"
O       -2.02248324       1.36741807       0.90315038
C       -1.11182321       0.67523864       0.55185548
C       -0.99562675      -0.48393004      -0.47342633
N        0.36201477      -0.70947051       0.09755414
C        1.46756886      -0.17411633      -0.49606628
C        0.26197241       0.38712690       0.97106350
H       -1.62545268      -1.34810430      -0.26641246
H       -1.04635895      -0.21724119      -1.52969924
H        1.64447110       0.83141857      -0.85395616
H        2.22534105      -0.89879594      -0.76816709
H        0.84037664       0.57045613       1.86410406
11
Frame=9 idx=000527 GeodesicLength=0.24777949407171207 rxn_smarts="[O:1]=[C:2]1[C:3]([H:7])([H:8])[N:4]2[C:5]([H:9])([H:10])[C@@:6]12[H:11]>>[O-:1][C:2]1=[C:6]([H:11])[N+:4](=[C:5]([H:9])[H:10])[C:3]1([H:7])[H:8]"
O       -2.02661533       1.35361751       0.91467034
C       -1.11002490       0.67506485       0.55144285
C       -0.99205852      -0.48127488      -0.47554850
N        0.36082207      -0.71320728       0.10229076
C        1.46316488      -0.17244662      -0.48890131
C        0.26591987       0.39406850       0.96727474
H       -1.62337031      -1.34560122      -0.27308767
H       -1.03975707      -0.21361902      -1.53157925
H        1.65255278       0.82524372      -0.86161817
H        2.21198748      -0.90318121      -0.76917766
H        0.83737906       0.58133564       1.86423386
11
Frame=10 idx=000527 GeodesicLength=0.2753669280301292 rxn_smarts="[O:1]=[C:2]1[C:3]([H:7])([H:8])[N:4]2[C:5]([H:9])([H:10])[C@@:6]12[H:11]>>[O-:1][C:2]1=[C:6]([H:11])[N+:4](=[C:5]([H:9])[H:10])[C:3]1([H:7])[H:8]"
O       -2.03050974       1.33974048       0.92617433
C       -1.10830240       0.67484439       0.55111955
C       -0.98857858      -0.47861674      -0.47766765
N        0.35956988      -0.71681844       0.10689689
C        1.45868002      -0.17072655      -0.48198697
C        0.26978941       0.40090577       0.96346853
H       -1.62130162      -1.34313102      -0.27976471
H       -1.03333222      -0.20994461      -1.53343866
H        1.66077667       0.81880355      -0.86912809
H        2.19875509      -0.90731734      -0.76982619
H        0.83445350       0.59226050       1.86415296
11
Frame=11 idx=000527 GeodesicLength=0.3029746065840465 rxn_smarts="[O:1]=[C:2]1[C:3]([H:7])([H:8])[N:4]2[C:5]([H:9])([H:10])[C@@:6]12[H:11]>>[O-:1][C:2]1=[C:6]([H:11])[N+:4](=[C:5]([H:9])[H:10])[C:3]1([H:7])[H:8]"
O       -2.03421053       1.32568321       0.93773920
C       -1.10665669       0.67459132       0.55086798
C       -0.98517009      -0.47592870      -0.47978908
N        0.35825084      -0.72029410       0.11139207
C        1.45411439      -0.16897529      -0.47529314
C        0.27358071       0.40767938       0.95962191
H       -1.61922246      -1.34066806      -0.28647268
H       -1.02704945      -0.20617505      -1.53527055
H        1.66915280       0.81206413      -0.87649982
H        2.18562006      -0.91126868      -0.77011942
H        0.83159042       0.60329185       1.86382353
11
Frame=12 idx=000527 GeodesicLength=0.3306101556119657 rxn_smarts="[O:1]=[C:2]1[C:3]([H:7])([H:8])[N:4]2[C:5]([H:9])([H:10])[C@@:6]12[H:11]>>[O-:1][C:2]1=[C:6]([H:11])[N+:4](=[C:5]([H:9])[H:10])[C:3]1([H:7])[H:8]"
O       -2.03775373       1.31137052       0.94943439
C       -1.10509690       0.67431410       0.55068886
C       -0.98182928      -0.47319518      -0.48192407
N        0.35686137      -0.72362682       0.11578689
C        1.44947530      -0.16720574      -0.46881073
C        0.27729392       0.41442621       0.95571796
H       -1.61713001      -1.33820397      -0.29324359
H       -1.02089081      -0.20228299      -1.53708698
H        1.67770360       0.80499939      -0.88373205
H        2.17257046      -0.91509021      -0.77005814
H        0.82879608       0.61449470       1.86322746
11
Frame=13 idx=000527 GeodesicLength=0.35828486465568044 rxn_smarts="[O:1]=[C:2]1[C:3]([H:7])([H:8])[N:4]2[C:5]([H:9])([H:10])[C@@:6]12[H:11]>>[O-:1][C:2]1=[C:6]([H:11])[N+:4](=[C:5]([H:9])[H:10])[C:3]1([H:7])[H:8]"
O       -2.04118915       1.29668278       0.96135627
C       -1.10363092       0.67402518       0.55057964
C       -0.97854982      -0.47038840      -0.48408696
N        0.35539363      -0.72680588       0.12009666
C        1.44477310      -0.16544278      -0.46252474
C        0.28093094       0.42118894       0.95173336
H       -1.61502099      -1.33571408      -0.30012376
H       -1.01483320      -0.19821955      -1.53889611
H        1.68644656       0.79756801      -0.89084565
H        2.15959879      -0.91884860      -0.76961455
H        0.82608106       0.62595437       1.86232582
11
Frame=14 idx=000527 GeodesicLength=0.38598676530140236 rxn_smarts="[O:1]=[C:2]1[C:3]([H:7])([H:8])[N:4]2[C:5]([H:9])([H:10])[C@@:6]12[H:11]>>[O-:1][C:2]1=[C:6]([H:11])[N+:4](=[C:5]([H:9])[H:10])[C:3]1([H:7])[H:8]"
O       -2.04444408       1.28174503       0.97339781
C       -1.10225504       0.67370031       0.55055150
C       -0.97534882      -0.46753639      -0.48626394
N        0.35385231      -0.72985033       0.12429209
C        1.43998858      -0.16365305      -0.45646501
C        0.28448784       0.42792038       0.94768466
H       -1.61290943      -1.33321976      -0.30706559
H       -1.00892022      -0.19402772      -1.54068789
H        1.69534919       0.78982387      -0.89780704
H        2.14675505      -0.92248017      -0.76878244
H        0.82344462       0.63757784       1.86114585
11
Frame=15 idx=000527 GeodesicLength=0.4137053434738389 rxn_smarts="[O:1]=[C:2]1[C:3]([H:7])([H:8])[N:4]2[C:5]([H:9])([H:10])[C@@:6]12[H:11]>>[O-:1][C:2]1=[C:6]([H:11])[N+:4](=[C:5]([H:9])[H:10])[C:3]1([H:7])[H:8]"
O       -2.04746047       1.26667953       0.98544873
C       -1.10095442       0.67332723       0.55060401
C       -0.97223364      -0.46466417      -0.48844015
N        0.35224983      -0.73277741       0.12835236
C        1.43511344      -0.16180534      -0.45064284
C        0.28796367       0.43457475       0.94359606
H       -1.61080471      -1.33073780      -0.31401923
H       -1.00317741      -0.18975277      -1.54245161
H        1.70435166       0.78182071      -0.90459467
H        2.13407337      -0.92593076      -0.76758238
H        0.82087868       0.64926603       1.85972971
11
Frame=16 idx=000527 GeodesicLength=0.44142811046441294 rxn_smarts="[O:1]=[C:2]1[C:3]([H:7])([H:8])[N:4]2[C:5]([H:9])([H:10])[C@@:6]12[H:11]>>[O-:1][C:2]1=[C:6]([H:11])[N+:4](=[C:5]([H:9])[H:10])[C:3]1([H:7])[H:8]"
O       -2.05020551       1.25157434       0.99743564
C       -1.09971811       0.67289787       0.55073620
C       -0.96921176      -0.46179002      -0.49060576
N        0.35059552      -0.73560060       0.13225977
C        1.43014173      -0.15987902      -0.44507234
C        0.29135850       0.44112148       0.93948342
H       -1.60871631      -1.32827941      -0.32094658
H       -0.99762838      -0.18542859      -1.54418192
H        1.71342058       0.77360302      -0.91119096
H        2.12158589      -0.92916698      -0.76602560
H        0.81837786       0.66094790       1.85810814
