14
Frame=0 idx=011488 GeodesicLength=0.0 rxn_smarts="[C:1]([C@@:2]([C:3]#[N:4])([C:5](=[O:6])[C:7]([H:12])([H:13])[H:14])[H:11])([H:8])([H:9])[H:10]>>[C:1](/[C:2](=[C:5](/[O:6][C:3]#[N:4])[C:7]([H:12])([H:13])[H:14])[H:11])([H:8])([H:9])[H:10]"
C       -1.47554055      -0.99493394       0.02031694
C       -0.67564534       0.25105537      -0.23044259
C       -0.50556550       1.90720510       0.57203516
N       -1.16266992       2.75332899       1.04626475
C        0.70798319       0.37913367      -0.08831320
O        0.91355065       1.62328819       0.26551694
C        1.84803638      -0.54893284      -0.17718816
H       -1.04684770      -1.59090426       0.82649928
H       -2.48593123      -0.71667004       0.32223799
H       -1.55980983      -1.62169215      -0.87119339
H       -1.01467111       0.85525090      -1.07688274
H        2.33877437      -0.64617254       0.79328194
H        2.58274891      -0.12353120      -0.86582318
H        1.53558767      -1.52642524      -0.53630974
14
Frame=1 idx=011488 GeodesicLength=0.0750725571371721 rxn_smarts="[C:1]([C@@:2]([C:3]#[N:4])([C:5](=[O:6])[C:7]([H:12])([H:13])[H:14])[H:11])([H:8])([H:9])[H:10]>>[C:1](/[C:2](=[C:5](/[O:6][C:3]#[N:4])[C:7]([H:12])([H:13])[H:14])[H:11])([H:8])([H:9])[H:10]"
C       -1.48038074      -0.98871005       0.03069524
C       -0.66909170       0.24829289      -0.22676275
C       -0.52388817       1.91555473       0.56731823
N       -1.19717713       2.77347633       0.99251661
C        0.71135526       0.36661010      -0.04291766
O        0.92739607       1.59563982       0.35186789
C        1.85516265      -0.54932852      -0.19305006
H       -1.06904686      -1.57743315       0.85104641
H       -2.49503862      -0.70353229       0.31084523
H       -1.54665512      -1.62850086      -0.85280235
H       -0.98902107       0.83928043      -1.08892010
H        2.36936914      -0.67492907       0.76175890
H        2.57046342      -0.10005440      -0.88679166
H        1.53655286      -1.51636596      -0.57480393
14
Frame=2 idx=011488 GeodesicLength=0.14965956023221128 rxn_smarts="[C:1]([C@@:2]([C:3]#[N:4])([C:5](=[O:6])[C:7]([H:12])([H:13])[H:14])[H:11])([H:8])([H:9])[H:10]>>[C:1](/[C:2](=[C:5](/[O:6][C:3]#[N:4])[C:7]([H:12])([H:13])[H:14])[H:11])([H:8])([H:9])[H:10]"
C       -1.48617605      -0.98343619       0.04103254
C       -0.66316707       0.24448341      -0.22221334
C       -0.53873249       1.92390063       0.56004264
N       -1.22314090       2.79449409       0.93594362
C        0.71343120       0.35174976       0.00118355
O        0.93788233       1.56313622       0.44071570
C        1.86176775      -0.54740939      -0.20863004
H       -1.09193649      -1.56562762       0.87426797
H       -2.50433997      -0.69145771       0.30047433
H       -1.53586207      -1.63539032      -0.83438581
H       -0.96433939       0.82159114      -1.09957760
H        2.39786784      -0.70109778       0.72977691
H        2.55770777      -0.07153331      -0.90419852
H        1.53903755      -1.50340292      -0.61443193
14
Frame=3 idx=011488 GeodesicLength=0.22401590313405761 rxn_smarts="[C:1]([C@@:2]([C:3]#[N:4])([C:5](=[O:6])[C:7]([H:12])([H:13])[H:14])[H:11])([H:8])([H:9])[H:10]>>[C:1](/[C:2](=[C:5](/[O:6][C:3]#[N:4])[C:7]([H:12])([H:13])[H:14])[H:11])([H:8])([H:9])[H:10]"
C       -1.49278252      -0.97939968       0.05176423
C       -0.65833353       0.23967203      -0.21678758
C       -0.54957000       1.93265973       0.54962331
N       -1.23957168       2.81748186       0.87537033
C        0.71404498       0.33478145       0.04306844
O        0.94425123       1.52483302       0.53300113
C        1.86777985      -0.54299474      -0.22415032
H       -1.11466977      -1.55564254       0.89645197
H       -2.51372262      -0.68103828       0.29213572
H       -1.52742758      -1.64273124      -0.81556107
H       -0.94154145       0.80194564      -1.10887891
H        2.42271203      -0.72605497       0.69773627
H        2.54567522      -0.03718124      -0.91624834
H        1.54315582      -1.48633104      -0.65752519
14
Frame=4 idx=011488 GeodesicLength=0.2984701905588448 rxn_smarts="[C:1]([C@@:2]([C:3]#[N:4])([C:5](=[O:6])[C:7]([H:12])([H:13])[H:14])[H:11])([H:8])([H:9])[H:10]>>[C:1](/[C:2](=[C:5](/[O:6][C:3]#[N:4])[C:7]([H:12])([H:13])[H:14])[H:11])([H:8])([H:9])[H:10]"
C       -1.50053641      -0.97635677       0.06268782
C       -0.65456005       0.23371425      -0.21121374
C       -0.55576263       1.94138075       0.53617953
N       -1.24656428       2.84069319       0.81296373
C        0.71332254       0.31562485       0.08244613
O        0.94599620       1.48083133       0.62649882
C        1.87360093      -0.53599915      -0.23924518
H       -1.13777828      -1.54701243       0.91777280
H       -2.52349916      -0.67151884       0.28550359
H       -1.52189955      -1.65053578      -0.79642437
H       -0.92089456       0.78052603      -1.11730808
H        2.44515211      -0.74824955       0.66594755
H        2.53414726       0.00227821      -0.92343733
H        1.54927588      -1.46537609      -0.70237126
14
Frame=5 idx=011488 GeodesicLength=0.3730330488546925 rxn_smarts="[C:1]([C@@:2]([C:3]#[N:4])([C:5](=[O:6])[C:7]([H:12])([H:13])[H:14])[H:11])([H:8])([H:9])[H:10]>>[C:1](/[C:2](=[C:5](/[O:6][C:3]#[N:4])[C:7]([H:12])([H:13])[H:14])[H:11])([H:8])([H:9])[H:10]"
C       -1.50904607      -0.97499864       0.07324589
C       -0.65253698       0.22705327      -0.20461455
C       -0.55697798       1.95004746       0.52156629
N       -1.24207687       2.86591417       0.74900206
C        0.71089965       0.29464595       0.11947654
O        0.94329332       1.43223625       0.71828030
C        1.87863253      -0.52648471      -0.25347894
H       -1.16104755      -1.54047882       0.93777750
H       -2.53389722      -0.66491019       0.27922740
H       -1.51729780      -1.65913442      -0.77792369
H       -0.90360902       0.75813513      -1.12369842
H        2.46547673      -0.76646635       0.63468176
H        2.52193025       0.04540150      -0.92660209
H        1.55625702      -1.44096061      -0.74694005
14
Frame=6 idx=011488 GeodesicLength=0.4480750136566744 rxn_smarts="[C:1]([C@@:2]([C:3]#[N:4])([C:5](=[O:6])[C:7]([H:12])([H:13])[H:14])[H:11])([H:8])([H:9])[H:10]>>[C:1](/[C:2](=[C:5](/[O:6][C:3]#[N:4])[C:7]([H:12])([H:13])[H:14])[H:11])([H:8])([H:9])[H:10]"
C       -1.51873961      -0.97425101       0.08349996
C       -0.65131111       0.21929793      -0.19880165
C       -0.55390683       1.95742141       0.50608884
N       -1.22941140       2.88925390       0.68660122
C        0.70750070       0.27177555       0.15387205
O        0.93673704       1.38025520       0.80556223
C        1.88372728      -0.51477263      -0.26661911
H       -1.18504192      -1.53464455       0.95686155
H       -2.54482794      -0.65848271       0.27389529
H       -1.51550764      -1.66813630      -0.75951869
H       -0.88875602       0.73496534      -1.12960472
H        2.48482363      -0.77999269       0.60450819
H        2.50960855       0.09116207      -0.92613324
H        1.56510527      -1.41385149      -0.79021192
14
Frame=7 idx=011488 GeodesicLength=0.5233008808521972 rxn_smarts="[C:1]([C@@:2]([C:3]#[N:4])([C:5](=[O:6])[C:7]([H:12])([H:13])[H:14])[H:11])([H:8])([H:9])[H:10]>>[C:1](/[C:2](=[C:5](/[O:6][C:3]#[N:4])[C:7]([H:12])([H:13])[H:14])[H:11])([H:8])([H:9])[H:10]"
C       -1.52907457      -0.97431204       0.09282176
C       -0.65091483       0.21090771      -0.19322870
C       -0.54775438       1.96307048       0.49220831
N       -1.20857529       2.91160745       0.62650817
C        0.70316254       0.24747112       0.18610030
O        0.92788833       1.32692923       0.88589762
C        1.88831071      -0.50136562      -0.27836499
H       -1.20982174      -1.52953992       0.97476888
H       -2.55625988      -0.65329576       0.26757483
H       -1.51444467      -1.67769030      -0.74188429
H       -0.87651586       0.71210248      -1.13424877
H        2.50410528      -0.78762634       0.57547790
H        2.49540000       0.13741856      -0.92412540
H        1.57449436      -1.38567703      -0.82950562
14
Frame=8 idx=011488 GeodesicLength=0.5990464432756695 rxn_smarts="[C:1]([C@@:2]([C:3]#[N:4])([C:5](=[O:6])[C:7]([H:12])([H:13])[H:14])[H:11])([H:8])([H:9])[H:10]>>[C:1](/[C:2](=[C:5](/[O:6][C:3]#[N:4])[C:7]([H:12])([H:13])[H:14])[H:11])([H:8])([H:9])[H:10]"
C       -1.54018404      -0.97458941       0.10167305
C       -0.65081882       0.20167444      -0.18872612
C       -0.53932175       1.96680677       0.47932101
N       -1.18196991       2.93151178       0.56902697
C        0.69837247       0.22186558       0.21582184
O        0.91725184       1.27228452       0.96012472
C        1.89285830      -0.48646395      -0.28902465
H       -1.23534765      -1.52418968       0.99213948
H       -2.56804713      -0.64794212       0.26117946
H       -1.51512120      -1.68773998      -0.72419262
H       -0.86626307       0.68923353      -1.13868796
H        2.52304501      -0.79064226       0.54778019
H        2.48052300       0.18435801      -0.91998996
H        1.58502294      -1.35616722      -0.86644541
14
Frame=9 idx=011488 GeodesicLength=0.6754120438057298 rxn_smarts="[C:1]([C@@:2]([C:3]#[N:4])([C:5](=[O:6])[C:7]([H:12])([H:13])[H:14])[H:11])([H:8])([H:9])[H:10]>>[C:1](/[C:2](=[C:5](/[O:6][C:3]#[N:4])[C:7]([H:12])([H:13])[H:14])[H:11])([H:8])([H:9])[H:10]"
C       -1.55198320      -0.97495520       0.11046716
C       -0.65089776       0.19146744      -0.18543148
C       -0.52899158       1.96861716       0.46701951
N       -1.15004378       2.94897255       0.51306288
C        0.69322779       0.19495057       0.24293589
O        0.90475982       1.21569082       1.02943779
C        1.89740144      -0.47002731      -0.29889541
H       -1.26143712      -1.51812943       1.00954780
H       -2.58001406      -0.64210775       0.25513543
H       -1.51761296      -1.69846577      -0.70570919
H       -0.85783954       0.66609550      -1.14323264
H        2.54108442      -0.79043960       0.52122223
H        2.46548579       0.23263508      -0.91275724
H        1.59686075      -1.32430407      -0.90280273
14
Frame=10 idx=011488 GeodesicLength=0.7522765604302022 rxn_smarts="[C:1]([C@@:2]([C:3]#[N:4])([C:5](=[O:6])[C:7]([H:12])([H:13])[H:14])[H:11])([H:8])([H:9])[H:10]>>[C:1](/[C:2](=[C:5](/[O:6][C:3]#[N:4])[C:7]([H:12])([H:13])[H:14])[H:11])([H:8])([H:9])[H:10]"
C       -1.56416619      -0.97563090       0.11897925
C       -0.65129168       0.18056624      -0.18291883
C       -0.51778391       1.96858472       0.45626079
N       -1.11235334       2.96486961       0.45831574
C        0.68775909       0.16718073       0.26761085
O        0.89123864       1.15794498       1.09364313
C        1.90161413      -0.45227281      -0.30792068
H       -1.28782287      -1.51160780       1.02675536
H       -2.59212597      -0.63662908       0.24885725
H       -1.52095678      -1.70988061      -0.68683872
H       -0.85139843       0.64307583      -1.14752232
H        2.55837177      -0.78679585       0.49582960
H        2.44972634       0.28130434      -0.90338034
H        1.60918919      -1.29070941      -0.93767108
14
Frame=11 idx=011488 GeodesicLength=0.8293967742418591 rxn_smarts="[C:1]([C@@:2]([C:3]#[N:4])([C:5](=[O:6])[C:7]([H:12])([H:13])[H:14])[H:11])([H:8])([H:9])[H:10]>>[C:1](/[C:2](=[C:5](/[O:6][C:3]#[N:4])[C:7]([H:12])([H:13])[H:14])[H:11])([H:8])([H:9])[H:10]"
C       -1.57663981      -0.97595526       0.12716240
C       -0.65142611       0.16905081      -0.18169807
C       -0.50619855       1.96685460       0.44664612
N       -1.07206912       2.97752673       0.40648147
C        0.68245581       0.13879326       0.28970020
O        0.87756847       1.09964446       1.15240038
C        1.90577759      -0.43368450      -0.31607476
H       -1.31439547      -1.50392858       1.04370583
H       -2.60408586      -0.63029788       0.24250246
H       -1.52563922      -1.72142019      -0.66753530
H       -0.84619896       0.62026356      -1.15217530
H        2.57537080      -0.77978550       0.47181547
H        2.43332655       0.32936626      -0.89264843
H        1.62215389      -1.25642777      -0.97028247
14
Frame=12 idx=011488 GeodesicLength=0.9070712023887301 rxn_smarts="[C:1]([C@@:2]([C:3]#[N:4])([C:5](=[O:6])[C:7]([H:12])([H:13])[H:14])[H:11])([H:8])([H:9])[H:10]>>[C:1](/[C:2](=[C:5](/[O:6][C:3]#[N:4])[C:7]([H:12])([H:13])[H:14])[H:11])([H:8])([H:9])[H:10]"
C       -1.58937342      -0.97620192       0.13530096
C       -0.65155259       0.15684582      -0.18148305
C       -0.49448864       1.96359944       0.43795986
N       -1.02798698       2.98787229       0.35590691
C        0.67719009       0.10977505       0.30933978
O        0.86347526       1.04010622       1.20691061
C        1.90976717      -0.41403430      -0.32356979
H       -1.34101685      -1.49516660       1.06075903
H       -2.61596670      -0.62365569       0.23624320
H       -1.53138896      -1.73344341      -0.64740007
H       -0.84245984       0.59736857      -1.15708543
H        2.59155796      -0.77044329       0.44890031
H        2.41659735       0.37764615      -0.87965250
H        1.63564615      -1.22026833      -1.00212983
14
Frame=13 idx=011488 GeodesicLength=0.9854154909593379 rxn_smarts="[C:1]([C@@:2]([C:3]#[N:4])([C:5](=[O:6])[C:7]([H:12])([H:13])[H:14])[H:11])([H:8])([H:9])[H:10]>>[C:1](/[C:2](=[C:5](/[O:6][C:3]#[N:4])[C:7]([H:12])([H:13])[H:14])[H:11])([H:8])([H:9])[H:10]"
C       -1.60232302      -0.97642669       0.14345429
C       -0.65172575       0.14395366      -0.18211864
C       -0.48292562       1.95896063       0.43009291
N       -0.97974252       2.99602966       0.30609124
C        0.67196320       0.08015834       0.32669341
O        0.84905773       0.97914414       1.25764500
C        1.91348576      -0.39326869      -0.33045509
H       -1.36765056      -1.48529487       1.07799401
H       -2.62777725      -0.61688948       0.23001257
H       -1.53802727      -1.74598711      -0.62633140
H       -0.84011819       0.57428212      -1.16221993
H        2.60693424      -0.75898074       0.42692059
H        2.39936902       0.42625264      -0.86435589
H        1.64948024      -1.18193361      -1.03342307
14
Frame=14 idx=011488 GeodesicLength=1.0643622832076387 rxn_smarts="[C:1]([C@@:2]([C:3]#[N:4])([C:5](=[O:6])[C:7]([H:12])([H:13])[H:14])[H:11])([H:8])([H:9])[H:10]>>[C:1](/[C:2](=[C:5](/[O:6][C:3]#[N:4])[C:7]([H:12])([H:13])[H:14])[H:11])([H:8])([H:9])[H:10]"
C       -1.61541422      -0.97630591       0.15158818
C       -0.65170955       0.13045906      -0.18375909
C       -0.47155750       1.95317240       0.42267821
N       -0.92908438       3.00124495       0.25780895
C        0.66701069       0.05005588       0.34173140
O        0.83475417       0.91689124       1.30457339
C        1.91704284      -0.37163775      -0.33671248
H       -1.39417188      -1.47398129       1.09533433
H       -2.63936906      -0.60949367       0.22388103
H       -1.54571509      -1.75870974      -0.60434335
H       -0.83879506       0.55101659      -1.16782449
H        2.62172752      -0.74547770       0.40594746
H        2.38162512       0.47467791      -0.84715881
H        1.66365641      -1.14191199      -1.06374472
14
Frame=15 idx=011488 GeodesicLength=1.143907015995131 rxn_smarts="[C:1]([C@@:2]([C:3]#[N:4])([C:5](=[O:6])[C:7]([H:12])([H:13])[H:14])[H:11])([H:8])([H:9])[H:10]>>[C:1](/[C:2](=[C:5](/[O:6][C:3]#[N:4])[C:7]([H:12])([H:13])[H:14])[H:11])([H:8])([H:9])[H:10]"
C       -1.62846939      -0.97588614       0.15970322
C       -0.65158256       0.11651060      -0.18631271
C       -0.46062776       1.94655101       0.41544344
N       -0.87621162       3.00379020       0.21097548
C        0.66234189       0.01973281       0.35448100
O        0.82074341       0.85350338       1.34784092
C        1.92032134      -0.34927335      -0.34230274
H       -1.42011063      -1.46146006       1.11259468
H       -2.65061814      -0.60170918       0.21811232
H       -1.55430209      -1.77144479      -0.58161423
H       -0.83852290       0.52759184      -1.17390149
H        2.63572660      -0.73033262       0.38606436
H        2.36344869       0.52265402      -0.82802667
H        1.67786315      -1.10022771      -1.09305759
14
Frame=16 idx=011488 GeodesicLength=1.2240240645182021 rxn_smarts="[C:1]([C@@:2]([C:3]#[N:4])([C:5](=[O:6])[C:7]([H:12])([H:13])[H:14])[H:11])([H:8])([H:9])[H:10]>>[C:1](/[C:2](=[C:5](/[O:6][C:3]#[N:4])[C:7]([H:12])([H:13])[H:14])[H:11])([H:8])([H:9])[H:10]"
C       -1.64140278      -0.97498209       0.16780927
C       -0.65123201       0.10218555      -0.18983199
C       -0.45008038       1.93931644       0.40803550
N       -0.82241376       3.00342960       0.16586878
C        0.65808361      -0.01071124       0.36496445
O        0.80725615       0.78897356       1.38756086
C        1.92338272      -0.32636256      -0.34721442
H       -1.44525095      -1.44762391       1.12970601
H       -2.66140748      -0.59326163       0.21289707
H       -1.56387050      -1.78392086      -0.55819690
H       -0.83906907       0.50398266      -1.18057945
H        2.64897895      -0.71384734       0.36730438
H        2.34495012       0.56989555      -0.80706157
H        1.69207539      -1.05707374      -1.12126199
