16
Frame=0 idx=007998 GeodesicLength=0.0 rxn_smarts="[C:1]([C:2]#[C:3][C:4]([C@@:5]1([H:13])[C:6]([H:14])([H:15])[N:7]1[H:16])([H:11])[H:12])([H:8])([H:9])[H:10]>>[C:1](=[C:2]=[C:3]=[C:4]([H:11])[H:12])([H:8])[H:9].[C:5]1([H:10])([H:13])[C:6]([H:14])([H:15])[N:7]1[H:16]"
C        1.78741649       0.78436538       0.96831572
C        2.15234546      -0.48195809       0.58043476
C        1.71640278      -1.49814845       0.03396022
C        0.43184197      -1.67465950      -0.45142226
C       -0.75201585      -0.05055602       0.07889667
C       -1.37955927       1.19680499      -0.48345045
N       -1.57060183      -0.06242643      -1.15243866
H        2.12567227       1.63431576       0.38039435
H        1.64717553       0.99906319       2.02493585
H        0.51096168       0.42694432       0.42719232
H       -0.22805144      -2.38090303       0.04559735
H        0.25873288      -1.59278048      -1.51913905
H       -1.25112575      -0.40611438       0.97762547
H       -0.75083242       1.90607937      -1.01097586
H       -2.20665862       1.63946291       0.06358535
H       -2.49170386      -0.43948955      -0.96351176
16
Frame=1 idx=007998 GeodesicLength=0.10794180204438028 rxn_smarts="[C:1]([C:2]#[C:3][C:4]([C@@:5]1([H:13])[C:6]([H:14])([H:15])[N:7]1[H:16])([H:11])[H:12])([H:8])([H:9])[H:10]>>[C:1](=[C:2]=[C:3]=[C:4]([H:11])[H:12])([H:8])[H:9].[C:5]1([H:10])([H:13])[C:6]([H:14])([H:15])[N:7]1[H:16]"
C        1.80702943       0.78424778       0.99453759
C        2.16572408      -0.47350487       0.56977292
C        1.71991498      -1.47818457       0.00844961
C        0.43135977      -1.66774665      -0.46201582
C       -0.77074189      -0.04975964       0.07840705
C       -1.38436857       1.18955926      -0.51279511
N       -1.60329925      -0.08621104      -1.14269043
H        2.13040556       1.64765055       0.41808361
H        1.71719938       0.97105899       2.06208447
H        0.49790978       0.43975829       0.48422809
H       -0.20242415      -2.39947910       0.03240044
H        0.24827885      -1.57978070      -1.52784757
H       -1.27327222      -0.38905356       0.98174465
H       -0.75123754       1.87180484      -1.06989255
H       -2.20320821       1.66093516       0.02234971
H       -2.52926999      -0.44129473      -0.93681667
16
Frame=2 idx=007998 GeodesicLength=0.21533095466006397 rxn_smarts="[C:1]([C:2]#[C:3][C:4]([C@@:5]1([H:13])[C:6]([H:14])([H:15])[N:7]1[H:16])([H:11])[H:12])([H:8])([H:9])[H:10]>>[C:1](=[C:2]=[C:3]=[C:4]([H:11])[H:12])([H:8])[H:9].[C:5]1([H:10])([H:13])[C:6]([H:14])([H:15])[N:7]1[H:16]"
C        1.82520781       0.78434756       1.02098233
C        2.17837570      -0.46280672       0.55751674
C        1.72284515      -1.45600159      -0.01797731
C        0.43058829      -1.66070194      -0.47261818
C       -0.78999330      -0.04957446       0.07895085
C       -1.38758126       1.18106492      -0.54246053
N       -1.63576214      -0.10970307      -1.13179309
H        2.13212964       1.66194125       0.45717969
H        1.78916265       0.94221902       2.09655425
H        0.48357065       0.45067475       0.54407773
H       -0.17524203      -2.41810992       0.01846937
H        0.23660979      -1.56730764      -1.53632747
H       -1.29683223      -0.37149682       0.98646074
H       -0.74877585       1.83387937      -1.12765491
H       -2.19748089       1.68220962      -0.02113960
H       -2.56682197      -0.44063432      -0.91022061
16
Frame=3 idx=007998 GeodesicLength=0.3223101988818014 rxn_smarts="[C:1]([C:2]#[C:3][C:4]([C@@:5]1([H:13])[C:6]([H:14])([H:15])[N:7]1[H:16])([H:11])[H:12])([H:8])([H:9])[H:10]>>[C:1](=[C:2]=[C:3]=[C:4]([H:11])[H:12])([H:8])[H:9].[C:5]1([H:10])([H:13])[C:6]([H:14])([H:15])[N:7]1[H:16]"
C        1.84209504       0.78445259       1.04786124
C        2.19014274      -0.45006536       0.54414243
C        1.72502600      -1.43161980      -0.04520214
C        0.42948857      -1.65349344      -0.48322665
C       -0.80963433      -0.04978890       0.08048482
C       -1.38947598       1.17123766      -0.57232406
N       -1.66804793      -0.13283180      -1.11969796
H        2.13184991       1.67676187       0.49828014
H        1.86227027       0.91259549       2.12801859
H        0.46858493       0.46014512       0.60518467
H       -0.14656737      -2.43657381       0.00372341
H        0.22373860      -1.55534951      -1.54456546
H       -1.32131225      -0.35304908       0.99191680
H       -0.74423781       1.79245430      -1.18425951
H       -2.18970373       1.70283673      -0.06667519
H       -2.60421666      -0.43771207      -0.88366114
16
Frame=4 idx=007998 GeodesicLength=0.4290314688111687 rxn_smarts="[C:1]([C:2]#[C:3][C:4]([C@@:5]1([H:13])[C:6]([H:14])([H:15])[N:7]1[H:16])([H:11])[H:12])([H:8])([H:9])[H:10]>>[C:1](=[C:2]=[C:3]=[C:4]([H:11])[H:12])([H:8])[H:9].[C:5]1([H:10])([H:13])[C:6]([H:14])([H:15])[N:7]1[H:16]"
C        1.85802426       0.78434095       1.07535480
C        2.20094483      -0.43557918       0.53018888
C        1.72627893      -1.40511013      -0.07299788
C        0.42802890      -1.64605038      -0.49382557
C       -0.82960633      -0.05020726       0.08292692
C       -1.39042120       1.16001061      -0.60227864
N       -1.70019683      -0.15553262      -1.10643571
H        2.13060862       1.69161065       0.54168539
H        1.93596124       0.88232837       2.15629153
H        0.45347594       0.46872714       0.66641627
H       -0.11648934      -2.45466045      -0.01200511
H        0.20977396      -1.54380770      -1.55254912
H       -1.34633835      -0.33336415       0.99816625
H       -0.73846990       1.74774142      -1.23965528
H       -2.18026867       1.72234819      -0.11407570
H       -2.64130606      -0.43279546      -0.85720703
16
Frame=5 idx=007998 GeodesicLength=0.5356049033996115 rxn_smarts="[C:1]([C:2]#[C:3][C:4]([C@@:5]1([H:13])[C:6]([H:14])([H:15])[N:7]1[H:16])([H:11])[H:12])([H:8])([H:9])[H:10]>>[C:1](=[C:2]=[C:3]=[C:4]([H:11])[H:12])([H:8])[H:9].[C:5]1([H:10])([H:13])[C:6]([H:14])([H:15])[N:7]1[H:16]"
C        1.87338296       0.78383221       1.10351686
C        2.21073949      -0.41969489       0.51619337
C        1.72641201      -1.37664031      -0.10097952
C        0.42618085      -1.63831714      -0.50436669
C       -0.84991765      -0.05069064       0.08619695
C       -1.39076920       1.14736182      -0.63215515
N       -1.73214136      -0.17769039      -1.09216307
H        2.12918767       1.70598094       0.58722757
H        2.01006725       0.85178256       2.18119811
H        0.43854960       0.47685925       0.72729708
H       -0.08515076      -2.47220018      -0.02894794
H        0.19492579      -1.53253497      -1.56026001
H       -1.37175151      -0.31225719       1.00514122
H       -0.73214114       1.70006195      -1.29355502
H       -2.16967868       1.74028293      -0.16315428
H       -2.67789533      -0.42613592      -0.83118947
16
Frame=6 idx=007998 GeodesicLength=0.6421520056213589 rxn_smarts="[C:1]([C:2]#[C:3][C:4]([C@@:5]1([H:13])[C:6]([H:14])([H:15])[N:7]1[H:16])([H:11])[H:12])([H:8])([H:9])[H:10]>>[C:1](=[C:2]=[C:3]=[C:4]([H:11])[H:12])([H:8])[H:9].[C:5]1([H:10])([H:13])[C:6]([H:14])([H:15])[N:7]1[H:16]"
C        1.88853272       0.78276644       1.13240313
C        2.21959330      -0.40252904       0.50226890
C        1.72529336      -1.34622988      -0.12895540
C        0.42390979      -1.63024419      -0.51475579
C       -0.87060306      -0.05113036       0.09019037
C       -1.39076589       1.13327144      -0.66189726
N       -1.76386090      -0.19925453      -1.07703675
H        2.12808018       1.71961249       0.63495843
H        2.08447676       0.82094628       2.20267801
H        0.42398471       0.48490276       0.78770151
H       -0.05258427      -2.48901512      -0.04712824
H        0.17925608      -1.52156530      -1.56761388
H       -1.39748715      -0.28953649       1.01270745
H       -0.72569452       1.64963118      -1.34583048
H       -2.15824604       1.75632696      -0.21380594
H       -2.71388507      -0.41795264      -0.80588407
16
Frame=7 idx=007998 GeodesicLength=0.7487529391993104 rxn_smarts="[C:1]([C:2]#[C:3][C:4]([C@@:5]1([H:13])[C:6]([H:14])([H:15])[N:7]1[H:16])([H:11])[H:12])([H:8])([H:9])[H:10]>>[C:1](=[C:2]=[C:3]=[C:4]([H:11])[H:12])([H:8])[H:9].[C:5]1([H:10])([H:13])[C:6]([H:14])([H:15])[N:7]1[H:16]"
C        1.90377147       0.78101343       1.16197938
C        2.22754073      -0.38420563       0.48853901
C        1.72278218      -1.31397065      -0.15665350
C        0.42118771      -1.62182976      -0.52488787
C       -0.89169814      -0.05144655       0.09480609
C       -1.39060367       1.11776948      -0.69139034
N       -1.79526316      -0.22013796      -1.06128045
H        2.12756045       1.73225281       0.68469259
H        2.15925818       0.78999077       2.22059952
H        0.40985089       0.49305606       0.84781435
H       -0.01885737      -2.50495807      -0.06657858
H        0.16288150      -1.51093382      -1.57453371
H       -1.42356237      -0.26512485       1.02065969
H       -0.71941409       1.59676469      -1.39620582
H       -2.14629032       1.77020692      -0.26587517
H       -2.74914399      -0.40844687      -0.78168516
16
Frame=8 idx=007998 GeodesicLength=0.8554657709521328 rxn_smarts="[C:1]([C:2]#[C:3][C:4]([C@@:5]1([H:13])[C:6]([H:14])([H:15])[N:7]1[H:16])([H:11])[H:12])([H:8])([H:9])[H:10]>>[C:1](=[C:2]=[C:3]=[C:4]([H:11])[H:12])([H:8])[H:9].[C:5]1([H:10])([H:13])[C:6]([H:14])([H:15])[N:7]1[H:16]"
C        1.91935113       0.77845149       1.19217599
C        2.23461269      -0.36485826       0.47512687
C        1.71875480      -1.27998795      -0.18378991
C        0.41799934      -1.61310273      -0.53466080
C       -0.91321517      -0.05155871       0.09992459
C       -1.39044656       1.10092620      -0.72052219
N       -1.82625751      -0.24026611      -1.04512582
H        2.12782307       1.74367214       0.73619916
H        2.23444033       0.75912813       2.23482723
H        0.39619320       0.50144567       0.90790311
H        0.01596035      -2.51989937      -0.08732563
H        0.14593692      -1.50068206      -1.58094960
H       -1.44997421      -0.23898004       1.02875842
H       -0.71352241       1.54182974      -1.44443121
H       -2.13409720       1.78171991      -0.31916102
H       -2.78355876      -0.39783804      -0.75894921
16
Frame=9 idx=007998 GeodesicLength=0.9623502394707357 rxn_smarts="[C:1]([C:2]#[C:3][C:4]([C@@:5]1([H:13])[C:6]([H:14])([H:15])[N:7]1[H:16])([H:11])[H:12])([H:8])([H:9])[H:10]>>[C:1](=[C:2]=[C:3]=[C:4]([H:11])[H:12])([H:8])[H:9].[C:5]1([H:10])([H:13])[C:6]([H:14])([H:15])[N:7]1[H:16]"
C        1.93548376       0.77496007       1.22291039
C        2.24084650      -0.34458680       0.46209644
C        1.71313766      -1.24440383      -0.21011259
C        0.41435078      -1.60410824      -0.54397091
C       -0.93515780      -0.05138243       0.10542394
C       -1.39043347       1.08283585      -0.74921162
N       -1.85679036      -0.25958920      -1.02878591
H        2.12901186       1.75368218       0.78929143
H        2.30999153       0.72851585       2.24524552
H        0.38304640       0.51014860       0.96826327
H        0.05183000      -2.53372039      -0.10936045
H        0.12855171      -1.49086722      -1.58679849
H       -1.47670612      -0.21106472       1.03676907
H       -0.70816394       1.48518474      -1.49033056
H       -2.12192200       1.79073772      -0.37347143
H       -2.81707650      -0.38634218      -0.73795810
16
Frame=10 idx=007998 GeodesicLength=1.0694121019595406 rxn_smarts="[C:1]([C:2]#[C:3][C:4]([C@@:5]1([H:13])[C:6]([H:14])([H:15])[N:7]1[H:16])([H:11])[H:12])([H:8])([H:9])[H:10]>>[C:1](=[C:2]=[C:3]=[C:4]([H:11])[H:12])([H:8])[H:9].[C:5]1([H:10])([H:13])[C:6]([H:14])([H:15])[N:7]1[H:16]"
C        1.95234268       0.77042525       1.25407702
C        2.24626677      -0.32355544       0.44959514
C        1.70584579      -1.20741389      -0.23530425
C        0.41025217      -1.59491394      -0.55272788
C       -0.95749622      -0.05082586       0.11115335
C       -1.39070215       1.06362722      -0.77738027
N       -1.88679273      -0.27807335      -1.01246727
H        2.13124532       1.76207916       0.84370824
H        2.38583937       0.69840685       2.25174771
H        0.37045376       0.51920693       1.02918418
H        0.08866566      -2.54631610      -0.13272279
H        0.11090249      -1.48149388      -1.59202755
H       -1.50368072      -0.18137514       1.04442786
H       -0.70351072       1.42725840      -1.53377127
H       -2.11000829       1.79717898      -0.42856158
H       -2.84962320      -0.37421519      -0.71893065
16
Frame=11 idx=007998 GeodesicLength=1.1766490777001477 rxn_smarts="[C:1]([C:2]#[C:3][C:4]([C@@:5]1([H:13])[C:6]([H:14])([H:15])[N:7]1[H:16])([H:11])[H:12])([H:8])([H:9])[H:10]>>[C:1](=[C:2]=[C:3]=[C:4]([H:11])[H:12])([H:8])[H:9].[C:5]1([H:10])([H:13])[C:6]([H:14])([H:15])[N:7]1[H:16]"
C        1.97007558       0.76473237       1.28557233
C        2.25091002      -0.30191529       0.43773677
C        1.69684135      -1.16922328      -0.25906970
C        0.40573260      -1.58559412      -0.56084719
C       -0.98019070      -0.04978748       0.11696069
C       -1.39138359       1.04344291      -0.80499147
N       -1.91622950      -0.29571301      -0.99633968
H        2.13462249       1.76868743       0.89923837
H        2.46184955       0.66900213       2.25427237
H        0.35846819       0.52864382       1.09094356
H        0.12639994      -2.55758813      -0.15744143
H        0.09316312      -1.47255447      -1.59659486
H       -1.53078865      -0.14989987       1.05149131
H       -0.69970784       1.36845261      -1.57471812
H       -2.09859104       1.80102509      -0.48422277
H       -2.88117152      -0.36171071      -0.70199019
16
Frame=12 idx=007998 GeodesicLength=1.2840323612507942 rxn_smarts="[C:1]([C:2]#[C:3][C:4]([C@@:5]1([H:13])[C:6]([H:14])([H:15])[N:7]1[H:16])([H:11])[H:12])([H:8])([H:9])[H:10]>>[C:1](=[C:2]=[C:3]=[C:4]([H:11])[H:12])([H:8])[H:9].[C:5]1([H:10])([H:13])[C:6]([H:14])([H:15])[N:7]1[H:16]"
C        1.98882474       0.75776256       1.31728631
C        2.25484142      -0.27986525       0.42667705
C        1.68612135      -1.13008503      -0.28110777
C        0.40083836      -1.57623305      -0.56826378
C       -1.00317602      -0.04814736       0.12267621
C       -1.39262814       1.02244940      -0.83203885
N       -1.94507442      -0.31252151      -0.98054550
H        2.13925179       1.77332659       0.95565430
H        2.53781383       0.64052031       2.25283127
H        0.34717021       0.53847366       1.15379487
H        0.16494384      -2.56743316      -0.18354456
H        0.07552478      -1.46400163      -1.60047912
H       -1.55786280      -0.11663630       1.05772053
H       -0.69694087       1.30918988      -1.61321943
H       -2.08794185       1.80230096      -0.54026523
H       -2.91170621      -0.34910006      -0.68717631
16
Frame=13 idx=007998 GeodesicLength=1.3915578155284702 rxn_smarts="[C:1]([C:2]#[C:3][C:4]([C@@:5]1([H:13])[C:6]([H:14])([H:15])[N:7]1[H:16])([H:11])[H:12])([H:8])([H:9])[H:10]>>[C:1](=[C:2]=[C:3]=[C:4]([H:11])[H:12])([H:8])[H:9].[C:5]1([H:10])([H:13])[C:6]([H:14])([H:15])[N:7]1[H:16]"
C        2.00872080       0.74943071       1.34913286
C        2.25809453      -0.25743295       0.41637779
C        1.67372455      -1.09011704      -0.30122822
C        0.39562602      -1.56686748      -0.57489613
C       -1.02640905      -0.04577418       0.12815796
C       -1.39458055       1.00074149      -0.85862403
N       -1.97338533      -0.32858595      -0.96511859
H        2.14541189       1.77591898       1.01298017
H        2.61336694       0.61280444       2.24756411
H        0.33665146       0.54882836       1.21791199
H        0.20431984      -2.57574142      -0.21107195
H        0.05811111      -1.45580606      -1.60363726
H       -1.58472832      -0.08147441       1.06294285
H       -0.69535646       1.24968264      -1.64949468
H       -2.07827230       1.80104542      -0.59664722
H       -2.94129514      -0.33665258      -0.67434964
16
Frame=14 idx=007998 GeodesicLength=1.499106278023007 rxn_smarts="[C:1]([C:2]#[C:3][C:4]([C@@:5]1([H:13])[C:6]([H:14])([H:15])[N:7]1[H:16])([H:11])[H:12])([H:8])([H:9])[H:10]>>[C:1](=[C:2]=[C:3]=[C:4]([H:11])[H:12])([H:8])[H:9].[C:5]1([H:10])([H:13])[C:6]([H:14])([H:15])[N:7]1[H:16]"
C        2.02986358       0.73965580       1.38096939
C        2.26077582      -0.23504181       0.40723561
C        1.65971279      -1.04982803      -0.31893516
C        0.39015614      -1.55762996      -0.58071857
C       -1.04977988      -0.04253578       0.13320102
C       -1.39742195       0.97856184      -0.88474063
N       -2.00109534      -0.34390615      -0.95020422
H        2.15309502       1.77625511       1.07068937
H        2.68837799       0.58639603       2.23854975
H        0.32701779       0.55961092       1.28361184
H        0.24427372      -2.58245823      -0.24017911
H        0.04122905      -1.44774085      -1.60610758
H       -1.61115760      -0.04451384       1.06690239
H       -0.69518753       1.19049014      -1.68362620
H       -2.06995662       1.79734872      -0.65314325
H       -2.96990298      -0.32466392      -0.66350467
16
Frame=15 idx=007998 GeodesicLength=1.6065416263183898 rxn_smarts="[C:1]([C:2]#[C:3][C:4]([C@@:5]1([H:13])[C:6]([H:14])([H:15])[N:7]1[H:16])([H:11])[H:12])([H:8])([H:9])[H:10]>>[C:1](=[C:2]=[C:3]=[C:4]([H:11])[H:12])([H:8])[H:9].[C:5]1([H:10])([H:13])[C:6]([H:14])([H:15])[N:7]1[H:16]"
C        2.05231447       0.72837043       1.41269152
C        2.26296496      -0.21295657       0.39943437
C        1.64419634      -1.00956419      -0.33390205
C        0.38449671      -1.54859690      -0.58569623
C       -1.07319245      -0.03828823       0.13763013
C       -1.40129922       0.95607292      -0.91048506
N       -2.02819621      -0.35853756      -0.93583137
H        2.16234162       1.77421752       1.12851989
H        2.76258929       0.56149688       2.22595310
H        0.31837510       0.57078303       1.35116386
H        0.28467379      -2.58749412      -0.27098480
H        0.02508859      -1.43961968      -1.60790174
H       -1.63692222      -0.00574030       1.06941004
H       -0.69660092       1.13193800      -1.71585766
H       -2.06327818       1.79130536      -0.70968388
H       -2.99755166      -0.31338659      -0.65446012
16
Frame=16 idx=007998 GeodesicLength=1.7137593939170568 rxn_smarts="[C:1]([C:2]#[C:3][C:4]([C@@:5]1([H:13])[C:6]([H:14])([H:15])[N:7]1[H:16])([H:11])[H:12])([H:8])([H:9])[H:10]>>[C:1](=[C:2]=[C:3]=[C:4]([H:11])[H:12])([H:8])[H:9].[C:5]1([H:10])([H:13])[C:6]([H:14])([H:15])[N:7]1[H:16]"
C        2.07615989       0.71550505       1.44424148
C        2.26477733      -0.19136252       0.39306577
C        1.62732378      -0.96962625      -0.34588904
C        0.37872539      -1.53983411      -0.58981195
C       -1.09653762      -0.03285807       0.14125216
C       -1.40639773       0.93341833      -0.93603440
N       -2.05470968      -0.37256937      -0.92198256
H        2.17324875       1.76974901       1.18638690
H        2.83574585       0.53812257       2.21007259
H        0.31087066       0.58234789       1.42081332
H        0.32540771      -2.59073009      -0.30352836
H        0.00984540      -1.43128156      -1.60904045
H       -1.66175459       0.03491065       1.07028724
H       -0.69983536       1.07427990      -1.74656297
H       -2.05857444       1.78301161      -0.76632240
H       -3.02429535      -0.30308304      -0.64694734
