15
Frame=0 idx=006672 GeodesicLength=0.0 rxn_smarts="[C:1]([C@@:2]1([O:3][H:11])[C:4]([H:12])([H:13])[C:5]([H:14])([H:15])[C:6]1=[O:7])([H:8])([H:9])[H:10]>>[C:1](=[C:2]1[C:4]([H:12])([H:13])[C:5]([H:14])([H:15])[C:6]1=[O:7])([H:9])[H:10].[O:3]([H:8])[H:11]"
C       -1.76072127      -0.61491212      -0.11327872
C       -0.40608397      -0.26952072      -0.02099302
O       -0.77648948       1.62987939      -0.18826024
C        0.58097111      -0.25359002       1.12973990
C        1.75523783      -0.05844714       0.13426162
C        0.75478449      -0.24789906      -1.00709425
O        0.82928105      -0.38850782      -2.18737663
H       -1.73685763       0.74604922      -0.17797959
H       -2.11273818      -0.99721296      -1.06542171
H       -2.25256104      -0.99052992       0.77592854
H       -0.63140530       1.99048983      -1.07176929
H        0.42127760       0.52958921       1.86485032
H        0.59583018      -1.22489957       1.62774214
H        2.18182783       0.94396963       0.13832363
H        2.55764678      -0.79445794       0.16132736
15
Frame=1 idx=006672 GeodesicLength=0.06451152718055089 rxn_smarts="[C:1]([C@@:2]1([O:3][H:11])[C:4]([H:12])([H:13])[C:5]([H:14])([H:15])[C:6]1=[O:7])([H:8])([H:9])[H:10]>>[C:1](=[C:2]1[C:4]([H:12])([H:13])[C:5]([H:14])([H:15])[C:6]1=[O:7])([H:9])[H:10].[O:3]([H:8])[H:11]"
C       -1.75537063      -0.61990952      -0.11344315
C       -0.40478004      -0.25604775      -0.01873022
O       -0.79211615       1.64262062      -0.19293749
C        0.58204025      -0.24466465       1.13268020
C        1.75846542      -0.07255640       0.13556789
C        0.75420443      -0.24143668      -1.00507617
O        0.82522492      -0.36079773      -2.18819220
H       -1.76227829       0.75734269      -0.17503879
H       -2.10088471      -1.00116412      -1.06878507
H       -2.23300286      -1.03002519       0.76855509
H       -0.64445078       1.99392163      -1.07958411
H        0.43458302       0.55054924       1.85757460
H        0.58572608      -1.20821799       1.64533596
H        2.21016841       0.91878213       0.14021043
H        2.54247092      -0.82839628       0.16186305
15
Frame=2 idx=006672 GeodesicLength=0.12882062820444062 rxn_smarts="[C:1]([C@@:2]1([O:3][H:11])[C:4]([H:12])([H:13])[C:5]([H:14])([H:15])[C:6]1=[O:7])([H:8])([H:9])[H:10]>>[C:1](=[C:2]1[C:4]([H:12])([H:13])[C:5]([H:14])([H:15])[C:6]1=[O:7])([H:9])[H:10].[O:3]([H:8])[H:11]"
C       -1.74978012      -0.62485392      -0.11343916
C       -0.40344786      -0.24253662      -0.01640991
O       -0.80821091       1.65521466      -0.19752383
C        0.58321346      -0.23553648       1.13563649
C        1.76140886      -0.08695869       0.13688048
C        0.75364915      -0.23477019      -1.00301849
O        0.82154587      -0.33290509      -2.18855221
H       -1.78819591       0.76838683      -0.17219048
H       -2.08889711      -1.00473202      -1.07203413
H       -2.21209510      -1.06943729       0.76033313
H       -0.65785039       1.99728869      -1.08714312
H        0.44833214       0.57164656       1.84989922
H        0.57576489      -1.19083360       1.66310917
H        2.23833262       0.89247957       0.14207457
H        2.52623044      -0.86245242       0.16237828
15
Frame=3 idx=006672 GeodesicLength=0.19293530392481145 rxn_smarts="[C:1]([C@@:2]1([O:3][H:11])[C:4]([H:12])([H:13])[C:5]([H:14])([H:15])[C:6]1=[O:7])([H:8])([H:9])[H:10]>>[C:1](=[C:2]1[C:4]([H:12])([H:13])[C:5]([H:14])([H:15])[C:6]1=[O:7])([H:9])[H:10].[O:3]([H:8])[H:11]"
C       -1.74394622      -0.62975613      -0.11325128
C       -0.40208522      -0.22900345      -0.01403583
O       -0.82475858       1.66763906      -0.20200559
C        0.58449652      -0.22622039       1.13860538
C        1.76405008      -0.10163979       0.13820246
C        0.75312986      -0.22791169      -1.00091588
O        0.81825876      -0.30484224      -2.18845765
H       -1.81461386       0.77917427      -0.16948596
H       -2.07679838      -1.00792602      -1.07514304
H       -2.18981372      -1.10868047       0.75126237
H       -0.67156397       2.00058162      -1.09442628
H        0.46251906       0.59283963       1.84181925
H        0.56597241      -1.17275167       1.68103791
H        2.26624353       0.86507035       0.14391431
H        2.50890971      -0.89657307       0.16287982
15
Frame=4 idx=006672 GeodesicLength=0.25686371936032626 rxn_smarts="[C:1]([C@@:2]1([O:3][H:11])[C:4]([H:12])([H:13])[C:5]([H:14])([H:15])[C:6]1=[O:7])([H:8])([H:9])[H:10]>>[C:1](=[C:2]1[C:4]([H:12])([H:13])[C:5]([H:14])([H:15])[C:6]1=[O:7])([H:9])[H:10].[O:3]([H:8])[H:11]"
C       -1.73786637      -0.63462501      -0.11286048
C       -0.40068893      -0.21545844      -0.01160799
O       -0.84175477       1.67987432      -0.20637068
C        0.58589805      -0.21672052       1.14158589
C        1.76637436      -0.11659607       0.13953877
C        0.75265565      -0.22086549      -0.99876193
O        0.81537495      -0.27661389      -2.18790670
H       -1.84154148       0.78969338      -0.16696224
H       -2.06460681      -1.01074701      -1.07808892
H       -2.16611658      -1.14769640       0.74131450
H       -0.68556785       2.00379025      -1.10141740
H        0.47715123       0.61410412       1.83332392
H        0.55637128      -1.15396101       1.69910610
H        2.29384460       0.83654877       0.14572779
H        2.49047269      -0.93072700       0.16337937
15
Frame=5 idx=006672 GeodesicLength=0.32061002202949723 rxn_smarts="[C:1]([C@@:2]1([O:3][H:11])[C:4]([H:12])([H:13])[C:5]([H:14])([H:15])[C:6]1=[O:7])([H:8])([H:9])[H:10]>>[C:1](=[C:2]1[C:4]([H:12])([H:13])[C:5]([H:14])([H:15])[C:6]1=[O:7])([H:9])[H:10].[O:3]([H:8])[H:11]"
C       -1.73153808      -0.63947621      -0.11225283
C       -0.39925528      -0.20192152      -0.00912747
O       -0.85917970       1.69189333      -0.21060562
C        0.58742712      -0.20705822       1.14457609
C        1.76836655      -0.13180766       0.14089140
C        0.75223823      -0.21365436      -0.99655072
O        0.81290707      -0.24823622      -2.18690016
H       -1.86898070       0.79993243      -0.16466429
H       -2.05234250      -1.01320308      -1.08085368
H       -2.14100724      -1.18637062       0.73049451
H       -0.69982102       2.00689927      -1.10809816
H        0.49222139       0.63538780       1.82441426
H        0.54699179      -1.13447809       1.71728396
H        2.32105144       0.80693862       0.14750902
H        2.47092094      -0.96484547       0.16388371
15
Frame=6 idx=006672 GeodesicLength=0.38417730268171435 rxn_smarts="[C:1]([C@@:2]1([O:3][H:11])[C:4]([H:12])([H:13])[C:5]([H:14])([H:15])[C:6]1=[O:7])([H:8])([H:9])[H:10]>>[C:1](=[C:2]1[C:4]([H:12])([H:13])[C:5]([H:14])([H:15])[C:6]1=[O:7])([H:9])[H:10].[O:3]([H:8])[H:11]"
C       -1.72495911      -0.64432131      -0.11141404
C       -0.39778048      -0.18840990      -0.00659653
O       -0.87701867       1.70367065      -0.21469988
C        0.58909290      -0.19725089       1.14757227
C        1.77001310      -0.14726075       0.14226202
C        0.75188673      -0.20629650      -0.99427937
O        0.81086827      -0.21971774      -2.18543394
H       -1.89693951       0.80987571      -0.16263151
H       -2.04002522      -1.01530558      -1.08341593
H       -2.11448427      -1.22459670       0.71880174
H       -0.71429157       2.00989336      -1.11445380
H        0.50773193       0.65664442       1.81508627
H        0.53785825      -1.11431848       1.73553939
H        2.34780003       0.77624900       0.14925638
H        2.45024763      -0.99885530       0.16440692
15
Frame=7 idx=006672 GeodesicLength=0.44757557367581596 rxn_smarts="[C:1]([C@@:2]1([O:3][H:11])[C:4]([H:12])([H:13])[C:5]([H:14])([H:15])[C:6]1=[O:7])([H:8])([H:9])[H:10]>>[C:1](=[C:2]1[C:4]([H:12])([H:13])[C:5]([H:14])([H:15])[C:6]1=[O:7])([H:9])[H:10].[O:3]([H:8])[H:11]"
C       -1.71813071      -0.64917731      -0.11032989
C       -0.39626143      -0.17494738      -0.00401584
O       -0.89524378       1.71517658      -0.21864259
C        0.59090418      -0.18732760       1.15057233
C        1.77130058      -0.16292718       0.14365143
C        0.75161109      -0.19882706      -0.99194329
O        0.80926734      -0.19108344      -2.18350802
H       -1.92541828       0.81951760      -0.16091070
H       -2.02768149      -1.01706136      -1.08575578
H       -2.08657561      -1.26224500       0.70624892
H       -0.72892875       2.01275211      -1.12046821
H        0.52367222       0.67780828       1.80534849
H        0.52900319      -1.09351795       1.75383266
H        2.37400007       0.74452171       0.15096147
H        2.42848138      -1.03266198       0.16495902
15
Frame=8 idx=006672 GeodesicLength=0.5108039597746755 rxn_smarts="[C:1]([C@@:2]1([O:3][H:11])[C:4]([H:12])([H:13])[C:5]([H:14])([H:15])[C:6]1=[O:7])([H:8])([H:9])[H:10]>>[C:1](=[C:2]1[C:4]([H:12])([H:13])[C:5]([H:14])([H:15])[C:6]1=[O:7])([H:9])[H:10].[O:3]([H:8])[H:11]"
C       -1.71105133      -0.65405822      -0.10899051
C       -0.39469276      -0.16155912      -0.00138764
O       -0.91383283       1.72638044      -0.22242408
C        0.59287273      -0.17731852       1.15357254
C        1.77222245      -0.17877903       0.14505927
C        0.75142001      -0.19127953      -0.98954305
O        0.80811497      -0.16235505      -2.18111779
H       -1.95442049       0.82884225      -0.15954653
H       -2.01533155      -1.01848594      -1.08785580
H       -2.05732785      -1.29916925       0.69286015
H       -0.74369150       2.01545680      -1.12612476
H        0.54003480       0.69881444       1.79520800
H        0.52045495      -1.07212027       1.77211872
H        2.39957814       0.71180035       0.15261986
H        2.40565026      -1.06616935       0.16555163
15
Frame=9 idx=006672 GeodesicLength=0.5737518346928494 rxn_smarts="[C:1]([C@@:2]1([O:3][H:11])[C:4]([H:12])([H:13])[C:5]([H:14])([H:15])[C:6]1=[O:7])([H:8])([H:9])[H:10]>>[C:1](=[C:2]1[C:4]([H:12])([H:13])[C:5]([H:14])([H:15])[C:6]1=[O:7])([H:9])[H:10].[O:3]([H:8])[H:11]"
C       -1.70373759      -0.65895269      -0.10743439
C       -0.39306234      -0.14828337       0.00126871
O       -0.93274380       1.73724466      -0.22602194
C        0.59501159      -0.16729939       1.15654899
C        1.77278085      -0.19473541       0.14646235
C        0.75133226      -0.18371905      -0.98709389
O        0.80741395      -0.13354541      -2.17827544
H       -1.98392856       0.83778647      -0.15868113
H       -2.00295022      -1.01972863      -1.08970259
H       -2.02708954      -1.33504974       0.67891579
H       -0.75847874       2.01802641      -1.13137652
H        0.55678236       0.71952121       1.78470400
H        0.51222475      -1.05029456       1.79025981
H        2.42446952       0.67817855       0.15424223
H        2.38197550      -1.09914906       0.16618402
15
Frame=10 idx=006672 GeodesicLength=0.6365435769984067 rxn_smarts="[C:1]([C@@:2]1([O:3][H:11])[C:4]([H:12])([H:13])[C:5]([H:14])([H:15])[C:6]1=[O:7])([H:8])([H:9])[H:10]>>[C:1](=[C:2]1[C:4]([H:12])([H:13])[C:5]([H:14])([H:15])[C:6]1=[O:7])([H:9])[H:10].[O:3]([H:8])[H:11]"
C       -1.69618545      -0.66387794      -0.10560792
C       -0.39137627      -0.13513092       0.00396523
O       -0.95192756       1.74775865      -0.22944965
C        0.59732074      -0.15727827       1.15951615
C        1.77296766      -0.21078851       0.14787940
C        0.75133963      -0.17617938      -0.98458435
O        0.80716924      -0.10471799      -2.17496806
H       -2.01394964       0.84642521      -0.15828352
H       -1.99062039      -1.02067391      -1.09126858
H       -1.99566581      -1.36996695       0.66425188
H       -0.77325822       2.02041348      -1.13625221
H        0.57390126       0.73990470       1.77384744
H        0.50436038      -1.02801132       1.80828199
H        2.44855700       0.64373642       0.15579656
H        2.35736744      -1.13161327       0.16687563
15
Frame=11 idx=006672 GeodesicLength=0.6991815609018371 rxn_smarts="[C:1]([C@@:2]1([O:3][H:11])[C:4]([H:12])([H:13])[C:5]([H:14])([H:15])[C:6]1=[O:7])([H:8])([H:9])[H:10]>>[C:1](=[C:2]1[C:4]([H:12])([H:13])[C:5]([H:14])([H:15])[C:6]1=[O:7])([H:9])[H:10].[O:3]([H:8])[H:11]"
C       -1.68840746      -0.66883012      -0.10350383
C       -0.38963096      -0.12213345       0.00669874
O       -0.97132088       1.75789903      -0.23270453
C        0.59980432      -0.14731396       1.16246990
C        1.77278543      -0.22687749       0.14930542
C        0.75144369      -0.16872866      -0.98201727
O        0.80737551      -0.07592985      -2.17119860
H       -2.04447082       0.85477674      -0.15842758
H       -1.97837894      -1.02135052      -1.09252953
H       -1.96317017      -1.40378179       0.64895314
H       -0.78793895       2.02260616      -1.14074199
H        0.59134501       0.75986000       1.76268584
H        0.49689492      -1.00537573       1.82611742
H        2.47173746       0.60862055       0.15726369
H        2.33193184      -1.16344091       0.16762919
15
Frame=12 idx=006672 GeodesicLength=0.7616742326518607 rxn_smarts="[C:1]([C@@:2]1([O:3][H:11])[C:4]([H:12])([H:13])[C:5]([H:14])([H:15])[C:6]1=[O:7])([H:8])([H:9])[H:10]>>[C:1](=[C:2]1[C:4]([H:12])([H:13])[C:5]([H:14])([H:15])[C:6]1=[O:7])([H:9])[H:10].[O:3]([H:8])[H:11]"
C       -1.68041490      -0.67380552      -0.10111697
C       -0.38782224      -0.10931576       0.00946504
O       -0.99087163       1.76764764      -0.23578674
C        0.60246660      -0.13745692       1.16540504
C        1.77224488      -0.24294717       0.15073552
C        0.75164389      -0.16142309      -0.97940082
O        0.80802752      -0.04722636      -2.16697257
H       -2.07548714       0.86285716      -0.15918023
H       -1.96625577      -1.02179282      -1.09345950
H       -1.92971657      -1.43637563       0.63310387
H       -0.80244819       2.02459802      -1.14484035
H        0.60907373       0.77929809       1.75126303
H        0.48985383      -0.98248759       1.84370166
H        2.49394471       0.57295682       0.15863371
H        2.30576128      -1.19452688       0.16844931
15
Frame=13 idx=006672 GeodesicLength=0.82402716427814 rxn_smarts="[C:1]([C@@:2]1([O:3][H:11])[C:4]([H:12])([H:13])[C:5]([H:14])([H:15])[C:6]1=[O:7])([H:8])([H:9])[H:10]>>[C:1](=[C:2]1[C:4]([H:12])([H:13])[C:5]([H:14])([H:15])[C:6]1=[O:7])([H:9])[H:10].[O:3]([H:8])[H:11]"
C       -1.67222796      -0.67879765      -0.09844247
C       -0.38594842      -0.09670698       0.01226256
O       -1.01051943       1.77698744      -0.23869527
C        0.60530920      -0.12776672       1.16831863
C        1.77136101      -0.25894425       0.15216158
C        0.75193516      -0.15433058      -0.97674312
O        0.80910734      -0.01867512      -2.16229593
H       -2.10698970       0.87069651      -0.16061491
H       -1.95428551      -1.02202605      -1.09404066
H       -1.89545554      -1.46763016       0.61679535
H       -0.81670199       2.02638365      -1.14854000
H        0.62703869       0.79811979       1.73963463
H        0.48326035      -0.95946548       1.86097842
H        2.51510432       0.53690650       0.15988188
H        2.27901247      -1.22475089       0.16933931
15
Frame=14 idx=006672 GeodesicLength=0.8862549450472886 rxn_smarts="[C:1]([C@@:2]1([O:3][H:11])[C:4]([H:12])([H:13])[C:5]([H:14])([H:15])[C:6]1=[O:7])([H:8])([H:9])[H:10]>>[C:1](=[C:2]1[C:4]([H:12])([H:13])[C:5]([H:14])([H:15])[C:6]1=[O:7])([H:9])[H:10].[O:3]([H:8])[H:11]"
C       -1.66385766      -0.68380325      -0.09547894
C       -0.38400492      -0.08432650       0.01508841
O       -1.03023039       1.78590599      -0.24142934
C        0.60833620      -0.11828074       1.17120678
C        1.77015516      -0.27482181       0.15357648
C        0.75231294      -0.14748875      -0.97405427
O        0.81060119       0.00968951      -2.15717247
H       -2.13898230       0.87831469      -0.16280649
H       -1.94249064      -1.02208218      -1.09425634
H       -1.86051063      -1.49747310       0.60011349
H       -0.83064542       2.02796681      -1.15183120
H        0.64520901       0.81626526       1.72784044
H        0.47713299      -0.93639598       1.87790435
H        2.53519347       0.50057733       0.16100012
H        2.25178099      -1.25404728       0.17029897
15
Frame=15 idx=006672 GeodesicLength=0.9483662714056049 rxn_smarts="[C:1]([C@@:2]1([O:3][H:11])[C:4]([H:12])([H:13])[C:5]([H:14])([H:15])[C:6]1=[O:7])([H:8])([H:9])[H:10]>>[C:1](=[C:2]1[C:4]([H:12])([H:13])[C:5]([H:14])([H:15])[C:6]1=[O:7])([H:9])[H:10].[O:3]([H:8])[H:11]"
C       -1.65531581      -0.68882063      -0.09223084
C       -0.38198654      -0.07219464       0.01793996
O       -1.04997094       1.79439094      -0.24398573
C        0.61155088      -0.10903838       1.17406510
C        1.76865338      -0.29053758       0.15496926
C        0.75277177      -0.14093668      -0.97134782
O        0.81249177       0.03783280      -2.15160885
H       -2.17146936       0.88573234      -0.16583652
H       -1.93088758      -1.02199408      -1.09410040
H       -1.82504642      -1.52582670       0.58317278
H       -0.84422544       2.02935562      -1.15470177
H        0.66354704       0.83367315       1.71592556
H        0.47148434      -0.91337527       1.89444020
H        2.55419826       0.46407854       0.16197628
H        2.22420464      -1.28233943       0.17132279
15
Frame=16 idx=006672 GeodesicLength=1.010355283277969 rxn_smarts="[C:1]([C@@:2]1([O:3][H:11])[C:4]([H:12])([H:13])[C:5]([H:14])([H:15])[C:6]1=[O:7])([H:8])([H:9])[H:10]>>[C:1](=[C:2]1[C:4]([H:12])([H:13])[C:5]([H:14])([H:15])[C:6]1=[O:7])([H:9])[H:10].[O:3]([H:8])[H:11]"
C       -1.64662252      -0.69384035      -0.08870620
C       -0.37989024      -0.06033633       0.02081413
O       -1.06969707       1.80243317      -0.24635911
C        0.61495360      -0.10009220       1.17688826
C        1.76688676      -0.30603445       0.15632638
C        0.75330337      -0.13472083      -0.96863853
O        0.81475474       0.06570328      -2.14561573
H       -2.20444951       0.89297831      -0.16980989
H       -1.91949273      -1.02180785      -1.09356608
H       -1.78926283      -1.55260656       0.56612089
H       -0.85736784       2.03056678      -1.15713242
H        0.68200443       0.85026598       1.70394758
H        0.46633458      -0.89052362       1.91053664
H        2.57209440       0.42755764       0.16279288
H        2.19645085      -1.30954296       0.17240121
