11
Frame=0 idx=003054 GeodesicLength=0.0 rxn_smarts="[O:1]([C@@:2]1([H:8])[C:3]([H:9])([H:10])[C@:4]1([C:5]#[N:6])[H:11])[H:7]>>[O:1]([C@@:2]([C:3]([H:9])([H:10])[H:11])([C+:4]=[C:5]=[N-:6])[H:8])[H:7]"
O       -0.72401173       1.39131041      -0.76726468
C       -0.85080011       0.35493711       0.14445602
C       -0.40411003      -1.03717906      -0.32963008
C        0.24274210      -0.03980608       1.04845256
C        1.51043329       0.49103015       0.65302367
N        2.52642740       0.98506907       0.41812676
H        0.19416001       1.67891343      -0.81844198
H       -1.84618328       0.38024714       0.57368087
H       -1.11698923      -1.83375180      -0.14582443
H        0.08902566      -1.01756692      -1.29415998
H        0.37930595      -1.35320340       0.51758129
11
Frame=1 idx=003054 GeodesicLength=0.05713489218178708 rxn_smarts="[O:1]([C@@:2]1([H:8])[C:3]([H:9])([H:10])[C@:4]1([C:5]#[N:6])[H:11])[H:7]>>[O:1]([C@@:2]([C:3]([H:9])([H:10])[H:11])([C+:4]=[C:5]=[N-:6])[H:8])[H:7]"
O       -0.73097742       1.38382895      -0.77564575
C       -0.84767940       0.35334205       0.14375784
C       -0.40361341      -1.03902022      -0.32961638
C        0.25227105      -0.03853392       1.04099641
C        1.51810779       0.49553949       0.64886791
N        2.53502533       0.98980707       0.41833745
H        0.17955968       1.69517407      -0.81762252
H       -1.83848689       0.37790066       0.58409924
H       -1.13458207      -1.82396299      -0.16944024
H        0.10420827      -1.02253237      -1.28674139
H        0.36616708      -1.37154281       0.54300742
11
Frame=2 idx=003054 GeodesicLength=0.11422569776380598 rxn_smarts="[O:1]([C@@:2]1([H:8])[C:3]([H:9])([H:10])[C@:4]1([C:5]#[N:6])[H:11])[H:7]>>[O:1]([C@@:2]([C:3]([H:9])([H:10])[H:11])([C+:4]=[C:5]=[N-:6])[H:8])[H:7]"
O       -0.73773210       1.37624872      -0.78385046
C       -0.84441173       0.35167875       0.14307126
C       -0.40312289      -1.04099617      -0.32965452
C        0.26205252      -0.03759075       1.03327369
C        1.52591500       0.50011945       0.64462223
N        2.54374978       0.99454405       0.41834934
H        0.16437459       1.71138952      -0.81662337
H       -1.83050377       0.37553578       0.59450374
H       -1.15140019      -1.81385419      -0.19368615
H        0.11929629      -1.02772863      -1.27913315
H        0.35178251      -1.38934653       0.56912739
11
Frame=3 idx=003054 GeodesicLength=0.17124134470583394 rxn_smarts="[O:1]([C@@:2]1([H:8])[C:3]([H:9])([H:10])[C@:4]1([C:5]#[N:6])[H:11])[H:7]>>[O:1]([C@@:2]([C:3]([H:9])([H:10])[H:11])([C+:4]=[C:5]=[N-:6])[H:8])[H:7]"
O       -0.74425286       1.36860015      -0.79184983
C       -0.84098547       0.34993951       0.14240059
C       -0.40265710      -1.04311938      -0.32976441
C        0.27208696      -0.03701880       1.02527794
C        1.53384718       0.50479039       0.64030407
N        2.55260338       0.99930537       0.41818837
H        0.14862693       1.72751293      -0.81546282
H       -1.82222309       0.37313135       0.60489357
H       -1.16741310      -1.80345032      -0.21850384
H        0.13423232      -1.03315908      -1.27137967
H        0.33613485      -1.40653214       0.59589602
11
Frame=4 idx=003054 GeodesicLength=0.22825919852352938 rxn_smarts="[O:1]([C@@:2]1([H:8])[C:3]([H:9])([H:10])[C@:4]1([C:5]#[N:6])[H:11])[H:7]>>[O:1]([C@@:2]([C:3]([H:9])([H:10])[H:11])([C+:4]=[C:5]=[N-:6])[H:8])[H:7]"
O       -0.75057734       1.36089907      -0.79960821
C       -0.83738761       0.34812782       0.14174175
C       -0.40219076      -1.04537086      -0.32996704
C        0.28239721      -0.03684448       1.01697046
C        1.54187442       0.50953262       0.63593192
N        2.56152438       1.00406658       0.41796872
H        0.13232006       1.74347406      -0.81422204
H       -1.81361490       0.37070170       0.61526264
H       -1.18263314      -1.79273577      -0.24376313
H        0.14895851      -1.03878728      -1.26355228
H        0.31932919      -1.42306346       0.62323721
11
Frame=5 idx=003054 GeodesicLength=0.2850663777949792 rxn_smarts="[O:1]([C@@:2]1([H:8])[C:3]([H:9])([H:10])[C@:4]1([C:5]#[N:6])[H:11])[H:7]>>[O:1]([C@@:2]([C:3]([H:9])([H:10])[H:11])([C+:4]=[C:5]=[N-:6])[H:8])[H:7]"
O       -0.75665782       1.35313979      -0.80715955
C       -0.83361881       0.34622065       0.14108449
C       -0.40175566      -1.04779827      -0.33027590
C        0.29298661      -0.03711228       1.00835941
C        1.55002883       0.51437036       0.63150576
N        2.57059603       1.00884544       0.41759676
H        0.11541987       1.75932140      -0.81273576
H       -1.80471427       0.36821245       0.62559968
H       -1.19697477      -1.78171464      -0.26948642
H        0.16347703      -1.04470713      -1.25563922
H        0.30121296      -1.43877776       0.65115075
11
Frame=6 idx=003054 GeodesicLength=0.34190750290086924 rxn_smarts="[O:1]([C@@:2]1([H:8])[C:3]([H:9])([H:10])[C@:4]1([C:5]#[N:6])[H:11])[H:7]>>[O:1]([C@@:2]([C:3]([H:9])([H:10])[H:11])([C+:4]=[C:5]=[N-:6])[H:8])[H:7]"
O       -0.76251897       1.34535279      -0.81445581
C       -0.82967068       0.34422312       0.14044559
C       -0.40135977      -1.05035600      -0.33067993
C        0.30383276      -0.03781061       0.99944559
C        1.55826986       0.51932772       0.62706353
N        2.57979738       1.01362793       0.41718437
H        0.09797729       1.77492891      -0.81119575
H       -1.79548360       0.36564770       0.63593481
H       -1.21046743      -1.77042875      -0.29562152
H        0.17769129      -1.05079258      -1.24767580
H        0.28193186      -1.45372023       0.67955495
11
Frame=7 idx=003054 GeodesicLength=0.3988586764437622 rxn_smarts="[O:1]([C@@:2]1([H:8])[C:3]([H:9])([H:10])[C@:4]1([C:5]#[N:6])[H:11])[H:7]>>[O:1]([C@@:2]([C:3]([H:9])([H:10])[H:11])([C+:4]=[C:5]=[N-:6])[H:8])[H:7]"
O       -0.76817718       1.33755374      -0.82148374
C       -0.82552844       0.34212218       0.13981512
C       -0.40099664      -1.05308396      -0.33124482
C        0.31497533      -0.03901492       0.99017962
C        1.56661374       0.52437410       0.62257421
N        2.58910112       1.01845650       0.41677805
H        0.07998133       1.79031159      -0.80953310
H       -1.78590579       0.36300807       0.64627073
H       -1.22317287      -1.75886785      -0.32209856
H        0.19163067      -1.05711954      -1.23978137
H        0.26147872      -1.46773992       0.70852385
11
Frame=8 idx=003054 GeodesicLength=0.4554126983474369 rxn_smarts="[O:1]([C@@:2]1([H:8])[C:3]([H:9])([H:10])[C@:4]1([C:5]#[N:6])[H:11])[H:7]>>[O:1]([C@@:2]([C:3]([H:9])([H:10])[H:11])([C+:4]=[C:5]=[N-:6])[H:8])[H:7]"
O       -0.77357905       1.32970833      -0.82827829
C       -0.82116789       0.33990146       0.13917248
C       -0.40068512      -1.05600809      -0.33194011
C        0.32642548      -0.04075166       0.98054910
C        1.57504434       0.52950463       0.61804688
N        2.59851918       1.02331800       0.41639769
H        0.06139003       1.80550599      -0.80765628
H       -1.77595206       0.36029520       0.65658611
H       -1.23497251      -1.74707255      -0.34884326
H        0.20519973      -1.06373287      -1.23189097
H        0.23977786      -1.48066843       0.73785664
11
Frame=9 idx=003054 GeodesicLength=0.5119445297359096 rxn_smarts="[O:1]([C@@:2]1([H:8])[C:3]([H:9])([H:10])[C@:4]1([C:5]#[N:6])[H:11])[H:7]>>[O:1]([C@@:2]([C:3]([H:9])([H:10])[H:11])([C+:4]=[C:5]=[N-:6])[H:8])[H:7]"
O       -0.77876041       1.32186162      -0.83481562
C       -0.81659988       0.33756060       0.13852098
C       -0.40043789      -1.05911777      -0.33280847
C        0.33817082      -0.04305178       0.97054057
C        1.58355615       0.53471044       0.61350324
N        2.60804481       1.02822338       0.41611735
H        0.04224051       1.82043307      -0.80562885
H       -1.76563722       0.35749681       0.66688840
H       -1.24595048      -1.73503637      -0.37578519
H        0.21837850      -1.07060307      -1.22412779
H        0.21699508      -1.49247692       0.76759539
11
Frame=10 idx=003054 GeodesicLength=0.5684104415732529 rxn_smarts="[O:1]([C@@:2]1([H:8])[C:3]([H:9])([H:10])[C@:4]1([C:5]#[N:6])[H:11])[H:7]>>[O:1]([C@@:2]([C:3]([H:9])([H:10])[H:11])([C+:4]=[C:5]=[N-:6])[H:8])[H:7]"
O       -0.78371530       1.31403870      -0.84108117
C       -0.81181873       0.33509309       0.13785206
C       -0.40027572      -1.06242228      -0.33387506
C        0.35021089      -0.04595130       0.96013234
C        1.59213420       0.53997928       0.60895697
N        2.61766284       1.03318404       0.41600668
H        0.02255462       1.83505504      -0.80344969
H       -1.75495473       0.35460748       0.67716148
H       -1.25611816      -1.72279180      -0.40282045
H        0.23110691      -1.07773739      -1.21655263
H        0.19321316      -1.50305484       0.79766947
11
Frame=11 idx=003054 GeodesicLength=0.6248909116019611 rxn_smarts="[O:1]([C@@:2]1([H:8])[C:3]([H:9])([H:10])[C@:4]1([C:5]#[N:6])[H:11])[H:7]>>[O:1]([C@@:2]([C:3]([H:9])([H:10])[H:11])([C+:4]=[C:5]=[N-:6])[H:8])[H:7]"
O       -0.78847027       1.30621981      -0.84707505
C       -0.80682131       0.33251484       0.13717520
C       -0.40019483      -1.06587784      -0.33509516
C        0.36251012      -0.04935739       0.94934135
C        1.60073805       0.54533445       0.60442799
N        2.62733261       1.03817357       0.41618381
H        0.00239351       1.84929319      -0.80123711
H       -1.74388050       0.35164273       0.68742114
H       -1.26554798      -1.71035972      -0.42986845
H        0.24330917      -1.08505455      -1.20917843
H        0.16863142      -1.51252908       0.82790470
11
Frame=12 idx=003054 GeodesicLength=0.6813145090946837 rxn_smarts="[O:1]([C@@:2]1([H:8])[C:3]([H:9])([H:10])[C@:4]1([C:5]#[N:6])[H:11])[H:7]>>[O:1]([C@@:2]([C:3]([H:9])([H:10])[H:11])([C+:4]=[C:5]=[N-:6])[H:8])[H:7]"
O       -0.79302454       1.29845279      -0.85280046
C       -0.80161917       0.32981038       0.13646747
C       -0.40023679      -1.06953247      -0.33652664
C        0.37508811      -0.05337528       0.93812608
C        1.60938473       0.55071724       0.59991288
N        2.63709581       1.04321158       0.41668653
H       -0.01828236       1.86316836      -0.79890677
H       -1.73244438       0.34860503       0.69764871
H       -1.27421641      -1.69777108      -0.45687414
H        0.25496581      -1.09262746      -1.20207155
H        0.14328918      -1.52065910       0.85833789
11
Frame=13 idx=003054 GeodesicLength=0.7375784385140842 rxn_smarts="[O:1]([C@@:2]1([H:8])[C:3]([H:9])([H:10])[C@:4]1([C:5]#[N:6])[H:11])[H:7]>>[O:1]([C@@:2]([C:3]([H:9])([H:10])[H:11])([C+:4]=[C:5]=[N-:6])[H:8])[H:7]"
O       -0.79733451       1.29069348      -0.85830479
C       -0.79618723       0.32695720       0.13569216
C       -0.40041142      -1.07340183      -0.33820157
C        0.38793398      -0.05804669       0.92644487
C        1.61805575       0.55605146       0.59539411
N        2.64685984       1.04829175       0.41758677
H       -0.03950554       1.87673432      -0.79632204
H       -1.72060111       0.34550748       0.70781261
H       -1.28219734      -1.68502980      -0.48373847
H        0.26605052      -1.10052363      -1.19532250
H        0.11733707      -1.52723374       0.88895886
11
Frame=14 idx=003054 GeodesicLength=0.7938118173444146 rxn_smarts="[O:1]([C@@:2]1([H:8])[C:3]([H:9])([H:10])[C@:4]1([C:5]#[N:6])[H:11])[H:7]>>[O:1]([C@@:2]([C:3]([H:9])([H:10])[H:11])([C+:4]=[C:5]=[N-:6])[H:8])[H:7]"
O       -0.80143353       1.28298444      -0.86356874
C       -0.79054281       0.32398278       0.13486490
C       -0.40073133      -1.07743913      -0.34006216
C        0.40100959      -0.06328584       0.91432136
C        1.62672059       0.56136304       0.59090341
N        2.65665635       1.05339767       0.41895229
H       -0.06122993       1.88987873      -0.79365025
H       -1.70836217       0.34235767       0.71792487
H       -1.28950528      -1.67216221      -0.51044337
H        0.27649112      -1.10862155      -1.18887452
H        0.09092739      -1.53245561       0.91963221
11
Frame=15 idx=003054 GeodesicLength=0.8500054335726103 rxn_smarts="[O:1]([C@@:2]1([H:8])[C:3]([H:9])([H:10])[C@:4]1([C:5]#[N:6])[H:11])[H:7]>>[O:1]([C@@:2]([C:3]([H:9])([H:10])[H:11])([C+:4]=[C:5]=[N-:6])[H:8])[H:7]"
O       -0.80532934       1.27532737      -0.86860488
C       -0.78468899       0.32087570       0.13396351
C       -0.40122997      -1.08167543      -0.34216642
C        0.41432325      -0.06914349       0.90171324
C        1.63539631       0.56657043       0.58641762
N        2.66644532       1.05857122       0.42091463
H       -0.08344960       1.90262133      -0.79083032
H       -1.69573085       0.33917377       0.72797737
H       -1.29625249      -1.65918974      -0.53691887
H        0.28627027      -1.11700667      -1.18285288
H        0.06424610      -1.53612449       0.95038701
11
Frame=16 idx=003054 GeodesicLength=0.9061868714612323 rxn_smarts="[O:1]([C@@:2]1([H:8])[C:3]([H:9])([H:10])[C@:4]1([C:5]#[N:6])[H:11])[H:7]>>[O:1]([C@@:2]([C:3]([H:9])([H:10])[H:11])([C+:4]=[C:5]=[N-:6])[H:8])[H:7]"
O       -0.80900994       1.26771872      -0.87344857
C       -0.77862224       0.31763549       0.13296557
C       -0.40192651      -1.08610842      -0.34450802
C        0.42786043      -0.07560676       0.88859540
C        1.64407569       0.57162106       0.58191533
N        2.67619920       1.06382052       0.42355268
H       -0.10619479       1.91496464      -0.78782560
H       -1.68268813       0.33597581       0.73795425
H       -1.30248794      -1.64610568      -0.56313889
H        0.29535546      -1.12569598      -1.17727111
H        0.03743873      -1.53821938       0.98120896
