17
Frame=0 idx=008391 GeodesicLength=0.0 rxn_smarts="[C:1]([O:2][C:3]([C:4]([H:11])([H:12])[H:13])([C:5]([H:14])([H:15])[H:16])[C:6](=[O:7])[H:17])([H:8])([H:9])[H:10]>>[C:1]([O:2][C@@:6]1([H:17])[C:3]([C:4]([H:11])([H:12])[H:13])([C:5]([H:14])([H:15])[H:16])[O:7]1)([H:8])([H:9])[H:10]"
C        2.24890575      -0.18404428      -0.50888255
O        1.37218383      -0.57120338       0.52394997
C       -0.74739374       0.03731122       0.22115126
C       -0.69420943       1.06829814      -0.81836133
C       -1.67635856       0.16974670       1.34707539
C        0.06843691      -1.19673937       0.06980851
O       -0.03941300      -1.63505081      -1.12815005
H        1.95402938      -0.65271328      -1.45133130
H        3.25470026      -0.51704168      -0.24401580
H        2.26883726       0.90699839      -0.62526922
H       -0.07783221       0.76164048      -1.65676841
H       -0.32900602       1.99435119      -0.35843944
H       -1.71020100       1.28709799      -1.16219036
H       -2.13834234       1.15087109       1.44081847
H       -2.45786660      -0.58313636       1.17877738
H       -1.17555642      -0.13083100       2.27077198
H       -0.12091412      -1.90555500       0.90105550
17
Frame=1 idx=008391 GeodesicLength=0.09556580850128216 rxn_smarts="[C:1]([O:2][C:3]([C:4]([H:11])([H:12])[H:13])([C:5]([H:14])([H:15])[H:16])[C:6](=[O:7])[H:17])([H:8])([H:9])[H:10]>>[C:1]([O:2][C@@:6]1([H:17])[C:3]([C:4]([H:11])([H:12])[H:13])([C:5]([H:14])([H:15])[H:16])[O:7]1)([H:8])([H:9])[H:10]"
C        2.25844191      -0.18995783      -0.51195105
O        1.36420791      -0.52055532       0.52459571
C       -0.73487398       0.04034755       0.22411345
C       -0.69986063       1.07718699      -0.81367096
C       -1.67576536       0.15905726       1.34529240
C        0.07236717      -1.19676211       0.07296390
O       -0.09000516      -1.61712084      -1.12466115
H        1.98875990      -0.71461325      -1.43239707
H        3.26112751      -0.49740763      -0.20783644
H        2.27679859       0.89141768      -0.69627709
H       -0.07621959       0.78626178      -1.65251896
H       -0.35133655       2.00860243      -0.35242965
H       -1.71802396       1.27513301      -1.16285769
H       -2.10828770       1.15039951       1.46952255
H       -2.47839867      -0.56246892       1.14498080
H       -1.19816024      -0.18034576       2.26762054
H       -0.09077116      -1.90917456       0.90551070
17
Frame=2 idx=008391 GeodesicLength=0.1906741462290037 rxn_smarts="[C:1]([O:2][C:3]([C:4]([H:11])([H:12])[H:13])([C:5]([H:14])([H:15])[H:16])[C:6](=[O:7])[H:17])([H:8])([H:9])[H:10]>>[C:1]([O:2][C@@:6]1([H:17])[C:3]([C:4]([H:11])([H:12])[H:13])([C:5]([H:14])([H:15])[H:16])[O:7]1)([H:8])([H:9])[H:10]"
C        2.26733290      -0.19577620      -0.51355291
O        1.35553488      -0.47154384       0.52308749
C       -0.72299488       0.04311023       0.22587318
C       -0.70593635       1.08611638      -0.80958942
C       -1.67409917       0.14867248       1.34347591
C        0.07588270      -1.19694107       0.07412832
O       -0.14057163      -1.59925657      -1.12074651
H        2.02398870      -0.77671251      -1.40750890
H        3.26649217      -0.47291429      -0.17153692
H        2.28286774       0.87148281      -0.76618253
H       -0.07555595       0.81088556      -1.64893150
H       -0.37362964       2.02225300      -0.34665582
H       -1.72588683       1.26401792      -1.16363444
H       -2.07667465       1.14849556       1.49899181
H       -2.49712343      -0.53964937       1.11353675
H       -1.21904077      -0.22913894       2.26209095
H       -0.06058579      -1.91310116       0.90715452
17
Frame=3 idx=008391 GeodesicLength=0.2853059514697995 rxn_smarts="[C:1]([O:2][C:3]([C:4]([H:11])([H:12])[H:13])([C:5]([H:14])([H:15])[H:16])[C:6](=[O:7])[H:17])([H:8])([H:9])[H:10]>>[C:1]([O:2][C@@:6]1([H:17])[C:3]([C:4]([H:11])([H:12])[H:13])([C:5]([H:14])([H:15])[H:16])[O:7]1)([H:8])([H:9])[H:10]"
C        2.27557463      -0.20139057      -0.51375462
O        1.34622552      -0.42452040       0.51956826
C       -0.71166753       0.04555631       0.22646376
C       -0.71232238       1.09496271      -0.80614314
C       -1.67138619       0.13863574       1.34162917
C        0.07888024      -1.19739790       0.07336568
O       -0.19111459      -1.58165127      -1.11633493
H        2.05964248      -0.83800127      -1.37671003
H        3.27070655      -0.44363965      -0.13576854
H        2.28715350       0.84723325      -0.83440589
H       -0.07576958       0.83533217      -1.64605609
H       -0.39575356       2.03520742      -0.34119592
H       -1.73370324       1.25364490      -1.16457001
H       -2.04330571       1.14519931       1.52907043
H       -2.51422408      -0.51461724       1.08454768
H       -1.23833016      -0.27714776       2.25429948
H       -0.03060590      -1.91740575       0.90599471
17
Frame=4 idx=008391 GeodesicLength=0.3794640015354458 rxn_smarts="[C:1]([O:2][C:3]([C:4]([H:11])([H:12])[H:13])([C:5]([H:14])([H:15])[H:16])[C:6](=[O:7])[H:17])([H:8])([H:9])[H:10]>>[C:1]([O:2][C@@:6]1([H:17])[C:3]([C:4]([H:11])([H:12])[H:13])([C:5]([H:14])([H:15])[H:16])[O:7]1)([H:8])([H:9])[H:10]"
C        2.28314268      -0.20670873      -0.51259955
O        1.33631727      -0.37976375       0.51419621
C       -0.70082132       0.04763597       0.22590767
C       -0.71890179       1.10363060      -0.80334313
C       -1.66766938       0.12897393       1.33975061
C        0.08127053      -1.19825395       0.07070872
O       -0.24173601      -1.56446783      -1.11138000
H        2.09573208      -0.89759902      -1.34007019
H        3.27366916      -0.40959048      -0.10107549
H        2.28978154       0.81864918      -0.90053900
H       -0.07674951       0.85946974      -1.64391487
H       -0.41756760       2.04738471      -0.33607565
H       -1.74137704       1.24394376      -1.16570584
H       -2.00799889       1.14047756       1.55960306
H       -2.52983631      -0.48733908       1.05814917
H       -1.25619232      -0.32429581       2.24435363
H       -0.00106307      -1.92214680       0.90203463
17
Frame=5 idx=008391 GeodesicLength=0.47319458471855513 rxn_smarts="[C:1]([O:2][C:3]([C:4]([H:11])([H:12])[H:13])([C:5]([H:14])([H:15])[H:16])[C:6](=[O:7])[H:17])([H:8])([H:9])[H:10]>>[C:1]([O:2][C@@:6]1([H:17])[C:3]([C:4]([H:11])([H:12])[H:13])([C:5]([H:14])([H:15])[H:16])[O:7]1)([H:8])([H:9])[H:10]"
C        2.29006872      -0.21148053      -0.51008588
O        1.32594309      -0.33724890       0.50720642
C       -0.69044258       0.04929336       0.22425726
C       -0.72565103       1.11209189      -0.80113674
C       -1.66290710       0.11963402       1.33781018
C        0.08297589      -1.19959245       0.06625564
O       -0.29239807      -1.54776652      -1.10591085
H        2.13235170      -0.95514116      -1.29761648
H        3.27523632      -0.37136564      -0.06814491
H        2.29073502       0.78606712      -0.96424583
H       -0.07843850       0.88330074      -1.64241470
H       -0.43904837       2.05881607      -0.33127353
H       -1.74892139       1.23485817      -1.16704061
H       -1.97069983       1.13439609       1.59024267
H       -2.54383344      -0.45782855       1.03428432
H       -1.27277847      -0.37067492       2.23234620
H        0.02780804      -1.92735881       0.89546685
17
Frame=6 idx=008391 GeodesicLength=0.5665975937634543 rxn_smarts="[C:1]([O:2][C:3]([C:4]([H:11])([H:12])[H:13])([C:5]([H:14])([H:15])[H:16])[C:6](=[O:7])[H:17])([H:8])([H:9])[H:10]>>[C:1]([O:2][C@@:6]1([H:17])[C:3]([C:4]([H:11])([H:12])[H:13])([C:5]([H:14])([H:15])[H:16])[O:7]1)([H:8])([H:9])[H:10]"
C        2.29637008      -0.21575251      -0.50637018
O        1.31507204      -0.29715247       0.49882081
C       -0.68045991       0.05050965       0.22154297
C       -0.73243781       1.12029070      -0.79951485
C       -1.65723776       0.11065592       1.33582479
C        0.08396577      -1.20149428       0.05996474
O       -0.34341280      -1.53163218      -1.09977867
H        2.16961072      -1.00992794      -1.24945696
H        3.27536313      -0.32868441      -0.03722800
H        2.29026308       0.74926667      -1.02548153
H       -0.08067545       0.90672410      -1.64154285
H       -0.46007353       2.06942821      -0.32673676
H       -1.75621110       1.22638099      -1.16862375
H       -1.93126683       1.12680392       1.62099126
H       -2.55642829      -0.42607287       1.01307228
H       -1.28833198      -0.41619242       2.21835919
H        0.05589064      -1.93315108       0.88615751
17
Frame=7 idx=008391 GeodesicLength=0.6596880999901836 rxn_smarts="[C:1]([O:2][C:3]([C:4]([H:11])([H:12])[H:13])([C:5]([H:14])([H:15])[H:16])[C:6](=[O:7])[H:17])([H:8])([H:9])[H:10]>>[C:1]([O:2][C@@:6]1([H:17])[C:3]([C:4]([H:11])([H:12])[H:13])([C:5]([H:14])([H:15])[H:16])[O:7]1)([H:8])([H:9])[H:10]"
C        2.30207887      -0.21954272      -0.50151503
O        1.30373633      -0.25953021       0.48925001
C       -0.67083094       0.05125162       0.21779239
C       -0.73916195       1.12819890      -0.79844310
C       -1.65069736       0.10201629       1.33379166
C        0.08421254      -1.20400342       0.05180667
O       -0.39495290      -1.51608549      -1.09293645
H        2.20751250      -1.06148706      -1.19569557
H        3.27380728      -0.28151644      -0.00862120
H        2.28851635       0.70816194      -1.08411607
H       -0.08330960       0.92971826      -1.64123949
H       -0.48053155       2.07919246      -0.32241371
H       -1.76316338       1.21849610      -1.17044548
H       -1.88967822       1.11761769       1.65168806
H       -2.56760556      -0.39217028       0.99457921
H       -1.30298468      -0.46074766       2.20247559
H        0.08305227      -1.93956997       0.87404249
17
Frame=8 idx=008391 GeodesicLength=0.7524716109001772 rxn_smarts="[C:1]([O:2][C:3]([C:4]([H:11])([H:12])[H:13])([C:5]([H:14])([H:15])[H:16])[C:6](=[O:7])[H:17])([H:8])([H:9])[H:10]>>[C:1]([O:2][C@@:6]1([H:17])[C:3]([C:4]([H:11])([H:12])[H:13])([C:5]([H:14])([H:15])[H:16])[O:7]1)([H:8])([H:9])[H:10]"
C        2.30717047      -0.22282046      -0.49555150
O        1.29194572      -0.22438698       0.47871152
C       -0.66152963       0.05150378       0.21301891
C       -0.74573587       1.13579987      -0.79790236
C       -1.64333048       0.09369696       1.33170276
C        0.08371349      -1.20712161       0.04173430
O       -0.44715045      -1.50111253      -1.08529557
H        2.24607732      -1.10932367      -1.13627094
H        3.27036943      -0.22999768       0.01716470
H        2.28565292       0.66262687      -1.13990808
H       -0.08619730       0.95227675      -1.64146418
H       -0.50034051       2.08809733      -0.31826839
H       -1.76972355       1.21119477      -1.17250179
H       -1.84590763       1.10667940       1.68215541
H       -2.57732237      -0.35622112       0.97888375
H       -1.31686960      -0.50425784       2.18475546
H        0.10917803      -1.94663383       0.85903600
17
Frame=9 idx=008391 GeodesicLength=0.8450732245760033 rxn_smarts="[C:1]([O:2][C:3]([C:4]([H:11])([H:12])[H:13])([C:5]([H:14])([H:15])[H:16])[C:6](=[O:7])[H:17])([H:8])([H:9])[H:10]>>[C:1]([O:2][C@@:6]1([H:17])[C:3]([C:4]([H:11])([H:12])[H:13])([C:5]([H:14])([H:15])[H:16])[O:7]1)([H:8])([H:9])[H:10]"
C        2.31165033      -0.22531997      -0.48860810
O        1.27981432      -0.19133300       0.46744694
C       -0.65261915       0.05123931       0.20725098
C       -0.75224600       1.14315679      -0.79782606
C       -1.63509110       0.08554909       1.32949847
C        0.08245450      -1.21079870       0.02978262
O       -0.49990360      -1.48658887      -1.07684423
H        2.28530522      -1.15340387      -1.07088943
H        3.26510745      -0.17531486       0.03935232
H        2.28177524       0.61302341      -1.19252283
H       -0.08936503       0.97456658      -1.64207707
H       -0.51964764       2.09625374      -0.31423244
H       -1.77599332       1.20448146      -1.17478933
H       -1.80016716       1.09396339       1.71194187
H       -2.58525101      -0.31840814       0.96585425
H       -1.33004936      -0.54683620       2.16529936
H        0.13422632      -1.95423016       0.84136268
17
Frame=10 idx=008391 GeodesicLength=0.9375523919038236 rxn_smarts="[C:1]([O:2][C:3]([C:4]([H:11])([H:12])[H:13])([C:5]([H:14])([H:15])[H:16])[C:6](=[O:7])[H:17])([H:8])([H:9])[H:10]>>[C:1]([O:2][C@@:6]1([H:17])[C:3]([C:4]([H:11])([H:12])[H:13])([C:5]([H:14])([H:15])[H:16])[O:7]1)([H:8])([H:9])[H:10]"
C        2.31551728      -0.22724947      -0.48069538
O        1.26728532      -0.16059123       0.45566909
C       -0.64400224       0.05043064       0.20049838
C       -0.75848037       1.15019551      -0.79822267
C       -1.62609842       0.07764896       1.32721593
C        0.08044926      -1.21510437       0.01582328
O       -0.55341852      -1.47257436      -1.06738000
H        2.32498856      -1.19285776      -0.99972735
H        3.25764754      -0.11666219       0.05773909
H        2.27715076       0.55876338      -1.24187695
H       -0.09253093       0.99644315      -1.64307738
H       -0.53821584       2.10356347      -0.31025883
H       -1.78179193       1.19834319      -1.17734955
H       -1.75218429       1.07925863       1.74123453
H       -2.59158461      -0.27864418       0.95561102
H       -1.34281520      -0.58838504       2.14409914
H        0.15808363      -1.96257833       0.82069765
17
Frame=11 idx=008391 GeodesicLength=1.0299137300043766 rxn_smarts="[C:1]([O:2][C:3]([C:4]([H:11])([H:12])[H:13])([C:5]([H:14])([H:15])[H:16])[C:6](=[O:7])[H:17])([H:8])([H:9])[H:10]>>[C:1]([O:2][C@@:6]1([H:17])[C:3]([C:4]([H:11])([H:12])[H:13])([C:5]([H:14])([H:15])[H:16])[O:7]1)([H:8])([H:9])[H:10]"
C        2.31875666      -0.22863015      -0.47181366
O        1.25439040      -0.13207289       0.44358779
C       -0.63565714       0.04905607       0.19277821
C       -0.76438482       1.15687792      -0.79909685
C       -1.61635067       0.06997577       1.32485617
C        0.07772859      -1.22001929      -0.00016231
O       -0.60762599      -1.45905754      -1.05678044
H        2.36467152      -1.22699759      -0.92314017
H        3.24776992      -0.05471230       0.07190280
H        2.27207205       0.49998557      -1.28738126
H       -0.09554737       1.01788672      -1.64441926
H       -0.55603459       2.11003406      -0.30636667
H       -1.78711034       1.19268691      -1.18020812
H       -1.70209300       1.06254085       1.76981405
H       -2.59616020      -0.23711746       0.94818409
H       -1.35519944      -0.62878960       2.12121856
H        0.18077443      -1.97164707       0.79702706
17
Frame=12 idx=008391 GeodesicLength=1.122253406548658 rxn_smarts="[C:1]([O:2][C:3]([C:4]([H:11])([H:12])[H:13])([C:5]([H:14])([H:15])[H:16])[C:6](=[O:7])[H:17])([H:8])([H:9])[H:10]>>[C:1]([O:2][C@@:6]1([H:17])[C:3]([C:4]([H:11])([H:12])[H:13])([C:5]([H:14])([H:15])[H:16])[O:7]1)([H:8])([H:9])[H:10]"
C        2.32133691      -0.22939881      -0.46200641
O        1.24114055      -0.10559900       0.43140439
C       -0.62757646       0.04711011       0.18411326
C       -0.76995712       1.16314730      -0.80048900
C       -1.60588142       0.06252436       1.32242734
C        0.07433561      -1.22549024      -0.01815582
O       -0.66241094      -1.44604513      -1.04482914
H        2.40381186      -1.25504107      -0.84167842
H        3.23550026       0.00938811       0.08140254
H        2.26696743       0.43710177      -1.32824162
H       -0.09832294       1.03884595      -1.64609140
H       -0.57318319       2.11566071      -0.30262634
H       -1.79197319       1.18736230      -1.18345099
H       -1.65001889       1.04371737       1.79747317
H       -2.59883345      -0.19395901       0.94359051
H       -1.36729561      -0.66791486       2.09677712
H        0.20236059      -1.98140986       0.77038083
17
Frame=13 idx=008391 GeodesicLength=1.2145890364095504 rxn_smarts="[C:1]([O:2][C:3]([C:4]([H:11])([H:12])[H:13])([C:5]([H:14])([H:15])[H:16])[C:6](=[O:7])[H:17])([H:8])([H:9])[H:10]>>[C:1]([O:2][C@@:6]1([H:17])[C:3]([C:4]([H:11])([H:12])[H:13])([C:5]([H:14])([H:15])[H:16])[O:7]1)([H:8])([H:9])[H:10]"
C        2.32335808      -0.22943645      -0.45140960
O        1.22766092      -0.08067076       0.41921307
C       -0.61983664       0.04462330       0.17452860
C       -0.77548125       1.16895346      -0.80250672
C       -1.59463784       0.05525607       1.31989490
C        0.07027888      -1.23138658      -0.03801143
O       -0.71744427      -1.43351020      -1.03133223
H        2.44154873      -1.27643575      -0.75636746
H        3.22173439       0.07260093       0.08638932
H        2.26217585       0.37187784      -1.36338577
H       -0.10104870       1.05935362      -1.64810681
H       -0.59014747       2.12052129      -0.29927920
H       -1.79668847       1.18204455      -1.18722278
H       -1.59635707       1.02301496       1.82363376
H       -2.59923736      -0.14962125       0.94181503
H       -1.37886725      -0.70557003       2.07107121
H        0.22298947      -1.99161500       0.74107610
17
Frame=14 idx=008391 GeodesicLength=1.307277518615096 rxn_smarts="[C:1]([O:2][C:3]([C:4]([H:11])([H:12])[H:13])([C:5]([H:14])([H:15])[H:16])[C:6](=[O:7])[H:17])([H:8])([H:9])[H:10]>>[C:1]([O:2][C@@:6]1([H:17])[C:3]([C:4]([H:11])([H:12])[H:13])([C:5]([H:14])([H:15])[H:16])[O:7]1)([H:8])([H:9])[H:10]"
C        2.32473453      -0.22888914      -0.43995122
O        1.21387014      -0.05733087       0.40719592
C       -0.61236348       0.04157196       0.16407560
C       -0.78076779       1.17424216      -0.80510685
C       -1.58270678       0.04823087       1.31733401
C        0.06559754      -1.23777140      -0.05978077
O       -0.77262743      -1.42148143      -1.01609836
H        2.47747645      -1.29106709      -0.66771469
H        3.20571133       0.13612779       0.08679149
H        2.25832063       0.30376951      -1.39297191
H       -0.10347816       1.07929223      -1.65040645
H       -0.60672588       2.12454579      -0.29621359
H       -1.80109363       1.17671835      -1.19153599
H       -1.54067520       1.00014134       1.84871883
H       -2.59747775      -0.10369543       0.94281283
H       -1.39050122      -0.74191865       2.04393078
H        0.24270670      -2.00248599       0.70892038
17
Frame=15 idx=008391 GeodesicLength=1.4004273054620169 rxn_smarts="[C:1]([O:2][C:3]([C:4]([H:11])([H:12])[H:13])([C:5]([H:14])([H:15])[H:16])[C:6](=[O:7])[H:17])([H:8])([H:9])[H:10]>>[C:1]([O:2][C@@:6]1([H:17])[C:3]([C:4]([H:11])([H:12])[H:13])([C:5]([H:14])([H:15])[H:16])[O:7]1)([H:8])([H:9])[H:10]"
C        2.32554235      -0.22772590      -0.42762834
O        1.19981372      -0.03524766       0.39537868
C       -0.60517586       0.03801862       0.15279537
C       -0.78599468       1.17897938      -0.80834894
C       -1.57007071       0.04146050       1.31477883
C        0.06031744      -1.24449148      -0.08335447
O       -0.82760553      -1.40993083      -0.99895970
H        2.51076567      -1.29894374      -0.57685078
H        3.18787678       0.19834281       0.08311737
H        2.25586699       0.23386605      -1.41649054
H       -0.10573689       1.09867766      -1.65301189
H       -0.62323931       2.12777749      -0.29358937
H       -1.80538737       1.17111852      -1.19643332
H       -1.48320174       0.97517189       1.87246824
H       -2.59330567      -0.05646773       0.94658607
H       -1.40213418      -0.77679133       2.01552000
H        0.26166898      -2.01381426       0.67402278
17
Frame=16 idx=008391 GeodesicLength=1.49416307746152 rxn_smarts="[C:1]([O:2][C:3]([C:4]([H:11])([H:12])[H:13])([C:5]([H:14])([H:15])[H:16])[C:6](=[O:7])[H:17])([H:8])([H:9])[H:10]>>[C:1]([O:2][C@@:6]1([H:17])[C:3]([C:4]([H:11])([H:12])[H:13])([C:5]([H:14])([H:15])[H:16])[O:7]1)([H:8])([H:9])[H:10]"
C        2.32587135      -0.22607344      -0.41442850
O        1.18551579      -0.01409576       0.38369750
C       -0.59830453       0.03404618       0.14071300
C       -0.79139416       1.18314106      -0.81230940
C       -1.55669272       0.03497959       1.31227563
C        0.05445455      -1.25138296      -0.10863471
O       -0.88204795      -1.39882307      -0.97978655
H        2.54076206      -1.30018271      -0.48482048
H        3.16881795       0.25773244       0.07612586
H        2.25516838       0.16327604      -1.43360792
H       -0.10803918       1.11754497      -1.65598538
H       -0.64005510       2.13025015      -0.29157974
H       -1.80981259       1.16498749      -1.20194656
H       -1.42407947       0.94814703       1.89466068
H       -2.58648074      -0.00815992       0.95315996
H       -1.41372428      -0.81002493       1.98600706
H        0.28004062      -2.02536217       0.63645956
