16
Frame=0 idx=005462 GeodesicLength=0.0 rxn_smarts="[O:1]([C:2]([C:3]([C:4]([C:5]([O:6][H:16])([H:14])[H:15])([H:12])[H:13])([H:10])[H:11])([H:8])[H:9])[H:7]>>[C:2](=[C:3]([C:4]([C:5]([O:6][H:16])([H:14])[H:15])([H:12])[H:13])[H:11])([H:8])[H:9].[O:1]([H:7])[H:10]"
O       -1.28377369      -0.06339661      -1.70832818
C       -1.67648762      -0.34012341      -0.01129305
C       -0.50701485      -1.08758600       0.31526918
C        0.63699200      -0.39812041       1.03357990
C        1.48466634       0.51614910       0.16547029
O        0.67203242       1.57430794      -0.35559430
H       -0.78465115       0.76858843      -1.66315441
H       -1.79101558       0.68795523       0.32282704
H       -2.61456336      -0.86541782      -0.14706664
H       -0.53510669      -0.80493633      -1.17194886
H       -0.66446216      -2.13476115       0.54963136
H        1.31362534      -1.15561245       1.43804629
H        0.28644277       0.18710902       1.89362599
H        1.91865073      -0.05774528      -0.66268711
H        2.30110375       0.94367571       0.75828598
H        1.24356178       2.22991399      -0.75666350
16
Frame=1 idx=005462 GeodesicLength=0.07140227405452718 rxn_smarts="[O:1]([C:2]([C:3]([C:4]([C:5]([O:6][H:16])([H:14])[H:15])([H:12])[H:13])([H:10])[H:11])([H:8])[H:9])[H:7]>>[C:2](=[C:3]([C:4]([C:5]([O:6][H:16])([H:14])[H:15])([H:12])[H:13])[H:11])([H:8])[H:9].[O:1]([H:7])[H:10]"
O       -1.27790298      -0.05137322      -1.71754957
C       -1.68206762      -0.33974545      -0.00559812
C       -0.50882991      -1.08439348       0.31395662
C        0.63454829      -0.39503676       1.03329326
C        1.48511704       0.51665865       0.16525257
O        0.67518496       1.57561259      -0.35723165
H       -0.77128673       0.77488590      -1.65699009
H       -1.80301890       0.68143465       0.34733296
H       -2.61658429      -0.87181828      -0.14125252
H       -0.53489673      -0.82186393      -1.18515144
H       -0.65835408      -2.13418090       0.54182858
H        1.30918790      -1.15175103       1.44257622
H        0.28088013       0.19303011       1.88985270
H        1.91873452      -0.05921210      -0.66173789
H        2.30194055       0.94252909       0.75859118
H        1.24734786       2.22522415      -0.76717279
16
Frame=2 idx=005462 GeodesicLength=0.14281089420131443 rxn_smarts="[O:1]([C:2]([C:3]([C:4]([C:5]([O:6][H:16])([H:14])[H:15])([H:12])[H:13])([H:10])[H:11])([H:8])[H:9])[H:7]>>[C:2](=[C:3]([C:4]([C:5]([O:6][H:16])([H:14])[H:15])([H:12])[H:13])[H:11])([H:8])[H:9].[O:1]([H:7])[H:10]"
O       -1.27154338      -0.03955870      -1.72694659
C       -1.68774439      -0.33917164       0.00025243
C       -0.51071997      -1.08107138       0.31246740
C        0.63206754      -0.39194194       1.03291574
C        1.48555762       0.51722472       0.16503102
O        0.67836116       1.57700192      -0.35885392
H       -0.75790713       0.78087855      -1.65103137
H       -1.81506626       0.67458112       0.37227460
H       -2.61863924      -0.87804892      -0.13522942
H       -0.53460898      -0.83891779      -1.19844565
H       -0.65244516      -2.13331783       0.53403088
H        1.30466921      -1.14793773       1.44691242
H        0.27536358       0.19888748       1.88603996
H        1.91881802      -0.06058216      -0.66081031
H        2.30274889       0.94139586       0.75894280
H        1.25108850       2.22057843      -0.77755000
16
Frame=3 idx=005462 GeodesicLength=0.21422279437367084 rxn_smarts="[O:1]([C:2]([C:3]([C:4]([C:5]([O:6][H:16])([H:14])[H:15])([H:12])[H:13])([H:10])[H:11])([H:8])[H:9])[H:7]>>[C:2](=[C:3]([C:4]([C:5]([O:6][H:16])([H:14])[H:15])([H:12])[H:13])[H:11])([H:8])[H:9].[O:1]([H:7])[H:10]"
O       -1.26468401      -0.02795726      -1.73654174
C       -1.69351755      -0.33839087       0.00625856
C       -0.51269198      -1.07761135       0.31080118
C        0.62954751      -0.38883505       1.03244572
C        1.48598524       0.51784864       0.16480551
O        0.68155651       1.57847234      -0.36046760
H       -0.74451230       0.78657855      -1.64528687
H       -1.82714986       0.66736577       0.39768859
H       -2.62072731      -0.88409860      -0.12899196
H       -0.53422259      -0.85611234      -1.21183072
H       -0.64674949      -2.13216917       0.52623805
H        1.30006621      -1.14417527       1.45105051
H        0.26989533       0.20468205       1.88218946
H        1.91890225      -0.06185492      -0.65990131
H        2.30352215       0.94028071       0.75934239
H        1.25477989       2.21597677      -0.78779977
16
Frame=4 idx=005462 GeodesicLength=0.2856294498517128 rxn_smarts="[O:1]([C:2]([C:3]([C:4]([C:5]([O:6][H:16])([H:14])[H:15])([H:12])[H:13])([H:10])[H:11])([H:8])[H:9])[H:7]>>[C:2](=[C:3]([C:4]([C:5]([O:6][H:16])([H:14])[H:15])([H:12])[H:13])[H:11])([H:8])[H:9].[O:1]([H:7])[H:10]"
O       -1.25730462      -0.01659507      -1.74636599
C       -1.69938265      -0.33738318       0.01241821
C       -0.51475764      -1.07400623       0.30896489
C        0.62699101      -0.38572077       1.03187853
C        1.48639531       0.51853256       0.16456996
O        0.68475643       1.58001767      -0.36207996
H       -0.73110045       0.79198290      -1.63977714
H       -1.83925448       0.65977241       0.42359208
H       -2.62284925      -0.88993915      -0.12253871
H       -0.53371190      -0.87347838      -1.22529947
H       -0.64130169      -2.13072725       0.51847809
H        1.29538560      -1.14047623       1.45496890
H        0.26449012       0.21040404       1.87830774
H        1.91898355      -0.06302491      -0.65901950
H        2.30425428       0.93918967       0.75978268
H        1.25840637       2.21145191      -0.79788032
16
Frame=5 idx=005462 GeodesicLength=0.35703300498070234 rxn_smarts="[O:1]([C:2]([C:3]([C:4]([C:5]([O:6][H:16])([H:14])[H:15])([H:12])[H:13])([H:10])[H:11])([H:8])[H:9])[H:7]>>[C:2](=[C:3]([C:4]([C:5]([O:6][H:16])([H:14])[H:15])([H:12])[H:13])[H:11])([H:8])[H:9].[O:1]([H:7])[H:10]"
O       -1.24939008      -0.00547612      -1.75644195
C       -1.70534149      -0.33613481       0.01873402
C       -0.51692582      -1.07024750       0.30695833
C        0.62439521      -0.38259813       1.03121266
C        1.48678545       0.51927875       0.16432351
O        0.68795644       1.58163682      -0.36369609
H       -0.71767006       0.79710453      -1.63450994
H       -1.85137375       0.65176637       0.45002497
H       -2.62500616      -0.89555791      -0.11586770
H       -0.53305486      -0.89103463      -1.23884922
H       -0.63611808      -2.12899134       0.51074998
H        1.29062403      -1.13684429       1.45866253
H        0.25914948       0.21605502       1.87439800
H        1.91906327      -0.06409119      -0.65816375
H        2.30494012       0.93812857       0.76026393
H        1.26196633       2.20700585      -0.80779927
16
Frame=6 idx=005462 GeodesicLength=0.42843215923840067 rxn_smarts="[O:1]([C:2]([C:3]([C:4]([C:5]([O:6][H:16])([H:14])[H:15])([H:12])[H:13])([H:10])[H:11])([H:8])[H:9])[H:7]>>[C:2](=[C:3]([C:4]([C:5]([O:6][H:16])([H:14])[H:15])([H:12])[H:13])[H:11])([H:8])[H:9].[O:1]([H:7])[H:10]"
O       -1.24092187       0.00539371      -1.76679273
C       -1.71139433      -0.33462945       0.02520883
C       -0.51920549      -1.06632496       0.30478176
C        0.62175742      -0.37946582       1.03044638
C        1.48715253       0.52008872       0.16406453
O        0.69115118       1.58332800      -0.36532066
H       -0.70422219       0.80195715      -1.62949057
H       -1.86350194       0.64330883       0.47702666
H       -2.62719675      -0.90093903      -0.10898151
H       -0.53222918      -0.90880247      -1.25247547
H       -0.63121525      -2.12695731       0.50305473
H        1.28577811      -1.13328278       1.46212578
H        0.25387625       0.22163640       1.87046311
H        1.91914009      -0.06505325      -0.65733408
H        2.30557475       0.93710114       0.76078475
H        1.26545669       2.20264114      -0.81756151
16
Frame=7 idx=005462 GeodesicLength=0.4998266605944815 rxn_smarts="[O:1]([C:2]([C:3]([C:4]([C:5]([O:6][H:16])([H:14])[H:15])([H:12])[H:13])([H:10])[H:11])([H:8])[H:9])[H:7]>>[C:2](=[C:3]([C:4]([C:5]([O:6][H:16])([H:14])[H:15])([H:12])[H:13])[H:11])([H:8])[H:9].[O:1]([H:7])[H:10]"
O       -1.23187950       0.01600836      -1.77744091
C       -1.71754228      -0.33284924       0.03184715
C       -0.52160645      -1.06222789       0.30243542
C        0.61907476      -0.37632231       1.02957775
C        1.48749347       0.52096421       0.16379085
O        0.69433544       1.58509013      -0.36695823
H       -0.69075742       0.80655411      -1.62472429
H       -1.87563319       0.63435638       0.50463714
H       -2.62942029      -0.90606510      -0.10188481
H       -0.53121218      -0.92680490      -1.26617232
H       -0.62661095      -2.12462070       0.49539356
H        1.28084425      -1.12979511       1.46535245
H        0.24867338       0.22715009       1.86650610
H        1.91921237      -0.06591047      -0.65653140
H        2.30615372       0.93611107       0.76134293
H        1.26887488       2.19836136      -0.82717139
16
Frame=8 idx=005462 GeodesicLength=0.5712165244944878 rxn_smarts="[O:1]([C:2]([C:3]([C:4]([C:5]([O:6][H:16])([H:14])[H:15])([H:12])[H:13])([H:10])[H:11])([H:8])[H:9])[H:7]>>[C:2](=[C:3]([C:4]([C:5]([O:6][H:16])([H:14])[H:15])([H:12])[H:13])[H:11])([H:8])[H:9].[O:1]([H:7])[H:10]"
O       -1.22224044       0.02636180      -1.78840841
C       -1.72378693      -0.33077476       0.03865537
C       -0.52413902      -1.05794471       0.29991944
C        0.61634420      -0.37316577       1.02860463
C        1.48780503       0.52190701       0.16349987
O        0.69750404       1.58692278      -0.36861305
H       -0.67727662       0.81090886      -1.62021562
H       -1.88776125       0.62486045       0.53289626
H       -2.63167606      -0.91091677      -0.09458526
H       -0.52998099      -0.94506634      -1.27993224
H       -0.62232383      -2.12197603       0.48776833
H        1.27581863      -1.12638465       1.46833584
H        0.24354415       0.23259830       1.86253003
H        1.91927770      -0.06666215      -0.65575738
H        2.30667290       0.93516167       0.76193556
H        1.27221850       2.19417031      -0.83663337
16
Frame=9 idx=005462 GeodesicLength=0.6426016018366133 rxn_smarts="[O:1]([C:2]([C:3]([C:4]([C:5]([O:6][H:16])([H:14])[H:15])([H:12])[H:13])([H:10])[H:11])([H:8])[H:9])[H:7]>>[C:2](=[C:3]([C:4]([C:5]([O:6][H:16])([H:14])[H:15])([H:12])[H:13])[H:11])([H:8])[H:9].[O:1]([H:7])[H:10]"
O       -1.21197973       0.03644702      -1.79971656
C       -1.73013009      -0.32838462       0.04564194
C       -0.52681424      -1.05346310       0.29723412
C        0.61356273      -0.36999436       1.02752451
C        1.48808362       0.52291907       0.16318844
O        0.70065128       1.58882588      -0.37028923
H       -0.66378072       0.81503419      -1.61596905
H       -1.89987855       0.61476756       0.56184282
H       -2.63396362      -0.91547157      -0.08709361
H       -0.52851239      -0.96361319      -1.29374553
H       -0.61837418      -2.11901679       0.48018227
H        1.27069767      -1.12305513       1.47106796
H        0.23849256       0.23798302       1.85853819
H        1.91933280      -0.06730724      -0.65501470
H        2.30712818       0.93425607       0.76255883
H        1.27548468       2.19007319      -0.84595039
16
Frame=10 idx=005462 GeodesicLength=0.7139819989192796 rxn_smarts="[O:1]([C:2]([C:3]([C:4]([C:5]([O:6][H:16])([H:14])[H:15])([H:12])[H:13])([H:10])[H:11])([H:8])[H:9])[H:7]>>[C:2](=[C:3]([C:4]([C:5]([O:6][H:16])([H:14])[H:15])([H:12])[H:13])[H:11])([H:8])[H:9].[O:1]([H:7])[H:10]"
O       -1.20107015       0.04625645      -1.81138572
C       -1.73657388      -0.32565565       0.05281799
C       -0.52964375      -1.04876997       0.29437986
C        0.61072742      -0.36680620       1.02633466
C        1.48832535       0.52400246       0.16285289
O        0.70377109       1.59079997      -0.37199045
H       -0.65027100       0.81894255      -1.61198851
H       -1.91197613       0.60401917       0.59151349
H       -2.63628292      -0.91970389      -0.07942399
H       -0.52678302      -0.98247377      -1.30760016
H       -0.61478355      -2.11573555       0.47263969
H        1.26547801      -1.11981057       1.47353975
H        0.23352330       0.24330599       1.85453417
H        1.91937341      -0.06784425      -0.65430703
H        2.30751563       0.93339713       0.76320811
H        1.27867017       2.18607614      -0.85512474
16
Frame=11 idx=005462 GeodesicLength=0.7853588907383792 rxn_smarts="[O:1]([C:2]([C:3]([C:4]([C:5]([O:6][H:16])([H:14])[H:15])([H:12])[H:13])([H:10])[H:11])([H:8])[H:9])[H:7]>>[C:2](=[C:3]([C:4]([C:5]([O:6][H:16])([H:14])[H:15])([H:12])[H:13])[H:11])([H:8])[H:9].[O:1]([H:7])[H:10]"
O       -1.18948280       0.05578282      -1.82343498
C       -1.74312116      -0.32256328       0.06019778
C       -0.53263953      -1.04385153       0.29135698
C        0.60783521      -0.36359913       1.02503253
C        1.48852625       0.52515918       0.16248925
O        0.70685756       1.59284632      -0.37372053
H       -0.63675028       0.82264709      -1.60827703
H       -1.92404404       0.59255128       0.62194323
H       -2.63863427      -0.92358583      -0.07159447
H       -0.52476927      -1.00167743      -1.32148189
H       -0.61157351      -2.11212444       0.46514476
H        1.26015627      -1.11665506       1.47574251
H        0.22864124       0.24856970       1.85052210
H        1.91939474      -0.06827221      -0.65363876
H        2.30783170       0.93258716       0.76387838
H        1.28177190       2.18218536      -0.86415984
16
Frame=12 idx=005462 GeodesicLength=0.8567329854561614 rxn_smarts="[O:1]([C:2]([C:3]([C:4]([C:5]([O:6][H:16])([H:14])[H:15])([H:12])[H:13])([H:10])[H:11])([H:8])[H:9])[H:7]>>[C:2](=[C:3]([C:4]([C:5]([O:6][H:16])([H:14])[H:15])([H:12])[H:13])[H:11])([H:8])[H:9].[O:1]([H:7])[H:10]"
O       -1.17718633       0.06501986      -1.83588023
C       -1.74977475      -0.31908362       0.06780051
C       -0.53581416      -1.03869297       0.28816593
C        0.60488206      -0.36036985       1.02361502
C        1.48868239       0.52639121       0.16209267
O        0.70990673       1.59496675      -0.37548296
H       -0.62322381       0.82616342      -1.60483255
H       -1.93607195       0.58029189       0.65316112
H       -2.64101810      -0.92708853      -0.06362667
H       -0.52244775      -1.02125413      -1.33537385
H       -0.60876580      -2.10817432       0.45770204
H        1.25472700      -1.11359093       1.47766704
H        0.22385041       0.25377776       1.84650440
H        1.91939063      -0.06859005      -0.65301502
H        2.30807383       0.93182738       0.76456242
H        1.28478959       2.17840614      -0.87305987
16
Frame=13 idx=005462 GeodesicLength=0.9281368894429474 rxn_smarts="[O:1]([C:2]([C:3]([C:4]([C:5]([O:6][H:16])([H:14])[H:15])([H:12])[H:13])([H:10])[H:11])([H:8])[H:9])[H:7]>>[C:2](=[C:3]([C:4]([C:5]([O:6][H:16])([H:14])[H:15])([H:12])[H:13])[H:11])([H:8])[H:9].[O:1]([H:7])[H:10]"
O       -1.16414165       0.07396110      -1.84874428
C       -1.75654148      -0.31519100       0.07565121
C       -0.53918316      -1.03328546       0.28480888
C        0.60186161      -0.35711726       1.02208261
C        1.48879182       0.52770264       0.16165438
O        0.71291793       1.59717468      -0.37728466
H       -0.60969387       0.82951309      -1.60166047
H       -1.94805346       0.56716641       0.68520863
H       -2.64343977      -0.93018413      -0.05554393
H       -0.51979307      -1.04124373      -1.34926248
H       -0.60638691      -2.10388855       0.45032041
H        1.24918169      -1.11062794       1.47931063
H        0.21915049       0.25893659       1.84249354
H        1.91935735      -0.06879925      -0.65245192
H        2.30824303       0.93112136       0.76525009
H        1.28772944       2.17476145      -0.88183265
16
Frame=14 idx=005462 GeodesicLength=0.9995096739286706 rxn_smarts="[O:1]([C:2]([C:3]([C:4]([C:5]([O:6][H:16])([H:14])[H:15])([H:12])[H:13])([H:10])[H:11])([H:8])[H:9])[H:7]>>[C:2](=[C:3]([C:4]([C:5]([O:6][H:16])([H:14])[H:15])([H:12])[H:13])[H:11])([H:8])[H:9].[O:1]([H:7])[H:10]"
O       -1.15033588       0.08260807      -1.86201596
C       -1.76342293      -0.31086789       0.08377770
C       -0.54275193      -1.02760245       0.28128124
C        0.59877498      -0.35383328       1.02042683
C        1.48884461       0.52908991       0.16117758
O        0.71587960       1.59945515      -0.37911988
H       -0.59617749       0.83269905      -1.59874295
H       -1.95994966       0.55310604       0.71804776
H       -2.64589576      -0.93283695      -0.04737150
H       -0.51679156      -1.06165968      -1.36311548
H       -0.60443800      -2.09923632       0.44299031
H        1.24352395      -1.10775215       1.48065980
H        0.21455388       0.26404440       1.83847732
H        1.91927782      -0.06889505      -0.65193750
H        2.30833178       0.93045804       0.76594089
H        1.29057658       2.17122312      -0.89047615
16
Frame=15 idx=005462 GeodesicLength=1.0708496713534918 rxn_smarts="[O:1]([C:2]([C:3]([C:4]([C:5]([O:6][H:16])([H:14])[H:15])([H:12])[H:13])([H:10])[H:11])([H:8])[H:9])[H:7]>>[C:2](=[C:3]([C:4]([C:5]([O:6][H:16])([H:14])[H:15])([H:12])[H:13])[H:11])([H:8])[H:9].[O:1]([H:7])[H:10]"
O       -1.13571502       0.09094857      -1.87570672
C       -1.77042281      -0.30607490       0.09219843
C       -0.54653764      -1.02161604       0.27757696
C        0.59561445      -0.35050264       1.01863847
C        1.48884290       0.53055391       0.16065201
O        0.71880026       1.60180366      -0.38100011
H       -0.58269028       0.83574404      -1.59606120
H       -1.97177872       0.53795477       0.75177997
H       -2.64838619      -0.93500255      -0.03917269
H       -0.51341477      -1.08253361      -1.37690226
H       -0.60295323      -2.09418755       0.43571234
H        1.23773814      -1.10494981       1.48170416
H        0.21006184       0.26912632       1.83444027
H        1.91914983      -0.06888399      -0.65147290
H        2.30834554       0.92983784       0.76661906
H        1.29334572       2.16778198      -0.89900577
16
Frame=16 idx=005462 GeodesicLength=1.1422370527553198 rxn_smarts="[O:1]([C:2]([C:3]([C:4]([C:5]([O:6][H:16])([H:14])[H:15])([H:12])[H:13])([H:10])[H:11])([H:8])[H:9])[H:7]>>[C:2](=[C:3]([C:4]([C:5]([O:6][H:16])([H:14])[H:15])([H:12])[H:13])[H:11])([H:8])[H:9].[O:1]([H:7])[H:10]"
O       -1.12024677       0.09899552      -1.88983447
C       -1.77755340      -0.30079970       0.10097324
C       -0.55055532      -1.01532847       0.27370288
C        0.59236998      -0.34713190       1.01672966
C        1.48878343       0.53210163       0.16007097
O        0.72168329       1.60425335      -0.38293494
H       -0.56923709       0.83868388      -1.59362490
H       -1.98351256       0.52165912       0.78639025
H       -2.65092507      -0.93665845      -0.03095638
H       -0.50963719      -1.10390670      -1.39061439
H       -0.60194664      -2.08877242       0.42848784
H        1.23181149      -1.10224934       1.48245331
H        0.20566593       0.27418556       1.83041654
H        1.91897316      -0.06876977      -0.65108204
H        2.30828086       0.92926897       0.76728233
H        1.29604589       2.16446873      -0.90745988
