12
Frame=0 idx=003215 GeodesicLength=0.0 rxn_smarts="[C:1]([c:2]1[c:3]([H:10])[c:4]([H:11])[n:5][n:6]1[H:12])([H:7])([H:8])[H:9]>>[C:1]([C:2]([C:3](=[C:4]=[N:5][H:11])[H:10])=[N:6][H:12])([H:7])([H:8])[H:9]"
C       -1.71833897      -0.25590455      -0.07144575
C       -0.29186316       0.22225946       0.01961785
C        0.74143861      -0.79427362      -0.06657414
C        1.93219794      -0.16169358       0.03011838
N        2.53545368       0.90137661       0.15951346
N        0.06519042       1.44261948       0.16024616
H       -2.42049005       0.56829289       0.04604777
H       -1.89122600      -0.73073015      -1.03917729
H       -1.91761940      -1.00084236       0.70092632
H        0.58881483      -1.85101565      -0.18355799
H        3.08653810      -0.43158259       0.03155960
H       -0.71009600       2.09149410       0.21272558
12
Frame=1 idx=003215 GeodesicLength=0.059080404446108334 rxn_smarts="[C:1]([c:2]1[c:3]([H:10])[c:4]([H:11])[n:5][n:6]1[H:12])([H:7])([H:8])[H:9]>>[C:1]([C:2]([C:3](=[C:4]=[N:5][H:11])[H:10])=[N:6][H:12])([H:7])([H:8])[H:9]"
C       -1.72213941      -0.25492941      -0.07069532
C       -0.29326731       0.21273617       0.02667790
C        0.73959973      -0.80258526      -0.05679934
C        1.93095364      -0.17758989       0.08433996
N        2.50988999       0.90679084       0.15961621
N        0.07793402       1.43351714       0.14812662
H       -2.42038409       0.57017669       0.06549451
H       -1.90058165      -0.71063977      -1.04671351
H       -1.92393004      -1.01343988       0.68781950
H        0.58708764      -1.85832287      -0.18663190
H        3.10344167      -0.39958648      -0.00242988
H       -0.68860419       2.09387273       0.19119525
12
Frame=2 idx=003215 GeodesicLength=0.11660005975255586 rxn_smarts="[C:1]([c:2]1[c:3]([H:10])[c:4]([H:11])[n:5][n:6]1[H:12])([H:7])([H:8])[H:9]>>[C:1]([C:2]([C:3](=[C:4]=[N:5][H:11])[H:10])=[N:6][H:12])([H:7])([H:8])[H:9]"
C       -1.72479891      -0.25417770      -0.06617926
C       -0.29438872       0.20301929       0.03660243
C        0.73784738      -0.80969325      -0.05011518
C        1.92947150      -0.19075051       0.11593544
N        2.48327753       0.91017513       0.16633266
N        0.09028436       1.42296288       0.14261702
H       -2.41858326       0.57019848       0.09349428
H       -1.91024429      -0.68611176      -1.05160168
H       -1.92732623      -1.02889805       0.67536910
H        0.58581137      -1.86324003      -0.19653042
H        3.11462747      -0.36906274      -0.01795402
H       -0.66597820       2.09557825       0.15202962
12
Frame=3 idx=003215 GeodesicLength=0.17535807835442296 rxn_smarts="[C:1]([c:2]1[c:3]([H:10])[c:4]([H:11])[n:5][n:6]1[H:12])([H:7])([H:8])[H:9]>>[C:1]([C:2]([C:3](=[C:4]=[N:5][H:11])[H:10])=[N:6][H:12])([H:7])([H:8])[H:9]"
C       -1.72772302      -0.25305849      -0.06603672
C       -0.29570270       0.19366579       0.04638789
C        0.73590094      -0.81778146      -0.03452456
C        1.92928297      -0.20219311       0.13800594
N        2.45842480       0.91401111       0.16384202
N        0.10236693       1.41297438       0.13509611
H       -2.41768648       0.57118332       0.11062727
H       -1.91594597      -0.66506886      -1.05946753
H       -1.93479080      -1.04072186       0.66043079
H        0.58448079      -1.86982991      -0.19336455
H        3.12604370      -0.33886793      -0.03634808
H       -0.64465116       2.09568703       0.13535142
12
Frame=4 idx=003215 GeodesicLength=0.23318041008754054 rxn_smarts="[C:1]([c:2]1[c:3]([H:10])[c:4]([H:11])[n:5][n:6]1[H:12])([H:7])([H:8])[H:9]>>[C:1]([C:2]([C:3](=[C:4]=[N:5][H:11])[H:10])=[N:6][H:12])([H:7])([H:8])[H:9]"
C       -1.72997021      -0.25167776      -0.06933795
C       -0.29704100       0.18426152       0.06016711
C        0.73374414      -0.82645676      -0.00830882
C        1.92970806      -0.21229683       0.15466901
N        2.43413193       0.91795083       0.15292658
N        0.11407325       1.40248521       0.13396649
H       -2.41701451       0.57223794       0.12006699
H       -1.91548110      -0.64399649      -1.07124901
H       -1.94576083      -1.05154051       0.64102738
H        0.58321437      -1.87692898      -0.17925277
H        3.13407931      -0.30884696      -0.06298003
H       -0.62368340       2.09480879       0.12830501
12
Frame=5 idx=003215 GeodesicLength=0.29140006284834596 rxn_smarts="[C:1]([c:2]1[c:3]([H:10])[c:4]([H:11])[n:5][n:6]1[H:12])([H:7])([H:8])[H:9]>>[C:1]([C:2]([C:3](=[C:4]=[N:5][H:11])[H:10])=[N:6][H:12])([H:7])([H:8])[H:9]"
C       -1.73218125      -0.25038460      -0.07129868
C       -0.29837291       0.17518499       0.07213837
C        0.73155647      -0.83466736       0.01430088
C        1.93042044      -0.22235985       0.16832459
N        2.41060024       0.92051365       0.14978816
N        0.12563903       1.39208583       0.13104531
H       -2.41628141       0.57271893       0.13222848
H       -1.91673404      -0.62292468      -1.08093879
H       -1.95490869      -1.06221102       0.62312032
H        0.58176084      -1.88366357      -0.16753535
H        3.14121838      -0.27822979      -0.08751352
H       -0.60271710       2.09393747       0.11634024
12
Frame=6 idx=003215 GeodesicLength=0.3495332617458298 rxn_smarts="[C:1]([c:2]1[c:3]([H:10])[c:4]([H:11])[n:5][n:6]1[H:12])([H:7])([H:8])[H:9]>>[C:1]([C:2]([C:3](=[C:4]=[N:5][H:11])[H:10])=[N:6][H:12])([H:7])([H:8])[H:9]"
C       -1.73428735      -0.24914358      -0.07280129
C       -0.29965972       0.16647230       0.08244703
C        0.72940883      -0.84240177       0.03494226
C        1.93117849      -0.23210199       0.17983939
N        2.38778480       0.92238259       0.14827835
N        0.13705133       1.38180994       0.12659588
H       -2.41550813       0.57271464       0.14531300
H       -1.91885177      -0.60218346      -1.08945553
H       -1.96285223      -1.07243795       0.60598978
H        0.58031449      -1.89002724      -0.15667716
H        3.14733776      -0.24792819      -0.10873184
H       -0.58191650       2.09284470       0.10426013
12
Frame=7 idx=003215 GeodesicLength=0.4077297018314555 rxn_smarts="[C:1]([c:2]1[c:3]([H:10])[c:4]([H:11])[n:5][n:6]1[H:12])([H:7])([H:8])[H:9]>>[C:1]([C:2]([C:3](=[C:4]=[N:5][H:11])[H:10])=[N:6][H:12])([H:7])([H:8])[H:9]"
C       -1.73632299      -0.24792710      -0.07406356
C       -0.30096109       0.15806877       0.09170658
C        0.72727832      -0.84970267       0.05430304
C        1.93199986      -0.24151296       0.18950568
N        2.36561556       0.92371106       0.14676293
N        0.14817490       1.37163052       0.12170154
H       -2.41477056       0.57219700       0.15910807
H       -1.92143713      -0.58136107      -1.09725158
H       -1.96998686      -1.08246038       0.58903091
H        0.57884779      -1.89608432      -0.14597257
H        3.15297081      -0.21810908      -0.12700017
H       -0.56140862       2.09155022       0.09216914
12
Frame=8 idx=003215 GeodesicLength=0.4659994319292032 rxn_smarts="[C:1]([c:2]1[c:3]([H:10])[c:4]([H:11])[n:5][n:6]1[H:12])([H:7])([H:8])[H:9]>>[C:1]([C:2]([C:3](=[C:4]=[N:5][H:11])[H:10])=[N:6][H:12])([H:7])([H:8])[H:9]"
C       -1.73829939      -0.24672123      -0.07517885
C       -0.30228759       0.14990706       0.10031654
C        0.72515039      -0.85664137       0.07283547
C        1.93287133      -0.25063822       0.19757869
N        2.34407381       0.92453679       0.14497874
N        0.15900760       1.36150639       0.11695659
H       -2.41408217       0.57112908       0.17358317
H       -1.92427775      -0.56013923      -1.10455462
H       -1.97654273      -1.09245009       0.57185026
H        0.57731951      -1.90192522      -0.13499465
H        3.15820685      -0.18860081      -0.14309324
H       -0.54113986       2.09003686       0.07972190
12
Frame=9 idx=003215 GeodesicLength=0.5243381829312436 rxn_smarts="[C:1]([c:2]1[c:3]([H:10])[c:4]([H:11])[n:5][n:6]1[H:12])([H:7])([H:8])[H:9]>>[C:1]([C:2]([C:3](=[C:4]=[N:5][H:11])[H:10])=[N:6][H:12])([H:7])([H:8])[H:9]"
C       -1.74021729      -0.24549413      -0.07610834
C       -0.30360410       0.14190501       0.10841121
C        0.72302101      -0.86334902       0.09060257
C        1.93384114      -0.25974391       0.20402365
N        2.32316953       0.92478562       0.14514705
N        0.16964167       1.35134602       0.11253270
H       -2.41337755       0.56956571       0.18879797
H       -1.92736189      -0.53839803      -1.11133714
H       -1.98261026      -1.10238984       0.55441338
H        0.57561980      -1.90775352      -0.12341575
H        3.16278418      -0.15869903      -0.15883478
H       -0.52090624       2.08822511       0.06576747
12
Frame=10 idx=003215 GeodesicLength=0.5826804539026781 rxn_smarts="[C:1]([c:2]1[c:3]([H:10])[c:4]([H:11])[n:5][n:6]1[H:12])([H:7])([H:8])[H:9]>>[C:1]([C:2]([C:3](=[C:4]=[N:5][H:11])[H:10])=[N:6][H:12])([H:7])([H:8])[H:9]"
C       -1.74200124      -0.24423884      -0.07718643
C       -0.30496054       0.13403809       0.11671070
C        0.72086737      -0.86979931       0.10848818
C        1.93485712      -0.26866375       0.20872005
N        2.30284005       0.92465317       0.14462666
N        0.17994885       1.34120809       0.10981874
H       -2.41274127       0.56733740       0.20438023
H       -1.92997929      -0.51564694      -1.11813794
H       -1.98848647      -1.11255109       0.53581738
H        0.57368772      -1.91361500      -0.11011555
H        3.16677877      -0.12880323      -0.17416614
H       -0.50081106       2.08608139       0.05104410
12
Frame=11 idx=003215 GeodesicLength=0.64110575850233 rxn_smarts="[C:1]([c:2]1[c:3]([H:10])[c:4]([H:11])[n:5][n:6]1[H:12])([H:7])([H:8])[H:9]>>[C:1]([C:2]([C:3](=[C:4]=[N:5][H:11])[H:10])=[N:6][H:12])([H:7])([H:8])[H:9]"
C       -1.74381892      -0.24298557      -0.07801771
C       -0.30634177       0.12641035       0.12404110
C        0.71875104      -0.87587571       0.12525486
C        1.93581673      -0.27735693       0.21248707
N        2.28300416       0.92405121       0.14311586
N        0.18998077       1.33120892       0.10644616
H       -2.41213348       0.56448980       0.22092586
H       -1.93327283      -0.49246839      -1.12420831
H       -1.99370009      -1.12263372       0.51711197
H        0.57175079      -1.91924807      -0.09706546
H        3.17096678      -0.09931169      -0.18637985
H       -0.48100317       2.08371982       0.03628846
12
Frame=12 idx=003215 GeodesicLength=0.6995727973976759 rxn_smarts="[C:1]([c:2]1[c:3]([H:10])[c:4]([H:11])[n:5][n:6]1[H:12])([H:7])([H:8])[H:9]>>[C:1]([C:2]([C:3](=[C:4]=[N:5][H:11])[H:10])=[N:6][H:12])([H:7])([H:8])[H:9]"
C       -1.74569379      -0.24170869      -0.07838526
C       -0.30768341       0.11890226       0.13043142
C        0.71663577      -0.88178876       0.14071248
C        1.93677612      -0.28617764       0.21499160
N        2.26378415       0.92298091       0.14396685
N        0.19990256       1.32120052       0.10236793
H       -2.41138512       0.56110682       0.23875758
H       -1.93747532      -0.46877390      -1.12928142
H       -1.99830972      -1.13259814       0.49851181
H        0.56962982      -1.92487741      -0.08448108
H        3.17495809      -0.06924752      -0.19711325
H       -0.46113916       2.08098155       0.01952134
12
Frame=13 idx=003215 GeodesicLength=0.7580915929695676 rxn_smarts="[C:1]([c:2]1[c:3]([H:10])[c:4]([H:11])[n:5][n:6]1[H:12])([H:7])([H:8])[H:9]>>[C:1]([C:2]([C:3](=[C:4]=[N:5][H:11])[H:10])=[N:6][H:12])([H:7])([H:8])[H:9]"
C       -1.74762256      -0.24039676      -0.07836906
C       -0.30904465       0.11150695       0.13633313
C        0.71452209      -0.88748624       0.15524433
C        1.93768433      -0.29495630       0.21626163
N        2.24505983       0.92150716       0.14497321
N        0.20956351       1.31123117       0.09848471
H       -2.41055922       0.55696585       0.25803717
H       -1.94231704      -0.44401298      -1.13356101
H       -2.00244041      -1.14270970       0.47940017
H        0.56736211      -1.93042632      -0.07205969
H        3.17911379      -0.03900591      -0.20552630
H       -0.44132179       2.07778309       0.00078171
12
Frame=14 idx=003215 GeodesicLength=0.8166473608100275 rxn_smarts="[C:1]([c:2]1[c:3]([H:10])[c:4]([H:11])[n:5][n:6]1[H:12])([H:7])([H:8])[H:9]>>[C:1]([C:2]([C:3](=[C:4]=[N:5][H:11])[H:10])=[N:6][H:12])([H:7])([H:8])[H:9]"
C       -1.74962346      -0.23904380      -0.07805721
C       -0.31038135       0.10422006       0.14137685
C        0.71241140      -0.89302975       0.16884716
C        1.93857043      -0.30380431       0.21615271
N        2.22687006       0.91962162       0.14700372
N        0.21908426       1.30127058       0.09387500
H       -2.40958271       0.55223176       0.27830488
H       -1.94792739      -0.41869129      -1.13695854
H       -2.00615107      -1.15264030       0.46012325
H        0.56491001      -1.93600581      -0.05961318
H        3.18335256      -0.00829873      -0.21207821
H       -0.42153275       2.07416995      -0.01897643
12
Frame=15 idx=003215 GeodesicLength=0.8752392244867375 rxn_smarts="[C:1]([c:2]1[c:3]([H:10])[c:4]([H:11])[n:5][n:6]1[H:12])([H:7])([H:8])[H:9]>>[C:1]([C:2]([C:3](=[C:4]=[N:5][H:11])[H:10])=[N:6][H:12])([H:7])([H:8])[H:9]"
C       -1.75172940      -0.23764312      -0.07735268
C       -0.31166608       0.09702135       0.14534555
C        0.71030138      -0.89846611       0.18132343
C        1.93942368      -0.31279522       0.21455177
N        2.20920761       0.91730260       0.15060490
N        0.22853387       1.29127048       0.08802703
H       -2.40835440       0.54698320       0.29958443
H       -1.95454381      -0.39301071      -1.13927191
H       -2.00944533      -1.16224554       0.44100023
H        0.56226169      -1.94162182      -0.04751321
H        3.18774738       0.02308122      -0.21646948
H       -0.40173659       2.07012367      -0.03983007
12
Frame=16 idx=003215 GeodesicLength=0.9338444409591666 rxn_smarts="[C:1]([c:2]1[c:3]([H:10])[c:4]([H:11])[n:5][n:6]1[H:12])([H:7])([H:8])[H:9]>>[C:1]([C:2]([C:3](=[C:4]=[N:5][H:11])[H:10])=[N:6][H:12])([H:7])([H:8])[H:9]"
C       -1.75392807      -0.23619526      -0.07637104
C       -0.31290956       0.08991312       0.14832138
C        0.70819814      -0.90377421       0.19288864
C        1.94023098      -0.32187212       0.21133457
N        2.19203135       0.91457375       0.15493814
N        0.23788735       1.28124399       0.08111516
H       -2.40688328       0.54122071       0.32158837
H       -1.96200356      -0.36704588      -1.14060999
H       -2.01242293      -1.17147994       0.42193932
H        0.55942148      -1.94727530      -0.03544498
H        3.19240310       0.05499029      -0.21854380
H       -0.38202500       2.06570086      -0.06115579
