10
Frame=0 idx=003075 GeodesicLength=0.0 rxn_smarts="[N:1]([C:2](=[O:3])[C:4]([C:5]#[N:6])([H:9])[H:10])([H:7])[H:8]>>[C:4]([C:5]#[N:6])([H:7])([H:9])[H:10].[N:1](=[C:2]=[O:3])[H:8]"
N       -1.27039553       0.85686961      -0.46261002
C       -1.45369060      -0.11517965       0.34933006
O       -1.97656293      -0.86692969       1.04429788
C        0.75477353      -0.52940269       0.28315510
C        1.86899114       0.08791747      -0.38883219
N        2.70021108       0.64163451      -0.96352619
H       -0.11733647       0.53611844      -0.41363166
H       -2.04974082       1.42947805      -0.77844531
H        0.89037389      -0.47349375       1.36240007
H        0.65337670      -1.56701230      -0.03213774
10
Frame=1 idx=003075 GeodesicLength=0.09637174511225978 rxn_smarts="[N:1]([C:2](=[O:3])[C:4]([C:5]#[N:6])([H:9])[H:10])([H:7])[H:8]>>[C:4]([C:5]#[N:6])([H:7])([H:9])[H:10].[N:1](=[C:2]=[O:3])[H:8]"
N       -1.27636915       0.88615464      -0.42579601
C       -1.46203041      -0.14130921       0.31319385
O       -1.98257168      -0.88407041       1.02273016
C        0.75256262      -0.52736822       0.29152502
C        1.86121003       0.06874847      -0.41133054
N        2.67531324       0.61773749      -1.01411535
H       -0.08607894       0.66726733      -0.25681421
H       -2.04829947       1.37638377      -0.86855129
H        0.92653322      -0.49707265       1.36626671
H        0.63973054      -1.56647122      -0.01710835
10
Frame=2 idx=003075 GeodesicLength=0.19711609157836402 rxn_smarts="[N:1]([C:2](=[O:3])[C:4]([C:5]#[N:6])([H:9])[H:10])([H:7])[H:8]>>[C:4]([C:5]#[N:6])([H:7])([H:9])[H:10].[N:1](=[C:2]=[O:3])[H:8]"
N       -1.27596034       0.91338823      -0.38560979
C       -1.46914291      -0.16410328       0.27632029
O       -1.99255945      -0.90304192       0.99124436
C        0.74912706      -0.52645218       0.30585658
C        1.83986308       0.05771846      -0.43653137
N        2.62435651       0.61034458      -1.07401192
H       -0.06879574       0.75757614      -0.10596425
H       -2.00197726       1.33799825      -0.95394972
H        0.96442775      -0.51439044       1.37343743
H        0.63066129      -1.56903785       0.00920839
10
Frame=3 idx=003075 GeodesicLength=0.3011305214307157 rxn_smarts="[N:1]([C:2](=[O:3])[C:4]([C:5]#[N:6])([H:9])[H:10])([H:7])[H:8]>>[C:4]([C:5]#[N:6])([H:7])([H:9])[H:10].[N:1](=[C:2]=[O:3])[H:8]"
N       -1.27634804       0.93483903      -0.34881858
C       -1.47421913      -0.18430360       0.23897058
O       -2.00325986      -0.92624156       0.95024659
C        0.74588374      -0.52513403       0.32557011
C        1.81140073       0.05111453      -0.46051365
N        2.55726312       0.60862171      -1.13834747
H       -0.06083651       0.81834721       0.02684488
H       -1.92953117       1.31788479      -1.02364655
H        1.00322807      -0.52229990       1.38374473
H        0.62641905      -1.57282817       0.04594937
10
Frame=4 idx=003075 GeodesicLength=0.4070757044762051 rxn_smarts="[N:1]([C:2](=[O:3])[C:4]([C:5]#[N:6])([H:9])[H:10])([H:7])[H:8]>>[C:4]([C:5]#[N:6])([H:7])([H:9])[H:10].[N:1](=[C:2]=[O:3])[H:8]"
N       -1.27951847       0.95204471      -0.31668497
C       -1.47684726      -0.20068791       0.20337942
O       -2.01301470      -0.94944879       0.90580604
C        0.74282969      -0.52328967       0.34739173
C        1.77896286       0.04602629      -0.48393836
N        2.48406742       0.60955968      -1.19910625
H       -0.05846461       0.86221303       0.14312116
H       -1.84471926       1.30529808      -1.08042466
H        1.04336371      -0.52545035       1.39406028
H        0.62334063      -1.57626506       0.08639560
10
Frame=5 idx=003075 GeodesicLength=0.5151984396953134 rxn_smarts="[N:1]([C:2](=[O:3])[C:4]([C:5]#[N:6])([H:9])[H:10])([H:7])[H:8]>>[C:4]([C:5]#[N:6])([H:7])([H:9])[H:10].[N:1](=[C:2]=[O:3])[H:8]"
N       -1.28477436       0.96456793      -0.29123240
C       -1.47699895      -0.21588561       0.16614027
O       -2.02084305      -0.97330834       0.85714294
C        0.74063306      -0.52073803       0.37149556
C        1.74476077       0.04111741      -0.50511102
N        2.40479401       0.60899057      -1.25848175
H       -0.05991360       0.89561099       0.24721042
H       -1.75447939       1.30226827      -1.12308963
H        1.08439087      -0.52340399       1.40469681
H        0.62243064      -1.57921919       0.13122882
10
Frame=6 idx=003075 GeodesicLength=0.6249857165639293 rxn_smarts="[N:1]([C:2](=[O:3])[C:4]([C:5]#[N:6])([H:9])[H:10])([H:7])[H:8]>>[C:4]([C:5]#[N:6])([H:7])([H:9])[H:10].[N:1](=[C:2]=[O:3])[H:8]"
N       -1.29172496       0.97366447      -0.27192188
C       -1.47468475      -0.22940940       0.12831753
O       -2.02630268      -0.99663091       0.80614230
C        0.73913084      -0.51742798       0.39664800
C        1.70976969       0.03565283      -0.52436617
N        2.32240793       0.60645588      -1.31437062
H       -0.06405543       0.92253509       0.34148363
H       -1.66298544       1.30451650      -1.15428111
H        1.12618336      -0.51821329       1.41440345
H        0.62226144      -1.58114319       0.17794486
10
Frame=7 idx=003075 GeodesicLength=0.7363492324701038 rxn_smarts="[N:1]([C:2](=[O:3])[C:4]([C:5]#[N:6])([H:9])[H:10])([H:7])[H:8]>>[C:4]([C:5]#[N:6])([H:7])([H:9])[H:10].[N:1](=[C:2]=[O:3])[H:8]"
N       -1.29997323       0.97999106      -0.25832296
C       -1.46993796      -0.24173425       0.08958813
O       -2.02903668      -1.01944822       0.75319825
C        0.73836622      -0.51326008       0.42237163
C        1.67478345       0.02913454      -0.54169262
N        2.23821528       0.60086976      -1.36658239
H       -0.07024988       0.94529588       0.42792201
H       -1.57321414       1.31139107      -1.17519847
H        1.16846428      -0.51041364       1.42271672
H        0.62258268      -1.58182611       0.22599970
10
Frame=8 idx=003075 GeodesicLength=0.8491837664204844 rxn_smarts="[N:1]([C:2](=[O:3])[C:4]([C:5]#[N:6])([H:9])[H:10])([H:7])[H:8]>>[C:4]([C:5]#[N:6])([H:7])([H:9])[H:10].[N:1](=[C:2]=[O:3])[H:8]"
N       -1.30929098       0.98419522      -0.24970268
C       -1.46290363      -0.25291264       0.05021157
O       -2.02891904      -1.04170932       0.69879726
C        0.73824453      -0.50812349       0.44818688
C        1.64023266       0.02151945      -0.55723735
N        2.15346965       0.59175441      -1.41499409
H       -0.07811022       0.96539245       0.50823249
H       -1.48662047       1.32164760      -1.18731801
H        1.21094283      -0.50071497       1.42918550
H        0.62295467      -1.58104871       0.27463844
10
Frame=9 idx=003075 GeodesicLength=0.9633710978371268 rxn_smarts="[N:1]([C:2](=[O:3])[C:4]([C:5]#[N:6])([H:9])[H:10])([H:7])[H:8]>>[C:4]([C:5]#[N:6])([H:7])([H:9])[H:10].[N:1](=[C:2]=[O:3])[H:8]"
N       -1.31951870       0.98665902      -0.24552031
C       -1.45377958      -0.26309824       0.01037120
O       -2.02589273      -1.06334501       0.64358913
C        0.73867182      -0.50198044       0.47366252
C        1.60640151       0.01267776      -0.57128922
N        2.06932915       0.57905829      -1.45942275
H       -0.08734158       0.98375476       0.58363001
H       -1.40420044       1.33461737      -1.19183062
H        1.25329490      -0.48963706       1.43343651
H        0.62303565      -1.57870645       0.32337354
10
Frame=10 idx=003075 GeodesicLength=1.0788008298822775 rxn_smarts="[N:1]([C:2](=[O:3])[C:4]([C:5]#[N:6])([H:9])[H:10])([H:7])[H:8]>>[C:4]([C:5]#[N:6])([H:7])([H:9])[H:10].[N:1](=[C:2]=[O:3])[H:8]"
N       -1.33054016       0.98767578      -0.24530681
C       -1.44282478      -0.27234315      -0.02964020
O       -2.02003114      -1.08426429       0.58818809
C        0.73953796      -0.49479416       0.49844337
C        1.57347638       0.00272158      -0.58405977
N        1.98665644       0.56292420      -1.49995969
H       -0.09775530       1.00097450       0.65520845
H       -1.32621700       1.34952298      -1.18980996
H        1.29516636      -0.47770649       1.43523362
H        0.62253123      -1.57471094       0.37170290
10
Frame=11 idx=003075 GeodesicLength=1.1954088323971717 rxn_smarts="[N:1]([C:2](=[O:3])[C:4]([C:5]#[N:6])([H:9])[H:10])([H:7])[H:8]>>[C:4]([C:5]#[N:6])([H:7])([H:9])[H:10].[N:1](=[C:2]=[O:3])[H:8]"
N       -1.34221302       0.98743732      -0.24876128
C       -1.43029087      -0.28072785      -0.06962123
O       -2.01147210      -1.10438722       0.53313767
C        0.74075850      -0.48654652       0.52226388
C        1.54159621      -0.00822316      -0.59574038
N        1.90595147       0.54362362      -1.53684436
H       -0.10921490       1.01739988       0.72391123
H       -1.25258313       1.36578474      -1.18210391
H        1.33623023      -0.46535318       1.43447241
H        0.62123760      -1.56900764       0.41928596
10
Frame=12 idx=003075 GeodesicLength=1.3131649896525934 rxn_smarts="[N:1]([C:2](=[O:3])[C:4]([C:5]#[N:6])([H:9])[H:10])([H:7])[H:8]>>[C:4]([C:5]#[N:6])([H:7])([H:9])[H:10].[N:1](=[C:2]=[O:3])[H:8]"
N       -1.35435899       0.98607619      -0.25573989
C       -1.41641197      -0.28833387      -0.10942921
O       -2.00040644      -1.12360983       0.47893246
C        0.74227391      -0.47723121       0.54492074
C        1.51088020      -0.01999882      -0.60649520
N        1.82741954       0.52150817      -1.57038937
H       -0.12162084       1.03320836       0.79056193
H       -1.18299011       1.38288854      -1.16937823
H        1.37619474      -0.45294535       1.43115540
H        0.61901997      -1.56156218       0.46586138
10
Frame=13 idx=003075 GeodesicLength=1.4320951194534444 rxn_smarts="[N:1]([C:2](=[O:3])[C:4]([C:5]#[N:6])([H:9])[H:10])([H:7])[H:8]>>[C:4]([C:5]#[N:6])([H:7])([H:9])[H:10].[N:1](=[C:2]=[O:3])[H:8]"
N       -1.36675644       0.98370137      -0.26623035
C       -1.40137799      -0.29523922      -0.14899487
O       -1.98704930      -1.14183022       0.42595511
C        0.74405466      -0.46684063       0.56627302
C        1.48144080      -0.03242543      -0.61645909
N        1.75097106       0.49690756      -1.60096026
H       -0.13490189       1.04845269       0.85590520
H       -1.11701590       1.40039013      -1.15212080
H        1.41482282      -0.44077179       1.42538008
H        0.61581219      -1.55234447       0.51125195
10
Frame=14 idx=003075 GeodesicLength=1.5521910657655278 rxn_smarts="[N:1]([C:2](=[O:3])[C:4]([C:5]#[N:6])([H:9])[H:10])([H:7])[H:8]>>[C:4]([C:5]#[N:6])([H:7])([H:9])[H:10].[N:1](=[C:2]=[O:3])[H:8]"
N       -1.37914038       0.98037312      -0.28041063
C       -1.38540423      -0.30154924      -0.18821736
O       -1.97170686      -1.15881839       0.37482841
C        0.74607613      -0.45540952       0.58615749
C        1.45337514      -0.04535568      -0.62580693
N        1.67656995       0.47042729      -1.62871141
H       -0.14896471       1.06310150       0.92051171
H       -1.05426636       1.41774730      -1.13081920
H        1.45190242      -0.42915350       1.41725297
H        0.61155891      -1.54136287       0.55521494
10
Frame=15 idx=003075 GeodesicLength=1.6734863554724573 rxn_smarts="[N:1]([C:2](=[O:3])[C:4]([C:5]#[N:6])([H:9])[H:10])([H:7])[H:8]>>[C:4]([C:5]#[N:6])([H:7])([H:9])[H:10].[N:1](=[C:2]=[O:3])[H:8]"
N       -1.39119472       0.97614681      -0.29857740
C       -1.36868056      -0.30738674      -0.22702330
O       -1.95474741      -1.17432458       0.32616492
C        0.74833299      -0.44298615       0.60444919
C        1.42675817      -0.05866581      -0.63471243
N        1.60407630       0.44275781      -1.65373779
H       -0.16369114       1.07706538       0.98488322
H       -0.99438630       1.43441194      -1.10592084
H        1.48728423      -0.41837472       1.40692426
H        0.60624844      -1.52864394       0.59755018
10
Frame=16 idx=003075 GeodesicLength=1.79604511082445 rxn_smarts="[N:1]([C:2](=[O:3])[C:4]([C:5]#[N:6])([H:9])[H:10])([H:7])[H:8]>>[C:4]([C:5]#[N:6])([H:7])([H:9])[H:10].[N:1](=[C:2]=[O:3])[H:8]"
N       -1.40257393       0.97105937      -0.32113416
C       -1.35138199      -0.31290936      -0.26535492
O       -1.93660456      -1.18808393       0.28059509
C        0.75083012      -0.42963611       0.62105164
C        1.40162005      -0.07230359      -0.64336788
N        1.53336355       0.41472018      -1.67603046
H       -0.17890980       1.09022707       1.04943645
H       -0.93712141       1.44984439      -1.07785716
H        1.52088628      -0.40868491       1.39455012
H        0.59989169      -1.51423309       0.63811130
