15
Frame=0 idx=001997 GeodesicLength=0.0 rxn_smarts="[C:1]([N:2]1[C:3]([H:10])([H:11])[C@:4]1([C:5]([O:6][H:15])([H:13])[H:14])[H:12])([H:7])([H:8])[H:9]>>[C:1]([N:2]1[C:3]([H:10])([H:11])[C:4]1=[C:5]([H:13])[H:14])([H:7])([H:8])[H:9].[O:6]([H:12])[H:15]"
C       -1.78048328       0.44986204      -0.99958694
N       -0.52201497      -0.27158281      -1.04071495
C       -0.44833709      -1.43720001      -0.15827798
C        0.27225960      -0.19779816       0.16122282
C        1.66565983       0.09556448       0.17140325
O        1.52864440       1.33790992       1.42814724
H       -2.49027565      -0.01091720      -1.69074640
H       -2.22259190       0.46957244       0.00739941
H       -1.61304049       1.48041618      -1.31830475
H       -1.33315090      -1.68081369       0.42620688
H        0.06160223      -2.29938470      -0.57904281
H        0.51203471       0.90030320       1.29113543
H        2.09415515       0.71038994      -0.61356085
H        2.36480192      -0.58572620       0.64981510
H        1.91073645       1.03940451       2.26490457
15
Frame=1 idx=001997 GeodesicLength=0.09769866736760176 rxn_smarts="[C:1]([N:2]1[C:3]([H:10])([H:11])[C@:4]1([C:5]([O:6][H:15])([H:13])[H:14])[H:12])([H:7])([H:8])[H:9]>>[C:1]([N:2]1[C:3]([H:10])([H:11])[C:4]1=[C:5]([H:13])[H:14])([H:7])([H:8])[H:9].[O:6]([H:12])[H:15]"
C       -1.77413767       0.46413835      -0.97262708
N       -0.52083338      -0.26403061      -1.03607186
C       -0.44589993      -1.45381890      -0.18714475
C        0.28667757      -0.23024387       0.15597788
C        1.67708605       0.06949097       0.17849754
O        1.49945308       1.37730549       1.38015522
H       -2.49035196       0.02529914      -1.67110579
H       -2.21113510       0.46128546       0.03662620
H       -1.60075125       1.50138953      -1.26520359
H       -1.32383648      -1.70346740       0.40505562
H        0.05642987      -2.30572258      -0.63666212
H        0.48797396       0.86072452       1.28961936
H        2.13157091       0.63381219      -0.62919381
H        2.36190118      -0.59039506       0.70600912
H        1.86585317       1.15423277       2.24606806
15
Frame=2 idx=001997 GeodesicLength=0.19570171117968496 rxn_smarts="[C:1]([N:2]1[C:3]([H:10])([H:11])[C@:4]1([C:5]([O:6][H:15])([H:13])[H:14])[H:12])([H:7])([H:8])[H:9]>>[C:1]([N:2]1[C:3]([H:10])([H:11])[C:4]1=[C:5]([H:13])[H:14])([H:7])([H:8])[H:9].[O:6]([H:12])[H:15]"
C       -1.76704958       0.47808070      -0.94516417
N       -0.51893859      -0.25614925      -1.03047704
C       -0.44324957      -1.46879822      -0.21518694
C        0.30123069      -0.26137957       0.15065130
C        1.68885536       0.04396716       0.18528696
O        1.46990077       1.41223840       1.33082278
H       -2.48962205       0.06066162      -1.64990320
H       -2.19895359       0.45349611       0.06582927
H       -1.58788202       1.52103562      -1.21270323
H       -1.31411586      -1.72467019       0.38468981
H        0.05139606      -2.30977243      -0.69259535
H        0.46721398       0.82118730       1.28867820
H        2.16923271       0.55793443      -0.64056891
H        2.35816325      -0.59297172       0.75963516
H        1.81381844       1.26514005       2.22100537
15
Frame=3 idx=001997 GeodesicLength=0.2940109291743824 rxn_smarts="[C:1]([N:2]1[C:3]([H:10])([H:11])[C@:4]1([C:5]([O:6][H:15])([H:13])[H:14])[H:12])([H:7])([H:8])[H:9]>>[C:1]([N:2]1[C:3]([H:10])([H:11])[C:4]1=[C:5]([H:13])[H:14])([H:7])([H:8])[H:9].[O:6]([H:12])[H:15]"
C       -1.75921622       0.49165989      -0.91750985
N       -0.51637216      -0.24813291      -1.02392885
C       -0.44045595      -1.48216710      -0.24204281
C        0.31580426      -0.29110278       0.14540603
C        1.70082176       0.01931747       0.19165757
O        1.44055091       1.44271920       1.28116885
H       -2.48802374       0.09498791      -1.62751161
H       -2.18611972       0.44643917       0.09473868
H       -1.57430477       1.53933939      -1.16140385
H       -1.30419470      -1.74431811       0.36533289
H        0.04644658      -2.31170569      -0.74633976
H        0.44937650       0.78189762       1.28849254
H        2.20641618       0.48360079      -0.64820720
H        2.35395514      -0.59365067       0.80977998
H        1.75531592       1.37111581       2.19036741
15
Frame=4 idx=001997 GeodesicLength=0.3925633825111874 rxn_smarts="[C:1]([N:2]1[C:3]([H:10])([H:11])[C@:4]1([C:5]([O:6][H:15])([H:13])[H:14])[H:12])([H:7])([H:8])[H:9]>>[C:1]([N:2]1[C:3]([H:10])([H:11])[C:4]1=[C:5]([H:13])[H:14])([H:7])([H:8])[H:9].[O:6]([H:12])[H:15]"
C       -1.75071852       0.50484673      -0.88987896
N       -0.51321559      -0.24010622      -1.01652643
C       -0.43753123      -1.49392483      -0.26744984
C        0.33041410      -0.31927234       0.14019415
C        1.71299475      -0.00427241       0.19741062
O        1.41232102       1.46891228       1.23209178
H       -2.48563848       0.12811625      -1.60415983
H       -2.17270671       0.44023482       0.12322362
H       -1.56009276       1.55635086      -1.11165106
H       -1.29406207      -1.76224754       0.34735495
H        0.04154501      -2.31170912      -0.79748348
H        0.43403458       0.74348667       1.28856791
H        2.24282009       0.41134120      -0.65272046
H        2.34962517      -0.59284611       0.85583917
H        1.69021065       1.47108977       2.15518786
15
Frame=5 idx=001997 GeodesicLength=0.4912845628866033 rxn_smarts="[C:1]([N:2]1[C:3]([H:10])([H:11])[C@:4]1([C:5]([O:6][H:15])([H:13])[H:14])[H:12])([H:7])([H:8])[H:9]>>[C:1]([N:2]1[C:3]([H:10])([H:11])[C:4]1=[C:5]([H:13])[H:14])([H:7])([H:8])[H:9].[O:6]([H:12])[H:15]"
C       -1.74170485       0.51763302      -0.86238489
N       -0.50957143      -0.23207960      -1.00844580
C       -0.43444090      -1.50404057      -0.29129925
C        0.34514993      -0.34570754       0.13481725
C        1.72548604      -0.02676889       0.20236497
O        1.38643133       1.49117002       1.18431137
H       -2.48269098       0.15989880      -1.57989766
H       -2.15876281       0.43493231       0.15129248
H       -1.54547547       1.57217767      -1.06358769
H       -1.28354363      -1.77832375       0.33110563
H        0.03667024      -2.30993847      -0.84583027
H        0.42072960       0.70665654       1.28816168
H        2.27854066       0.34120803      -0.65468360
H        2.34537025      -0.59116044       0.89758777
H        1.61781201       1.56434285       2.11648802
15
Frame=6 idx=001997 GeodesicLength=0.5900927973518104 rxn_smarts="[C:1]([N:2]1[C:3]([H:10])([H:11])[C@:4]1([C:5]([O:6][H:15])([H:13])[H:14])[H:12])([H:7])([H:8])[H:9]>>[C:1]([N:2]1[C:3]([H:10])([H:11])[C:4]1=[C:5]([H:13])[H:14])([H:7])([H:8])[H:9].[O:6]([H:12])[H:15]"
C       -1.73214679       0.53017557      -0.83501709
N       -0.50542188      -0.22397560      -0.99958783
C       -0.43121259      -1.51274328      -0.31383510
C        0.35976607      -0.37067123       0.12967623
C        1.73801989      -0.04823758       0.20690923
O        1.36197292       1.51028112       1.13791866
H       -2.47893670       0.19072591      -1.55513363
H       -2.14447790       0.43037849       0.17889443
H       -1.53036304       1.58710013      -1.01697210
H       -1.27292584      -1.79302709       0.31585809
H        0.03193368      -2.30643516      -0.89191232
H        0.40915789       0.67006623       1.28876855
H        2.31317499       0.27277859      -0.65426039
H        2.34122349      -0.58865732       0.93568897
H        1.54023581       1.65224124       2.07300430
15
Frame=7 idx=001997 GeodesicLength=0.6889988996567881 rxn_smarts="[C:1]([N:2]1[C:3]([H:10])([H:11])[C@:4]1([C:5]([O:6][H:15])([H:13])[H:14])[H:12])([H:7])([H:8])[H:9]>>[C:1]([N:2]1[C:3]([H:10])([H:11])[C:4]1=[C:5]([H:13])[H:14])([H:7])([H:8])[H:9].[O:6]([H:12])[H:15]"
C       -1.72213583       0.54251088      -0.80783371
N       -0.50087187      -0.21582522      -0.99024436
C       -0.42782869      -1.51994386      -0.33490739
C        0.37455723      -0.39393589       0.12428108
C        1.75091705      -0.06866138       0.21065787
O        1.34049352       1.52649344       1.09366080
H       -2.47478182       0.22040038      -1.52956872
H       -2.12962523       0.42687561       0.20619723
H       -1.51488499       1.60121347      -0.97205974
H       -1.26188913      -1.80598295       0.30231995
H        0.02717959      -2.30145408      -0.93535913
H        0.39903455       0.63445608       1.28926012
H        2.34714152       0.20617816      -0.65197745
H        2.33742925      -0.58597871       0.96983801
H        1.45526486       1.73365408       2.02573544
15
Frame=8 idx=001997 GeodesicLength=0.7879082992373118 rxn_smarts="[C:1]([N:2]1[C:3]([H:10])([H:11])[C@:4]1([C:5]([O:6][H:15])([H:13])[H:14])[H:12])([H:7])([H:8])[H:9]>>[C:1]([N:2]1[C:3]([H:10])([H:11])[C:4]1=[C:5]([H:13])[H:14])([H:7])([H:8])[H:9].[O:6]([H:12])[H:15]"
C       -1.71175344       0.55472789      -0.78068012
N       -0.49587222      -0.20737759      -0.98015625
C       -0.42421569      -1.52583079      -0.35495875
C        0.38913342      -0.41575092       0.11929255
C        1.76379705      -0.08818750       0.21428874
O        1.32060101       1.54065166       1.05128950
H       -2.46988237       0.24935418      -1.50371168
H       -2.11468335       0.42385329       0.23316151
H       -1.49923090       1.61478358      -0.92816701
H       -1.25071514      -1.81792459       0.28931669
H        0.02277563      -2.29472269      -0.97709841
H        0.39007719       0.59879821       1.29116530
H        2.38006797       0.14062956      -0.64754729
H        2.33374569      -0.58299536       1.00122279
H        1.36615514       1.80999107       1.97258244
15
Frame=9 idx=001997 GeodesicLength=0.8869215503447102 rxn_smarts="[C:1]([N:2]1[C:3]([H:10])([H:11])[C@:4]1([C:5]([O:6][H:15])([H:13])[H:14])[H:12])([H:7])([H:8])[H:9]>>[C:1]([N:2]1[C:3]([H:10])([H:11])[C:4]1=[C:5]([H:13])[H:14])([H:7])([H:8])[H:9].[O:6]([H:12])[H:15]"
C       -1.70086976       0.56698385      -0.75369511
N       -0.49048860      -0.19880367      -0.96966403
C       -0.42043795      -1.53028802      -0.37359363
C        0.40395091      -0.43592194       0.11403936
C        1.77705291      -0.10661542       0.21718585
O        1.30366627       1.55282034       1.01189174
H       -2.46464384       0.27740934      -1.47703310
H       -2.09899781       0.42217381       0.25996586
H       -1.48310126       1.62788210      -0.88605847
H       -1.23909806      -1.82812254       0.27798460
H        0.01835393      -2.28671378      -1.01625943
H        0.38214006       0.56322880       1.29351806
H        2.41223881       0.07690207      -0.64159161
H        2.33066343      -0.58023206       1.02906526
H        1.26957097       1.87929711       1.91424464
15
Frame=10 idx=001997 GeodesicLength=0.9860960608473669 rxn_smarts="[C:1]([N:2]1[C:3]([H:10])([H:11])[C@:4]1([C:5]([O:6][H:15])([H:13])[H:14])[H:12])([H:7])([H:8])[H:9]>>[C:1]([N:2]1[C:3]([H:10])([H:11])[C:4]1=[C:5]([H:13])[H:14])([H:7])([H:8])[H:9].[O:6]([H:12])[H:15]"
C       -1.68975924       0.57924429      -0.72665157
N       -0.48471570      -0.18973689      -0.95853207
C       -0.41634916      -1.53340385      -0.39137117
C        0.41860709      -0.45452118       0.10914052
C        1.79035689      -0.12410610       0.22010747
O        1.28872499       1.56383427       0.97519214
H       -2.45892358       0.30477389      -1.44993699
H       -2.08322625       0.42101922       0.28665145
H       -1.46706305       1.64070934      -0.84486828
H       -1.22719044      -1.83736183       0.26710286
H        0.01442742      -2.27696147      -1.05394110
H        0.37482445       0.52753220       1.29724131
H        2.44351853       0.01405513      -0.63356103
H        2.32771295      -0.57757088       1.05474697
H        1.16905510       1.94249383       1.84867950
15
Frame=11 idx=001997 GeodesicLength=1.0856313881597328 rxn_smarts="[C:1]([N:2]1[C:3]([H:10])([H:11])[C@:4]1([C:5]([O:6][H:15])([H:13])[H:14])[H:12])([H:7])([H:8])[H:9]>>[C:1]([N:2]1[C:3]([H:10])([H:11])[C:4]1=[C:5]([H:13])[H:14])([H:7])([H:8])[H:9].[O:6]([H:12])[H:15]"
C       -1.67854776       0.59152786      -0.69955387
N       -0.47860764      -0.18008255      -0.94681358
C       -0.41189501      -1.53511966      -0.40835893
C        0.43309071      -0.47143062       0.10457369
C        1.80366500      -0.14048785       0.22314955
O        1.27569017       1.57421499       0.94151217
H       -2.45290110       0.33137699      -1.42237996
H       -2.06741844       0.42041286       0.31326083
H       -1.45134327       1.65333836      -0.80466207
H       -1.21491026      -1.84563272       0.25661353
H        0.01113549      -2.26540583      -1.09019326
H        0.36776521       0.49170346       1.30227664
H        2.47392187      -0.04797305      -0.62334341
H        2.32480241      -0.57498536       1.07857336
H        1.06555261       1.99854312       1.77534531
15
Frame=12 idx=001997 GeodesicLength=1.1856529455797917 rxn_smarts="[C:1]([N:2]1[C:3]([H:10])([H:11])[C@:4]1([C:5]([O:6][H:15])([H:13])[H:14])[H:12])([H:7])([H:8])[H:9]>>[C:1]([N:2]1[C:3]([H:10])([H:11])[C:4]1=[C:5]([H:13])[H:14])([H:7])([H:8])[H:9].[O:6]([H:12])[H:15]"
C       -1.66764256       0.60365328      -0.67240138
N       -0.47228263      -0.16965712      -0.93445178
C       -0.40694566      -1.53543162      -0.42487329
C        0.44712843      -0.48654344       0.10059897
C        1.81672091      -0.15572247       0.22674590
O        1.26407454       1.58468623       0.91055699
H       -2.44674691       0.35703271      -1.39466778
H       -2.05216888       0.41974144       0.33967920
H       -1.43664906       1.66574345      -0.76507650
H       -1.20222052      -1.85333952       0.24590953
H        0.00884326      -2.25170797      -1.12559995
H        0.36035257       0.45611983       1.30863018
H        2.50327247      -0.10948022      -0.61044350
H        2.32147720      -0.57227072       1.10139935
H        0.96278685       2.04717615       1.69399406
15
Frame=13 idx=001997 GeodesicLength=1.286526163705512 rxn_smarts="[C:1]([N:2]1[C:3]([H:10])([H:11])[C@:4]1([C:5]([O:6][H:15])([H:13])[H:14])[H:12])([H:7])([H:8])[H:9]>>[C:1]([N:2]1[C:3]([H:10])([H:11])[C:4]1=[C:5]([H:13])[H:14])([H:7])([H:8])[H:9].[O:6]([H:12])[H:15]"
C       -1.65674041       0.61579333      -0.64589113
N       -0.46587663      -0.15901640      -0.92187581
C       -0.40182325      -1.53438882      -0.44008885
C        0.46103453      -0.49980485       0.09660502
C        1.82957303      -0.16895101       0.23012228
O        1.25316710       1.59565738       0.88307599
H       -2.44069963       0.38142220      -1.36676772
H       -2.03662611       0.42052092       0.36559863
H       -1.42223550       1.67784458      -0.72821435
H       -1.18923175      -1.85948503       0.23646009
H        0.00688941      -2.23680625      -1.15853628
H        0.35235035       0.41982929       1.31596337
H        2.53117524      -0.16828333      -0.59576684
H        2.31838076      -0.56891604       1.12209188
H        0.86066286       2.08458404       1.60722372
15
Frame=14 idx=001997 GeodesicLength=1.3879838918403553 rxn_smarts="[C:1]([N:2]1[C:3]([H:10])([H:11])[C@:4]1([C:5]([O:6][H:15])([H:13])[H:14])[H:12])([H:7])([H:8])[H:9]>>[C:1]([N:2]1[C:3]([H:10])([H:11])[C:4]1=[C:5]([H:13])[H:14])([H:7])([H:8])[H:9].[O:6]([H:12])[H:15]"
C       -1.64682339       0.62736463      -0.61985730
N       -0.45966631      -0.14777881      -0.90900354
C       -0.39623036      -1.53210564      -0.45496789
C        0.47417632      -0.51109008       0.09307562
C        1.84176308      -0.18056573       0.23410607
O        1.24250533       1.60806748       0.85716834
H       -2.43515300       0.40412002      -1.33930430
H       -2.02231866       0.42085537       0.39085026
H       -1.40982298       1.68946207      -0.69258915
H       -1.17584853      -1.86530526       0.22663561
H        0.00615651      -2.21997994      -1.19065227
H        0.34289594       0.38418676       1.32392982
H        2.55760474      -0.22619668      -0.57826516
H        2.31431057      -0.56453010       1.14243552
H        0.76645074       2.11349591       1.51643839
15
Frame=15 idx=001997 GeodesicLength=1.4899135941242436 rxn_smarts="[C:1]([N:2]1[C:3]([H:10])([H:11])[C@:4]1([C:5]([O:6][H:15])([H:13])[H:14])[H:12])([H:7])([H:8])[H:9]>>[C:1]([N:2]1[C:3]([H:10])([H:11])[C:4]1=[C:5]([H:13])[H:14])([H:7])([H:8])[H:9].[O:6]([H:12])[H:15]"
C       -1.63807200       0.63822287      -0.59445294
N       -0.45382245      -0.13609248      -0.89601269
C       -0.39020823      -1.52868180      -0.46959111
C        0.48654429      -0.52045703       0.08981433
C        1.85323972      -0.19053839       0.23851836
O        1.23179302       1.62222519       0.83173323
H       -2.43035781       0.42494516      -1.31239067
H       -2.00932877       0.42064862       0.41530742
H       -1.39962810       1.70046021      -0.65836994
H       -1.16204046      -1.87083122       0.21642092
H        0.00657702      -2.20137413      -1.22197752
H        0.33186133       0.34909867       1.33211551
H        2.58244410      -0.28353425      -0.55790426
H        2.30913122      -0.55867581       1.16251124
H        0.68186711       2.13458440       1.42427813
15
Frame=16 idx=001997 GeodesicLength=1.5922480868362028 rxn_smarts="[C:1]([N:2]1[C:3]([H:10])([H:11])[C@:4]1([C:5]([O:6][H:15])([H:13])[H:14])[H:12])([H:7])([H:8])[H:9]>>[C:1]([N:2]1[C:3]([H:10])([H:11])[C:4]1=[C:5]([H:13])[H:14])([H:7])([H:8])[H:9].[O:6]([H:12])[H:15]"
C       -1.63036797       0.64839667      -0.56987384
N       -0.44841630      -0.12425410      -0.88310800
C       -0.38392226      -1.52435065      -0.48384646
C        0.49824022      -0.52813445       0.08657532
C        1.86406279      -0.19894119       0.24301733
O        1.22083150       1.63820173       0.80595988
H       -2.42637195       0.44389331      -1.28607076
H       -1.99739022       0.42025705       0.43890950
H       -1.39134070       1.71083427      -0.62604564
H       -1.14794236      -1.87596365       0.20611458
H        0.00781504      -2.18151626      -1.25224685
H        0.31934486       0.31400510       1.34032132
H        2.60556290      -0.33981206      -0.53501403
H        2.30300813      -0.55119474       1.18203382
H        0.60688633       2.14857897       1.33327382
