17
Frame=0 idx=010661 GeodesicLength=0.0 rxn_smarts="[C:1]([C@@:2]1([H:11])[O:3][C@@:4]2([H:12])[C:5]([H:13])([H:14])[C:6]([H:15])([H:16])[C@@:7]12[H:17])([H:8])([H:9])[H:10]>>[C:1]([C:2][H:11])([H:8])([H:9])[H:10].[O:3]1[C@@:4]2([H:12])[C:5]([H:13])([H:14])[C:6]([H:15])([H:16])[C@@:7]12[H:17]"
C        2.08309372       0.95324043      -0.12960140
C        1.56406735      -0.33011284      -0.65484478
O        0.41082297      -0.64979834       0.93900284
C       -0.95393723      -1.02198678       0.88808975
C       -1.82302350       0.22064574       0.69709329
C       -1.24799940       0.31666038      -0.74706211
C       -0.43347545      -0.93433247      -0.47600380
H        1.40354168       1.79353330      -0.28731288
H        2.40511850       0.93890298       0.91826931
H        2.97023478       1.13790988      -0.75345929
H        2.19126967      -1.15959976      -0.30988349
H       -1.20857929      -1.89593269       1.48072463
H       -1.59604760       1.04184388       1.37634573
H       -2.89228729       0.00980223       0.71779077
H       -2.00088757       0.13253123      -1.51487227
H       -0.67649844       1.20185447      -1.01416619
H       -0.19541291      -1.75516156      -1.13011009
17
Frame=1 idx=010661 GeodesicLength=0.08275584505004735 rxn_smarts="[C:1]([C@@:2]1([H:11])[O:3][C@@:4]2([H:12])[C:5]([H:13])([H:14])[C:6]([H:15])([H:16])[C@@:7]12[H:17])([H:8])([H:9])[H:10]>>[C:1]([C:2][H:11])([H:8])([H:9])[H:10].[O:3]1[C@@:4]2([H:12])[C:5]([H:13])([H:14])[C:6]([H:15])([H:16])[C@@:7]12[H:17]"
C        2.09857781       0.94572387      -0.14008310
C        1.56606298      -0.35314351      -0.61376948
O        0.40917284      -0.61482328       0.94065681
C       -0.94545070      -1.02077495       0.88080947
C       -1.83835703       0.20651437       0.69893309
C       -1.26096545       0.33095461      -0.74215719
C       -0.42909167      -0.91233948      -0.48469909
H        1.42553148       1.78594936      -0.32363282
H        2.42251675       0.96561579       0.90706519
H        2.98559841       1.10308186      -0.77093201
H        2.19397570      -1.17622496      -0.25537971
H       -1.17840397      -1.90645232       1.46451201
H       -1.63056768       1.02521881       1.38728157
H       -2.90330093      -0.02550857       0.71480241
H       -2.01050575       0.14830898      -1.51346687
H       -0.69887143       1.22558665      -0.99797688
H       -0.20592137      -1.72768723      -1.15196342
17
Frame=2 idx=010661 GeodesicLength=0.1654163917091523 rxn_smarts="[C:1]([C@@:2]1([H:11])[O:3][C@@:4]2([H:12])[C:5]([H:13])([H:14])[C:6]([H:15])([H:16])[C@@:7]12[H:17])([H:8])([H:9])[H:10]>>[C:1]([C:2][H:11])([H:8])([H:9])[H:10].[O:3]1[C@@:4]2([H:12])[C:5]([H:13])([H:14])[C:6]([H:15])([H:16])[C@@:7]12[H:17]"
C        2.11412785       0.93705874      -0.15149105
C        1.56751159      -0.37540470      -0.57171969
O        0.40687366      -0.57861182       0.94299761
C       -0.93642929      -1.01920936       0.87329598
C       -1.85390242       0.19147547       0.70064962
C       -1.27411786       0.34585563      -0.73666472
C       -0.42420042      -0.88897992      -0.49327019
H        1.44810608       1.77645864      -0.36223483
H        2.43991226       0.99224084       0.89376300
H        3.00118481       1.06560143      -0.78816946
H        2.19504949      -1.19192901      -0.19827475
H       -1.14699736      -1.91634944       1.44756009
H       -1.66630704       1.00687156       1.39870316
H       -2.91390769      -0.06251896       0.71075720
H       -2.01995412       0.16481750      -1.51183639
H       -0.72233457       1.25048765      -0.98008304
H       -0.21461497      -1.69786424      -1.17398254
17
Frame=3 idx=010661 GeodesicLength=0.24798235982875994 rxn_smarts="[C:1]([C@@:2]1([H:11])[O:3][C@@:4]2([H:12])[C:5]([H:13])([H:14])[C:6]([H:15])([H:16])[C@@:7]12[H:17])([H:8])([H:9])[H:10]>>[C:1]([C:2][H:11])([H:8])([H:9])[H:10].[O:3]1[C@@:4]2([H:12])[C:5]([H:13])([H:14])[C:6]([H:15])([H:16])[C@@:7]12[H:17]"
C        2.12963161       0.92716546      -0.16368954
C        1.56823786      -0.39672217      -0.52865239
O        0.40396530      -0.54128557       0.94592437
C       -0.92678930      -1.01719051       0.86553212
C       -1.86947759       0.17558315       0.70217949
C       -1.28749941       0.36128312      -0.73065878
C       -0.41882043      -0.86424478      -0.50173943
H        1.47110977       1.76487746      -0.40272401
H        2.45736230       1.01852454       0.87836170
H        3.01672071       1.02550071      -0.80508369
H        2.19436765      -1.20646027      -0.13871056
H       -1.11433843      -1.92541355       1.42990107
H       -1.70296295       0.98682666       1.41042843
H       -2.92386440      -0.10109104       0.70568342
H       -2.02933579       0.18191757      -1.50997164
H       -0.74698186       1.27639077      -0.96063803
H       -0.22132505      -1.66566153      -1.19614253
17
Frame=4 idx=010661 GeodesicLength=0.3304449731912008 rxn_smarts="[C:1]([C@@:2]1([H:11])[O:3][C@@:4]2([H:12])[C:5]([H:13])([H:14])[C:6]([H:15])([H:16])[C@@:7]12[H:17])([H:8])([H:9])[H:10]>>[C:1]([C:2][H:11])([H:8])([H:9])[H:10].[O:3]1[C@@:4]2([H:12])[C:5]([H:13])([H:14])[C:6]([H:15])([H:16])[C@@:7]12[H:17]"
C        2.14496133       0.91599498      -0.17648055
C        1.56804343      -0.41685937      -0.48461260
O        0.40050931      -0.50302809       0.94932905
C       -0.91648025      -1.01462557       0.85752026
C       -1.88487067       0.15894175       0.70345609
C       -1.30114793       0.37709933      -0.72424630
C       -0.41297537      -0.83817627      -0.51011101
H        1.49436008       1.75111336      -0.44452596
H        2.47497969       1.04411119       0.86092316
H        3.03188147       0.98289773      -0.82156862
H        2.19183072      -1.21953415      -0.07701693
H       -1.08049306      -1.93343339       1.41160910
H       -1.74014192       0.96518118       1.42224107
H       -2.93291683      -0.14098455       0.69965009
H       -2.03876306       0.19937037      -1.50787779
H       -0.77289985       1.30304836      -0.93990358
H       -0.22587709      -1.63111683      -1.21838547
17
Frame=5 idx=010661 GeodesicLength=0.4128018123828532 rxn_smarts="[C:1]([C@@:2]1([H:11])[O:3][C@@:4]2([H:12])[C:5]([H:13])([H:14])[C:6]([H:15])([H:16])[C@@:7]12[H:17])([H:8])([H:9])[H:10]>>[C:1]([C:2][H:11])([H:8])([H:9])[H:10].[O:3]1[C@@:4]2([H:12])[C:5]([H:13])([H:14])[C:6]([H:15])([H:16])[C@@:7]12[H:17]"
C        2.15999816       0.90352593      -0.18962480
C        1.56671666      -0.43551428      -0.43975270
O        0.39657615      -0.46406602       0.95308818
C       -0.90543976      -1.01141533       0.84929226
C       -1.89987560       0.14167985       0.70442758
C       -1.31508512       0.39311122      -0.71756446
C       -0.40668978      -0.81086644      -0.51838551
H        1.51768216       1.73521973      -0.48694152
H        2.49290169       1.06857262       0.84160842
H        3.04635507       0.93793491      -0.83748906
H        2.18733363      -1.23088331      -0.01375376
H       -1.04556490      -1.94018626       1.39281895
H       -1.77744163       0.94211591       1.43392225
H       -2.94084704      -0.18192933       0.69275360
H       -2.04832369       0.21685265      -1.50557725
H       -0.80015825       1.33013937      -0.91823343
H       -0.22813776      -1.59429124      -1.24058877
17
Frame=6 idx=010661 GeodesicLength=0.4949307621688855 rxn_smarts="[C:1]([C@@:2]1([H:11])[O:3][C@@:4]2([H:12])[C:5]([H:13])([H:14])[C:6]([H:15])([H:16])[C@@:7]12[H:17])([H:8])([H:9])[H:10]>>[C:1]([C:2][H:11])([H:8])([H:9])[H:10].[O:3]1[C@@:4]2([H:12])[C:5]([H:13])([H:14])[C:6]([H:15])([H:16])[C@@:7]12[H:17]"
C        2.17458023       0.88985678      -0.20281189
C        1.56413825      -0.45245072      -0.39438075
O        0.39229706      -0.42473533       0.95707501
C       -0.89374729      -1.00752632       0.84087684
C       -1.91418710       0.12403138       0.70502933
C       -1.32933995       0.40906855      -0.71078749
C       -0.40003345      -0.78250952      -0.52654240
H        1.54080899       1.71731686      -0.52908548
H        2.51127006       1.09143783       0.82068482
H        3.05976048       0.89115443      -0.85264424
H        2.18095573      -1.24029670       0.05040910
H       -1.00987574      -1.94554769       1.37367183
H       -1.81416993       0.91790418       1.44515949
H       -2.94735759      -0.22337585       0.68518968
H       -2.05817852       0.23395489      -1.50307669
H       -0.82879070       1.35725843      -0.89612419
H       -0.22813053      -1.55554121      -1.26264299
17
Frame=7 idx=010661 GeodesicLength=0.5768387434152604 rxn_smarts="[C:1]([C@@:2]1([H:11])[O:3][C@@:4]2([H:12])[C:5]([H:13])([H:14])[C:6]([H:15])([H:16])[C@@:7]12[H:17])([H:8])([H:9])[H:10]>>[C:1]([C:2][H:11])([H:8])([H:9])[H:10].[O:3]1[C@@:4]2([H:12])[C:5]([H:13])([H:14])[C:6]([H:15])([H:16])[C@@:7]12[H:17]"
C        2.18864020       0.87506251      -0.21578284
C        1.56017309      -0.46740022      -0.34884135
O        0.38776772      -0.38528283       0.96115854
C       -0.88141065      -1.00290030       0.83234001
C       -1.92764610       0.10617493       0.70524808
C       -1.34391958       0.42471970      -0.70407186
C       -0.39306197      -0.75326916      -0.53456080
H        1.56363184       1.69771687      -0.57021633
H        2.53022225       1.11225368       0.79850652
H        3.07188627       0.84282827      -0.86689479
H        2.17269942      -1.24761190       0.11468973
H       -0.97362724      -1.94937866       1.35434753
H       -1.84993833       0.89283946       1.45577722
H       -2.95233949      -0.26497407       0.67714776
H       -2.06839956       0.25025808      -1.50042133
H       -0.85882493       1.38401804      -0.87401461
H       -0.22585294      -1.51505440      -1.28441147
17
Frame=8 idx=010661 GeodesicLength=0.6584986434172857 rxn_smarts="[C:1]([C@@:2]1([H:11])[O:3][C@@:4]2([H:12])[C:5]([H:13])([H:14])[C:6]([H:15])([H:16])[C@@:7]12[H:17])([H:8])([H:9])[H:10]>>[C:1]([C:2][H:11])([H:8])([H:9])[H:10].[O:3]1[C@@:4]2([H:12])[C:5]([H:13])([H:14])[C:6]([H:15])([H:16])[C@@:7]12[H:17]"
C        2.20210334       0.85928430      -0.22826903
C        1.55477617      -0.48019316      -0.30352241
O        0.38310499      -0.34597878       0.96523291
C       -0.86850492      -0.99752749       0.82373855
C       -1.94008041       0.08831247       0.70507705
C       -1.35881173       0.43982309      -0.69756840
C       -0.38584668      -0.72334955      -0.54242060
H        1.58601141       1.67677788      -0.60965272
H        2.54986907       1.13064814       0.77546182
H        3.08253702       0.79340311      -0.88009513
H        2.16267727      -1.25278709       0.17832795
H       -0.93709567      -1.95162929       1.33500471
H       -1.88429079       0.86723651       1.46561360
H       -2.95569627      -0.30629907       0.66883258
H       -2.07904550       0.26537327      -1.49764573
H       -0.89025069       1.41005144      -0.85235785
H       -0.22145662      -1.47314578      -1.30575731
17
Frame=9 idx=010661 GeodesicLength=0.7401265109855614 rxn_smarts="[C:1]([C@@:2]1([H:11])[O:3][C@@:4]2([H:12])[C:5]([H:13])([H:14])[C:6]([H:15])([H:16])[C@@:7]12[H:17])([H:8])([H:9])[H:10]>>[C:1]([C:2][H:11])([H:8])([H:9])[H:10].[O:3]1[C@@:4]2([H:12])[C:5]([H:13])([H:14])[C:6]([H:15])([H:16])[C@@:7]12[H:17]"
C        2.21504923       0.84270747      -0.24010372
C        1.54803218      -0.49072289      -0.25858634
O        0.37844618      -0.30700155       0.96911144
C       -0.85516419      -0.99145428       0.81510953
C       -1.95144029       0.07055306       0.70453234
C       -1.37405452       0.45423843      -0.69137475
C       -0.37847193      -0.69288834      -0.55008543
H        1.60807576       1.65478124      -0.64694416
H        2.57023081       1.14638994       0.75154880
H        3.09185480       0.74339194      -0.89199302
H        2.15116735      -1.25578837       0.24078239
H       -0.90059527      -1.95236473       1.31574098
H       -1.91693653       0.84130931       1.47472139
H       -2.95751715      -0.34711237       0.66033270
H       -2.09024602       0.27900552      -1.49482479
H       -0.92300075       1.43520561      -0.83143104
H       -0.21542965      -1.43024998      -1.32653634
17
Frame=10 idx=010661 GeodesicLength=0.8216547569993844 rxn_smarts="[C:1]([C@@:2]1([H:11])[O:3][C@@:4]2([H:12])[C:5]([H:13])([H:14])[C:6]([H:15])([H:16])[C@@:7]12[H:17])([H:8])([H:9])[H:10]>>[C:1]([C:2][H:11])([H:8])([H:9])[H:10].[O:3]1[C@@:4]2([H:12])[C:5]([H:13])([H:14])[C:6]([H:15])([H:16])[C@@:7]12[H:17]"
C        2.22728749       0.82545394      -0.25107334
C        1.53990726      -0.49891528      -0.21448302
O        0.37386477      -0.26865830       0.97283903
C       -0.84143511      -0.98468065       0.80651045
C       -1.96152264       0.05314260       0.70363143
C       -1.38955286       0.46773236      -0.68563241
C       -0.37096862      -0.66211432      -0.55754971
H        1.62953397       1.63218399      -0.68145280
H        2.59138428       1.15914521       0.72743502
H        3.09936781       0.69314158      -0.90277552
H        2.13814350      -1.25674104       0.30141568
H       -0.86435456      -1.95157195       1.29668930
H       -1.94745333       0.81544118       1.48281702
H       -2.95759860      -0.38693854       0.65194880
H       -2.10191004       0.29084207      -1.49197340
H       -0.95708520       1.45910634      -0.81162854
H       -0.20760811      -1.38656919      -1.34671800
17
Frame=11 idx=010661 GeodesicLength=0.9030910967314645 rxn_smarts="[C:1]([C@@:2]1([H:11])[O:3][C@@:4]2([H:12])[C:5]([H:13])([H:14])[C:6]([H:15])([H:16])[C@@:7]12[H:17])([H:8])([H:9])[H:10]>>[C:1]([C:2][H:11])([H:8])([H:9])[H:10].[O:3]1[C@@:4]2([H:12])[C:5]([H:13])([H:14])[C:6]([H:15])([H:16])[C@@:7]12[H:17]"
C        2.23885662       0.80768878      -0.26109334
C        1.53048457      -0.50480429      -0.17154161
O        0.36942774      -0.23106774       0.97636080
C       -0.82737886      -0.97721923       0.79801658
C       -1.97038786       0.03616426       0.70244998
C       -1.40521610       0.48018932      -0.68044039
C       -0.36338453      -0.63117576      -0.56478432
H        1.65046856       1.60954596      -0.71299107
H        2.61330001       1.16880832       0.70357214
H        3.10509355       0.64286400      -0.91253938
H        2.12373075      -1.25591989       0.35966861
H       -0.82851652      -1.94928957       1.27801576
H       -1.97585712       0.78990904       1.48998600
H       -2.95611577      -0.42570898       0.64386585
H       -2.11391849       0.30069964      -1.48922514
H       -0.99239765       1.48163322      -0.79315366
H       -0.19818891      -1.34231707      -1.36616682
17
Frame=12 idx=010661 GeodesicLength=0.984502217002645 rxn_smarts="[C:1]([C@@:2]1([H:11])[O:3][C@@:4]2([H:12])[C:5]([H:13])([H:14])[C:6]([H:15])([H:16])[C@@:7]12[H:17])([H:8])([H:9])[H:10]>>[C:1]([C:2][H:11])([H:8])([H:9])[H:10].[O:3]1[C@@:4]2([H:12])[C:5]([H:13])([H:14])[C:6]([H:15])([H:16])[C@@:7]12[H:17]"
C        2.24971153       0.78957451      -0.27008968
C        1.51991324      -0.50849218      -0.12993051
O        0.36521679      -0.19440539       0.97967044
C       -0.81312373      -0.96916223       0.78964998
C       -1.97795515       0.01975561       0.70101809
C       -1.42099030       0.49153354      -0.67584237
C       -0.35576594      -0.60022342      -0.57176916
H        1.67080599       1.58709839      -0.74137822
H        2.63588263       1.17535532       0.68017553
H        3.10896633       0.59299084      -0.92129644
H        2.10813028      -1.25348254       0.41527049
H       -0.79334258      -1.94568177       1.25974881
H       -2.00189479       0.76491371       1.49616875
H       -2.95304550      -0.46312772       0.63622142
H       -2.12623604       0.30848061      -1.48659569
H       -1.02886216       1.50266620      -0.77615182
H       -0.18741061      -1.29779347      -1.38486962
17
Frame=13 idx=010661 GeodesicLength=1.0658882813558712 rxn_smarts="[C:1]([C@@:2]1([H:11])[O:3][C@@:4]2([H:12])[C:5]([H:13])([H:14])[C:6]([H:15])([H:16])[C@@:7]12[H:17])([H:8])([H:9])[H:10]>>[C:1]([C:2][H:11])([H:8])([H:9])[H:10].[O:3]1[C@@:4]2([H:12])[C:5]([H:13])([H:14])[C:6]([H:15])([H:16])[C@@:7]12[H:17]"
C        2.25988896       0.77124517      -0.27807840
C        1.50832812      -0.51010943      -0.08983303
O        0.36127288      -0.15873855       0.98275768
C       -0.79873139      -0.96056614       0.78145591
C       -1.98432405       0.00394672       0.69942208
C       -1.43676495       0.50174977      -0.67186074
C       -0.34814761      -0.56935447      -0.57848491
H        1.69060326       1.56518194      -0.76675809
H        2.65900063       1.17890620       0.65750567
H        3.11110259       0.54366798      -0.92910289
H        2.09151021      -1.24970407       0.46798422
H       -0.75893851      -1.94087222       1.24195207
H       -2.02566922       0.74062813       1.50152555
H       -2.94859362      -0.49919295       0.62911362
H       -2.13871036       0.31418242      -1.48418575
H       -1.06632414       1.52219216      -0.76064282
H       -0.17550281      -1.25316266      -1.40277017
17
Frame=14 idx=010661 GeodesicLength=1.1472701312086375 rxn_smarts="[C:1]([C@@:2]1([H:11])[O:3][C@@:4]2([H:12])[C:5]([H:13])([H:14])[C:6]([H:15])([H:16])[C@@:7]12[H:17])([H:8])([H:9])[H:10]>>[C:1]([C:2][H:11])([H:8])([H:9])[H:10].[O:3]1[C@@:4]2([H:12])[C:5]([H:13])([H:14])[C:6]([H:15])([H:16])[C@@:7]12[H:17]"
C        2.26940009       0.75281628      -0.28507742
C        1.49588581      -0.50981572      -0.05133373
O        0.35763126      -0.12412208       0.98563411
C       -0.78428993      -0.95150948       0.77344596
C       -1.98953475      -0.01120925       0.69770537
C       -1.45246397       0.51084609      -0.66850407
C       -0.34055781      -0.53863867      -0.58491873
H        1.70986775       1.54397046      -0.78924237
H        2.68253115       1.17958530       0.63570506
H        3.11154759       0.49511859      -0.93603355
H        2.07405326      -1.24479439       0.51774519
H       -0.72542491      -1.93501573       1.22463548
H       -2.04719310       0.71716378       1.50616190
H       -2.94288577      -0.53382951       0.62259878
H       -2.15122875       0.31783827      -1.48203734
H       -1.10465665       1.54019051      -0.74661486
H       -0.16268127      -1.20859445      -1.41986977
17
Frame=15 idx=010661 GeodesicLength=1.2286472100978167 rxn_smarts="[C:1]([C@@:2]1([H:11])[O:3][C@@:4]2([H:12])[C:5]([H:13])([H:14])[C:6]([H:15])([H:16])[C@@:7]12[H:17])([H:8])([H:9])[H:10]>>[C:1]([C:2][H:11])([H:8])([H:9])[H:10].[O:3]1[C@@:4]2([H:12])[C:5]([H:13])([H:14])[C:6]([H:15])([H:16])[C@@:7]12[H:17]"
C        2.27825360       0.73438528      -0.29114941
C        1.48273656      -0.50777623      -0.01447297
O        0.35431287      -0.09058191       0.98832847
C       -0.76986223      -0.94206421       0.76563948
C       -1.99366660      -0.02569690       0.69591854
C       -1.46799393       0.51886111      -0.66574798
C       -0.33301457      -0.50812696      -0.59105118
H        1.72860285       1.52358524      -0.80904177
H        2.70633327       1.17757443       0.61485610
H        3.11038402       0.44747850      -0.94215568
H        2.05592479      -1.23896587       0.56454995
H       -0.69287047      -1.92826058       1.20779938
H       -2.06657401       0.69459750       1.51019059
H       -2.93606710      -0.56703118       0.61668582
H       -2.16364986       0.31954077      -1.48019689
H       -1.14370349       1.55667508      -0.73398614
H       -0.14914569      -1.16419408      -1.43616634
17
Frame=16 idx=010661 GeodesicLength=1.3100124603373455 rxn_smarts="[C:1]([C@@:2]1([H:11])[O:3][C@@:4]2([H:12])[C:5]([H:13])([H:14])[C:6]([H:15])([H:16])[C@@:7]12[H:17])([H:8])([H:9])[H:10]>>[C:1]([C:2][H:11])([H:8])([H:9])[H:10].[O:3]1[C@@:4]2([H:12])[C:5]([H:13])([H:14])[C:6]([H:15])([H:16])[C@@:7]12[H:17]"
C        2.28646273       0.71602432      -0.29635933
C        1.46902177      -0.50414941       0.02073982
O        0.35132972      -0.05812509       0.99087056
C       -0.75550404      -0.93229738       0.75804557
C       -1.99679619      -0.03951112       0.69409608
C       -1.48327709       0.52585035      -0.66357083
C       -0.32553563      -0.47785382      -0.59686937
H        1.74680500       1.50409807      -0.82635983
H        2.73028657       1.17304206       0.59500263
H        3.10769151       0.40086836      -0.94753441
H        2.03728489      -1.23238300       0.60845486
H       -0.66131556      -1.92074662       1.19142858
H       -2.08392718       0.67298235       1.51372938
H       -2.92827869      -0.59880657       0.61137648
H       -2.17584763       0.31940033      -1.47869883
H       -1.18331657       1.57166707      -0.72267687
H       -0.13508360      -1.12005991      -1.45167449
