17
Frame=0 idx=010585 GeodesicLength=0.0 rxn_smarts="[C:1]([C@@:2]1([H:11])[C:3]([H:12])([H:13])[C@:4]1([C:5]([C:6]#[C:7][H:17])([H:15])[H:16])[H:14])([H:8])([H:9])[H:10]>>[C:1](=[C:2]([C:3]([C:4]([C:5]([C:6]#[C:7][H:17])([H:10])[H:15])([H:14])[H:16])([H:12])[H:13])[H:11])([H:8])[H:9]"
C       -1.49118648       1.02604154       0.39073326
C       -1.61881625      -0.37474109       0.03062821
C       -1.03430522      -0.86815294      -1.20921081
C        0.27394083      -0.91284742      -0.44238745
C        1.15605159       0.26624312      -0.33006399
C        2.05394811       0.40305528       0.74975809
C        2.80918794       0.48146768       1.68432218
H       -1.85761160       1.71780542      -0.37348648
H       -1.94174687       1.26799437       1.35139379
H       -0.37696176       1.26131550       0.44903190
H       -1.98884257      -1.09720169       0.74585776
H       -1.36087201      -1.84831922      -1.54497160
H       -1.00893396      -0.16391128      -2.04092083
H        0.39737825      -1.69393539       0.29644545
H        1.22006770       0.94041556      -1.17460904
H        1.29187741      -0.96585311      -1.09092103
H        3.47682481       0.56062361       2.50840053
17
Frame=1 idx=010585 GeodesicLength=0.09356174076624903 rxn_smarts="[C:1]([C@@:2]1([H:11])[C:3]([H:12])([H:13])[C@:4]1([C:5]([C:6]#[C:7][H:17])([H:15])[H:16])[H:14])([H:8])([H:9])[H:10]>>[C:1](=[C:2]([C:3]([C:4]([C:5]([C:6]#[C:7][H:17])([H:10])[H:15])([H:14])[H:16])([H:12])[H:13])[H:11])([H:8])[H:9]"
C       -1.50235559       1.02871414       0.38622723
C       -1.61575158      -0.37274375       0.03094764
C       -1.03169946      -0.86919076      -1.21060229
C        0.27170349      -0.91383357      -0.43704129
C        1.15143005       0.26950705      -0.32405047
C        2.05593284       0.40238548       0.75377571
C        2.81388459       0.47420196       1.68613186
H       -1.88634082       1.71331826      -0.37546443
H       -1.94286868       1.26945742       1.35184574
H       -0.36361566       1.26667785       0.42612095
H       -1.98817022      -1.09350569       0.74681530
H       -1.36090811      -1.84934421      -1.54374319
H       -1.00592836      -0.16354038      -2.04092554
H        0.39651910      -1.69693039       0.29959685
H        1.21454721       0.94588536      -1.16713108
H        1.30418812      -0.96009112      -1.08673627
H        3.48943308       0.54903236       2.50423329
17
Frame=2 idx=010585 GeodesicLength=0.18702273945304368 rxn_smarts="[C:1]([C@@:2]1([H:11])[C:3]([H:12])([H:13])[C@:4]1([C:5]([C:6]#[C:7][H:17])([H:15])[H:16])[H:14])([H:8])([H:9])[H:10]>>[C:1](=[C:2]([C:3]([C:4]([C:5]([C:6]#[C:7][H:17])([H:10])[H:15])([H:14])[H:16])([H:12])[H:13])[H:11])([H:8])[H:9]"
C       -1.51381081       1.03128519       0.38187486
C       -1.61265162      -0.37068285       0.03138428
C       -1.02908309      -0.87010074      -1.21192052
C        0.26941889      -0.91479030      -0.43161874
C        1.14699693       0.27262149      -0.31818554
C        2.05799627       0.40174046       0.75767672
C        2.81897839       0.46693318       1.68751353
H       -1.91454537       1.70858392      -0.37735816
H       -1.94492228       1.27108102       1.35197617
H       -0.34996607       1.27175702       0.40384942
H       -1.98760522      -1.08983958       0.74771802
H       -1.36100602      -1.85017592      -1.54252687
H       -1.00291715      -0.16297743      -2.04079866
H        0.39565658      -1.69993733       0.30275526
H        1.20922094       0.95113477      -1.15985162
H        1.31656588      -0.95431871      -1.08261246
H        3.50167375       0.53768581       2.50012433
17
Frame=3 idx=010585 GeodesicLength=0.2804274849511865 rxn_smarts="[C:1]([C@@:2]1([H:11])[C:3]([H:12])([H:13])[C@:4]1([C:5]([C:6]#[C:7][H:17])([H:15])[H:16])[H:14])([H:8])([H:9])[H:10]>>[C:1](=[C:2]([C:3]([C:4]([C:5]([C:6]#[C:7][H:17])([H:10])[H:15])([H:14])[H:16])([H:12])[H:13])[H:11])([H:8])[H:9]"
C       -1.52573901       1.03376294       0.37755095
C       -1.60957013      -0.36856204       0.03188023
C       -1.02639390      -0.87090134      -1.21316367
C        0.26708509      -0.91566702      -0.42600971
C        1.14270603       0.27566812      -0.31232667
C        2.06001573       0.40124268       0.76166902
C        2.82427792       0.45982633       1.68872044
H       -1.94241405       1.70356870      -0.37937644
H       -1.94814387       1.27286772       1.35166196
H       -0.33610844       1.27662575       0.38223679
H       -1.98723486      -1.08620226       0.74849481
H       -1.36104140      -1.85085456      -1.54131948
H       -0.99979473      -0.16226748      -2.04055890
H        0.39476065      -1.70288642       0.30605518
H        1.20409190       0.95622270      -1.15264391
H        1.32906685      -0.94846752      -1.07836952
H        3.51443620       0.52602371       2.49549889
17
Frame=4 idx=010585 GeodesicLength=0.37381048738953726 rxn_smarts="[C:1]([C@@:2]1([H:11])[C:3]([H:12])([H:13])[C@:4]1([C:5]([C:6]#[C:7][H:17])([H:15])[H:16])[H:14])([H:8])([H:9])[H:10]>>[C:1](=[C:2]([C:3]([C:4]([C:5]([C:6]#[C:7][H:17])([H:10])[H:15])([H:14])[H:16])([H:12])[H:13])[H:11])([H:8])[H:9]"
C       -1.53809194       1.03615108       0.37329693
C       -1.60644370      -0.36636992       0.03251303
C       -1.02366616      -0.87158317      -1.21429948
C        0.26472034      -0.91647334      -0.42027351
C        1.13860664       0.27862085      -0.30659910
C        2.06213293       0.40083027       0.76555840
C        2.83000527       0.45280595       1.68948742
H       -1.96998764       1.69827571      -0.38147373
H       -1.95236892       1.27481026       1.35101957
H       -0.32188496       1.28130149       0.36128932
H       -1.98695506      -1.08258352       0.74924279
H       -1.36108394      -1.85136552      -1.54006949
H       -0.99664485      -0.16140113      -2.04017531
H        0.39389585      -1.70579815       0.30941656
H        1.19916442       0.96112381      -1.14563655
H        1.34166595      -0.94256029      -1.07415962
H        3.52693576       0.51421562       2.49086276
17
Frame=5 idx=010585 GeodesicLength=0.46719515409666973 rxn_smarts="[C:1]([C@@:2]1([H:11])[C:3]([H:12])([H:13])[C@:4]1([C:5]([C:6]#[C:7][H:17])([H:15])[H:16])[H:14])([H:8])([H:9])[H:10]>>[C:1](=[C:2]([C:3]([C:4]([C:5]([C:6]#[C:7][H:17])([H:10])[H:15])([H:14])[H:16])([H:12])[H:13])[H:11])([H:8])[H:9]"
C       -1.55111497       1.03844040       0.36895355
C       -1.60339708      -0.36409902       0.03313969
C       -1.02082926      -0.87212275      -1.21538826
C        0.26226711      -0.91719008      -0.41426692
C        1.13462802       0.28149651      -0.30071190
C        2.06411928       0.40049230       0.76978072
C        2.83575989       0.44583916       1.69038597
H       -1.99745764       1.69267612      -0.38389267
H       -1.95793675       1.27687218       1.34987173
H       -0.30743944       1.28582259       0.34109198
H       -1.98700204      -1.07899201       0.74974238
H       -1.36100763      -1.85168330      -1.53890290
H       -0.99326834      -0.16034795      -2.03969697
H        0.39289628      -1.70866690       0.31298633
H        1.19450258       0.96586213      -1.13852437
H        1.35441564      -0.93656725      -1.06968397
H        3.54086433       0.50216787       2.48511561
17
Frame=6 idx=010585 GeodesicLength=0.5606282994986241 rxn_smarts="[C:1]([C@@:2]1([H:11])[C:3]([H:12])([H:13])[C@:4]1([C:5]([C:6]#[C:7][H:17])([H:15])[H:16])[H:14])([H:8])([H:9])[H:10]>>[C:1](=[C:2]([C:3]([C:4]([C:5]([C:6]#[C:7][H:17])([H:10])[H:15])([H:14])[H:16])([H:12])[H:13])[H:11])([H:8])[H:9]"
C       -1.56465325       1.04063495       0.36464366
C       -1.60028705      -0.36173518       0.03393226
C       -1.01795870      -0.87251565      -1.21635612
C        0.25977785      -0.91783374      -0.40812961
C        1.13087167       0.28425736      -0.29496408
C        2.06626756       0.40016000       0.77387970
C        2.84202002       0.43885535       1.69079841
H       -2.02483217       1.68676367      -0.38646272
H       -1.96447347       1.27906532       1.34845082
H       -0.29249390       1.29021640       0.32158982
H       -1.98712854      -1.07541030       0.75022194
H       -1.36095810      -1.85179805      -1.53768986
H       -0.98986615      -0.15910728      -2.03905708
H        0.39192601      -1.71151541       0.31659697
H        1.19009014       0.97039200      -1.13162243
H        1.36726228      -0.93053159      -1.06527831
H        3.55443579       0.49010214       2.47944664
17
Frame=7 idx=010585 GeodesicLength=0.6541124728214589 rxn_smarts="[C:1]([C@@:2]1([H:11])[C:3]([H:12])([H:13])[C@:4]1([C:5]([C:6]#[C:7][H:17])([H:15])[H:16])[H:14])([H:8])([H:9])[H:10]>>[C:1](=[C:2]([C:3]([C:4]([C:5]([C:6]#[C:7][H:17])([H:10])[H:15])([H:14])[H:16])([H:12])[H:13])[H:11])([H:8])[H:9]"
C       -1.57880070       1.04273980       0.36030821
C       -1.59708663      -0.35927529       0.03492958
C       -1.01501853      -0.87279296      -1.21714692
C        0.25729490      -0.91834159      -0.40181122
C        1.12734020       0.28700056      -0.28938331
C        2.06858949       0.40000942       0.77781454
C        2.84880201       0.43212083       1.69066355
H       -2.05229704       1.68046231      -0.38928686
H       -1.97202082       1.28141975       1.34672272
H       -0.27705309       1.29458978       0.30271171
H       -1.98727387      -1.07182425       0.75075104
H       -1.36085848      -1.85177114      -1.53632600
H       -0.98643956      -0.15774994      -2.03823498
H        0.39106988      -1.71424543       0.32032832
H        1.18590503       0.97476586      -1.12499737
H        1.38024879      -0.92438476      -1.06091901
H        3.56759843       0.47727706       2.47387601
17
Frame=8 idx=010585 GeodesicLength=0.7476729841697587 rxn_smarts="[C:1]([C@@:2]1([H:11])[C:3]([H:12])([H:13])[C@:4]1([C:5]([C:6]#[C:7][H:17])([H:15])[H:16])[H:14])([H:8])([H:9])[H:10]>>[C:1](=[C:2]([C:3]([C:4]([C:5]([C:6]#[C:7][H:17])([H:10])[H:15])([H:14])[H:16])([H:12])[H:13])[H:11])([H:8])[H:9]"
C       -1.59361313       1.04472746       0.35594833
C       -1.59387537      -0.35668928       0.03603916
C       -1.01204262      -0.87285234      -1.21786419
C        0.25471657      -0.91880197      -0.39532302
C        1.12404347       0.28954219      -0.28380885
C        2.07103114       0.39965823       0.78182676
C        2.85593698       0.42508331       1.69031634
H       -2.07986922       1.67381007      -0.39234809
H       -1.98061407       1.28385066       1.34471915
H       -0.26103586       1.29887668       0.28458825
H       -1.98763377      -1.06825014       0.75112385
H       -1.36080294      -1.85143881      -1.53503835
H       -0.98289898      -0.15609669      -2.03726190
H        0.39010615      -1.71703218       0.32409420
H        1.18209050       0.97886588      -1.11842688
H        1.39333223      -0.91825847      -1.05655189
H        3.58112892       0.46500541       2.46796715
17
Frame=9 idx=010585 GeodesicLength=0.8412631147640616 rxn_smarts="[C:1]([C@@:2]1([H:11])[C:3]([H:12])([H:13])[C@:4]1([C:5]([C:6]#[C:7][H:17])([H:15])[H:16])[H:14])([H:8])([H:9])[H:10]>>[C:1](=[C:2]([C:3]([C:4]([C:5]([C:6]#[C:7][H:17])([H:10])[H:15])([H:14])[H:16])([H:12])[H:13])[H:11])([H:8])[H:9]"
C       -1.60909151       1.04659854       0.35158061
C       -1.59058339      -0.35396987       0.03734838
C       -1.00903898      -0.87270968      -1.21844686
C        0.25208861      -0.91918404      -0.38868923
C        1.12102198       0.29192867      -0.27837164
C        2.07369917       0.39919775       0.78572418
C        2.86358594       0.41789555       1.68950924
H       -2.10765628       1.66674915      -0.39561965
H       -1.99014994       1.28638227       1.34249985
H       -0.24436512       1.30315973       0.26712070
H       -1.98807848      -1.06467393       0.75146165
H       -1.36080057      -1.85083241      -1.53371642
H       -0.97932291      -0.15418778      -2.03609984
H        0.38914694      -1.71982294       0.32787994
H        1.17863561       0.98269991      -1.11207958
H        1.40652368      -0.91213214      -1.05228619
H        3.59438528       0.45290120       2.46218487
17
Frame=10 idx=010585 GeodesicLength=0.9349423722800916 rxn_smarts="[C:1]([C@@:2]1([H:11])[C:3]([H:12])([H:13])[C@:4]1([C:5]([C:6]#[C:7][H:17])([H:15])[H:16])[H:14])([H:8])([H:9])[H:10]>>[C:1](=[C:2]([C:3]([C:4]([C:5]([C:6]#[C:7][H:17])([H:10])[H:15])([H:14])[H:16])([H:12])[H:13])[H:11])([H:8])[H:9]"
C       -1.62528266       1.04833491       0.34720491
C       -1.58721607      -0.35109037       0.03885649
C       -1.00602687      -0.87231738      -1.21891458
C        0.24938283      -0.91950764      -0.38192108
C        1.11830414       0.29409379      -0.27305664
C        2.07662779       0.39848110       0.78952720
C        2.87175683       0.41035232       1.68827078
H       -2.13576691       1.65924567      -0.39909252
H       -2.00057340       1.28899547       1.34010962
H       -0.22694068       1.30744322       0.25033080
H       -1.98864293      -1.06109345       0.75172425
H       -1.36089947      -1.84988257      -1.53241499
H       -0.97570295      -0.15195105      -2.03474473
H        0.38813583      -1.72267099       0.33163965
H        1.17561055       0.98621525      -1.10592688
H        1.41980740      -0.90606231      -1.04814847
H        3.60742657       0.44141403       2.45655620
17
Frame=11 idx=010585 GeodesicLength=1.028693633219643 rxn_smarts="[C:1]([C@@:2]1([H:11])[C:3]([H:12])([H:13])[C@:4]1([C:5]([C:6]#[C:7][H:17])([H:15])[H:16])[H:14])([H:8])([H:9])[H:10]>>[C:1](=[C:2]([C:3]([C:4]([C:5]([C:6]#[C:7][H:17])([H:10])[H:15])([H:14])[H:16])([H:12])[H:13])[H:11])([H:8])[H:9]"
C       -1.64220595       1.04992566       0.34283701
C       -1.58373165      -0.34803393       0.04061789
C       -1.00302095      -0.87166584      -1.21923741
C        0.24661751      -0.91975949      -0.37503951
C        1.11592708       0.29604191      -0.26794421
C        2.07990071       0.39750766       0.79311439
C        2.88056779       0.40246290       1.68644011
H       -2.16430832       1.65124364      -0.40272993
H       -2.01179145       1.29170490       1.33760378
H       -0.20867618       1.31177167       0.23415617
H       -1.98925790      -1.05749890       0.75197288
H       -1.36112592      -1.84858086      -1.53108536
H       -0.97208859      -0.14938203      -2.03317168
H        0.38712170      -1.72556223       0.33534410
H        1.17303871       0.98939421      -1.10007014
H        1.43318426      -0.90005823      -1.04422610
H        3.61984916       0.43048897       2.45141802
17
Frame=12 idx=010585 GeodesicLength=1.1225103576419975 rxn_smarts="[C:1]([C@@:2]1([H:11])[C:3]([H:12])([H:13])[C@:4]1([C:5]([C:6]#[C:7][H:17])([H:15])[H:16])[H:14])([H:8])([H:9])[H:10]>>[C:1](=[C:2]([C:3]([C:4]([C:5]([C:6]#[C:7][H:17])([H:10])[H:15])([H:14])[H:16])([H:12])[H:13])[H:11])([H:8])[H:9]"
C       -1.65990976       1.05135205       0.33848261
C       -1.58013142      -0.34477423       0.04263780
C       -1.00003716      -0.87071081      -1.21942727
C        0.24377114      -0.91995329      -0.36805192
C        1.11391942       0.29772014      -0.26302435
C        2.08354689       0.39616017       0.79650239
C        2.89003438       0.39406882       1.68403020
H       -2.19338130       1.64269772      -0.40651469
H       -2.02377875       1.29450062       1.33501250
H       -0.18949379       1.31615857       0.21859112
H       -1.98994798      -1.05388724       0.75217396
H       -1.36151964      -1.84686411      -1.52976969
H       -0.96847419      -0.14641593      -2.03137213
H        0.38605891      -1.72853680       0.33895702
H        1.17099046       0.99218601      -1.09449621
H        1.44664683      -0.89417250      -1.04053964
H        3.63170595       0.42047081       2.44680830
17
Frame=13 idx=010585 GeodesicLength=1.2163602756867165 rxn_smarts="[C:1]([C@@:2]1([H:11])[C:3]([H:12])([H:13])[C@:4]1([C:5]([C:6]#[C:7][H:17])([H:15])[H:16])[H:14])([H:8])([H:9])[H:10]>>[C:1](=[C:2]([C:3]([C:4]([C:5]([C:6]#[C:7][H:17])([H:10])[H:15])([H:14])[H:16])([H:12])[H:13])[H:11])([H:8])[H:9]"
C       -1.67869076       1.05260021       0.33393263
C       -1.57644741      -0.34130956       0.04489978
C       -0.99693575      -0.86952512      -1.21939213
C        0.24090972      -0.91992457      -0.36074773
C        1.11221399       0.29939159      -0.25816499
C        2.08739215       0.39492282       0.79990194
C        2.89991569       0.38585857       1.68130759
H       -2.22333030       1.63340593      -0.41076502
H       -2.03688628       1.29746877       1.33208171
H       -0.16959796       1.32080239       0.20350055
H       -1.99072808      -1.05023872       0.75233657
H       -1.36179870      -1.84488049      -1.52830134
H       -0.96473166      -0.14321252      -2.02933137
H        0.38504269      -1.73133829       0.34278446
H        1.16941691       0.99474712      -1.08916211
H        1.46033067      -0.88820267      -1.03679006
H        3.64392508       0.40943454       2.44190952
17
Frame=14 idx=010585 GeodesicLength=1.310214967394774 rxn_smarts="[C:1]([C@@:2]1([H:11])[C:3]([H:12])([H:13])[C@:4]1([C:5]([C:6]#[C:7][H:17])([H:15])[H:16])[H:14])([H:8])([H:9])[H:10]>>[C:1](=[C:2]([C:3]([C:4]([C:5]([C:6]#[C:7][H:17])([H:10])[H:15])([H:14])[H:16])([H:12])[H:13])[H:11])([H:8])[H:9]"
C       -1.69832745       1.05364320       0.32941707
C       -1.57260705      -0.33758491       0.04748256
C       -0.99388405      -0.86797476      -1.21920116
C        0.23796628      -0.91982686      -0.35335969
C        1.11094783       0.30075142      -0.25357008
C        2.09172329       0.39320581       0.80299935
C        2.91058159       0.37701067       1.67786182
H       -2.25403062       1.62342200      -0.41509556
H       -2.05065482       1.30054215       1.32913353
H       -0.14862360       1.32555735       0.18893526
H       -1.99153478      -1.04655359       0.75247709
H       -1.36230645      -1.84240384      -1.52683287
H       -0.96103065      -0.13953626      -2.02702686
H        0.38398095      -1.73423580       0.34646276
H        1.16847047       0.99685143      -1.08420626
H        1.47409983      -0.88241219      -1.03337836
H        3.65522924       0.39954419       2.43790140
17
Frame=15 idx=010585 GeodesicLength=1.4040525912301458 rxn_smarts="[C:1]([C@@:2]1([H:11])[C:3]([H:12])([H:13])[C@:4]1([C:5]([C:6]#[C:7][H:17])([H:15])[H:16])[H:14])([H:8])([H:9])[H:10]>>[C:1](=[C:2]([C:3]([C:4]([C:5]([C:6]#[C:7][H:17])([H:10])[H:15])([H:14])[H:16])([H:12])[H:13])[H:11])([H:8])[H:9]"
C       -1.71905693       1.05445393       0.32478655
C       -1.56863681      -0.33358278       0.05037619
C       -0.99078664      -0.86609103      -1.21879101
C        0.23497906      -0.91954125      -0.34573489
C        1.11008302       0.30197231      -0.24913697
C        2.09642450       0.39131680       0.80595740
C        2.92186094       0.36796292       1.67390038
H       -2.28576300       1.61256341      -0.41972541
H       -2.06534046       1.30378707       1.32598290
H       -0.12668819       1.33056383       0.17479459
H       -1.99238908      -1.04281516       0.75258549
H       -1.36285279      -1.83951277      -1.52525977
H       -0.95727505      -0.13547245      -2.02444266
H        0.38292159      -1.73705415       0.35020315
H        1.16814587       0.99859212      -1.07959130
H        1.48805003      -0.87667364      -1.03008984
H        3.66632394       0.38953082       2.43418520
17
Frame=16 idx=010585 GeodesicLength=1.4978296013061707 rxn_smarts="[C:1]([C@@:2]1([H:11])[C:3]([H:12])([H:13])[C@:4]1([C:5]([C:6]#[C:7][H:17])([H:15])[H:16])[H:14])([H:8])([H:9])[H:10]>>[C:1](=[C:2]([C:3]([C:4]([C:5]([C:6]#[C:7][H:17])([H:10])[H:15])([H:14])[H:16])([H:12])[H:13])[H:11])([H:8])[H:9]"
C       -1.74088751       1.05500251       0.32008347
C       -1.56449134      -0.32926445       0.05364159
C       -0.98767361      -0.86383887      -1.21813800
C        0.23195926      -0.91905919      -0.33791048
C        1.10967439       0.30303065      -0.24496026
C        2.10160500       0.38919873       0.80863494
C        2.93390582       0.35864323       1.66922743
H       -2.31862719       1.60072839      -0.42456606
H       -2.08083387       1.30722553       1.32269238
H       -0.10367659       1.33584210       0.16100648
H       -1.99321726      -1.03900776       0.75271559
H       -1.36349654      -1.83616329      -1.52354959
H       -0.95352573      -0.13097966      -2.02154972
H        0.38189589      -1.73979631       0.35394646
H        1.16849459       0.99992560      -1.07542959
H        1.50217259      -0.87102604      -1.02704275
H        3.67672208       0.37953881       2.43119810
