11
Frame=0 idx=000061 GeodesicLength=0.0 rxn_smarts="[C:1]([O:2][C:3]([C:4](=[O:5])[H:11])([H:9])[H:10])([H:6])([H:7])[H:8]>>[C+:1]([C@:4]([C:3]([O:2][H:7])([H:9])[H:10])([O-:5])[H:11])([H:6])[H:8]"
C       -1.36890523       1.09220118       0.34600810
O       -0.93108484      -0.40196073      -0.50737632
C        0.32276723      -0.90118100      -0.06350183
C        1.46855348       0.07127582      -0.26118576
O        2.49687068      -0.02122944       0.34217664
H       -0.84402281       0.92343601       1.29418650
H       -0.82624307       0.50329361      -0.96971926
H       -2.42439607       0.85753056       0.51052196
H        0.54550433      -1.80023529      -0.64685880
H        0.24824996      -1.17517575       0.99030478
H        1.31270638       0.85204498      -1.03455605
11
Frame=1 idx=000061 GeodesicLength=0.09965142019577235 rxn_smarts="[C:1]([O:2][C:3]([C:4](=[O:5])[H:11])([H:9])[H:10])([H:6])([H:7])[H:8]>>[C+:1]([C@:4]([C:3]([O:2][H:7])([H:9])[H:10])([O-:5])[H:11])([H:6])[H:8]"
C       -1.32177359       1.07805830       0.35001662
O       -0.93965438      -0.41194776      -0.48960162
C        0.32238110      -0.91094115      -0.06112184
C        1.44373931       0.09543060      -0.24322663
O        2.47639896       0.01892636       0.35961238
H       -0.84969902       0.88907076       1.32150099
H       -0.84563170       0.49387001      -0.98480078
H       -2.39467275       0.91326208       0.48282206
H        0.55385544      -1.79596135      -0.66153317
H        0.25448697      -1.20118735       0.98886251
H        1.30056965       0.83141950      -1.06253051
11
Frame=2 idx=000061 GeodesicLength=0.19950832103924593 rxn_smarts="[C:1]([O:2][C:3]([C:4](=[O:5])[H:11])([H:9])[H:10])([H:6])([H:7])[H:8]>>[C+:1]([C@:4]([C:3]([O:2][H:7])([H:9])[H:10])([O-:5])[H:11])([H:6])[H:8]"
C       -1.27789560       1.06214321       0.35326387
O       -0.94761514      -0.42134621      -0.47310810
C        0.32214563      -0.92033030      -0.05932095
C        1.41949031       0.11754277      -0.22773124
O        2.45522290       0.05739396       0.37650080
H       -0.85541377       0.85862855       1.34415804
H       -0.86499331       0.48632821      -0.99802365
H       -2.36197703       0.96483232       0.45784430
H        0.56082970      -1.79228797      -0.67511077
H        0.26101316      -1.22486329       0.98710909
H        1.28919316       0.81195876      -1.08558140
11
Frame=3 idx=000061 GeodesicLength=0.29955964126920925 rxn_smarts="[C:1]([O:2][C:3]([C:4](=[O:5])[H:11])([H:9])[H:10])([H:6])([H:7])[H:8]>>[C+:1]([C@:4]([C:3]([O:2][H:7])([H:9])[H:10])([O-:5])[H:11])([H:6])[H:8]"
C       -1.23708911       1.04481328       0.35573448
O       -0.95503715      -0.43024685      -0.45777379
C        0.32202057      -0.92942936      -0.05800046
C        1.39588772       0.13767573      -0.21435985
O        2.43348491       0.09432451       0.39300650
H       -0.86073944       0.83181004       1.36285036
H       -0.88417811       0.48063668      -1.00966842
H       -2.32703967       1.01235630       0.43531148
H        0.56654928      -1.78929939      -0.68766814
H        0.26768656      -1.24651518       0.98515524
H        1.27845442       0.79387424      -1.10458740
11
Frame=4 idx=000061 GeodesicLength=0.3997710339674029 rxn_smarts="[C:1]([O:2][C:3]([C:4](=[O:5])[H:11])([H:9])[H:10])([H:6])([H:7])[H:8]>>[C+:1]([C@:4]([C:3]([O:2][H:7])([H:9])[H:10])([O-:5])[H:11])([H:6])[H:8]"
C       -1.19915666       1.02636315       0.35746860
O       -0.96196905      -0.43872455      -0.44345704
C        0.32199222      -0.93826237      -0.05705357
C        1.37293489       0.15603234      -0.20271583
O        2.41136428       0.12977197       0.40911624
H       -0.86551332       0.80822897       1.37822781
H       -0.90308801       0.47673861      -1.01994163
H       -2.29044607       1.05606333       0.41487228
H        0.57118077      -1.78696686      -0.69928939
H        0.27442322      -1.26639581       0.98309192
H        1.26827773       0.77715122      -1.12031939
11
Frame=5 idx=000061 GeodesicLength=0.500113976551376 rxn_smarts="[C:1]([O:2][C:3]([C:4](=[O:5])[H:11])([H:9])[H:10])([H:6])([H:7])[H:8]>>[C+:1]([C@:4]([C:3]([O:2][H:7])([H:9])[H:10])([O-:5])[H:11])([H:6])[H:8]"
C       -1.16390193       1.00703588       0.35852304
O       -0.96845739      -0.44685031      -0.43002215
C        0.32206194      -0.94684155      -0.05638552
C        1.35061466       0.17283710      -0.19245615
O        2.38903785       0.16377252       0.42476738
H       -0.86970687       0.78749061       1.39084173
H       -0.92166561       0.47456916      -1.02900878
H       -2.25265892       1.09624370       0.39619353
H        0.57489241      -1.78523529      -0.71005078
H        0.28118183      -1.28472425       0.98099292
H        1.25860202       0.76170243      -1.13339521
11
Frame=6 idx=000061 GeodesicLength=0.6005844531646304 rxn_smarts="[C:1]([O:2][C:3]([C:4](=[O:5])[H:11])([H:9])[H:10])([H:6])([H:7])[H:8]>>[C+:1]([C@:4]([C:3]([O:2][H:7])([H:9])[H:10])([O-:5])[H:11])([H:6])[H:8]"
C       -1.13113524       0.98702522       0.35894494
O       -0.97455420      -0.45468832      -0.41735755
C        0.32223305      -0.95517807      -0.05591864
C        1.32890889       0.18829117      -0.18330973
O        2.36665919       0.19637340       0.43991815
H       -0.87332612       0.76924007       1.40113693
H       -0.93988399       0.47406582      -1.03702221
H       -2.21403939       1.13318115       0.37900487
H        0.57782655      -1.78404506      -0.72002079
H        0.28794178      -1.30169189       0.97892365
H        1.24936948       0.74742650      -1.14429962
11
Frame=7 idx=000061 GeodesicLength=0.701160462216359 rxn_smarts="[C:1]([O:2][C:3]([C:4](=[O:5])[H:11])([H:9])[H:10])([H:6])([H:7])[H:8]>>[C+:1]([C@:4]([C:3]([O:2][H:7])([H:9])[H:10])([O-:5])[H:11])([H:6])[H:8]"
C       -1.10068065       0.96649210       0.35877954
O       -0.98030171      -0.46229722      -0.40537090
C        0.32250946      -0.96328458      -0.05559608
C        1.30778823       0.20256590      -0.17506530
O        2.34433149       0.22763627       0.45454666
H       -0.87638947       0.75318319       1.40945687
H       -0.95772319       0.47517063      -1.04410348
H       -2.17486224       1.16712699       0.36309948
H        0.58010968      -1.78334737      -0.72926139
H        0.29468807      -1.31745730       0.97692341
H        1.24053032       0.73421138      -1.15340880
11
Frame=8 idx=000061 GeodesicLength=0.8018177582525563 rxn_smarts="[C:1]([O:2][C:3]([C:4](=[O:5])[H:11])([H:9])[H:10])([H:6])([H:7])[H:8]>>[C+:1]([C@:4]([C:3]([O:2][H:7])([H:9])[H:10])([O-:5])[H:11])([H:6])[H:8]"
C       -1.07237076       0.94556333       0.35806954
O       -0.98573733      -0.46973341      -0.39398515
C        0.32289417      -0.97117520      -0.05537692
C        1.28721874       0.21580581      -0.16756151
O        2.32211793       0.25764312       0.46865391
H       -0.87892465       0.73906544       1.41607656
H       -0.97516897       0.47782564      -1.05035276
H       -2.13532733       1.19831751       0.34831469
H        0.58184924      -1.78310204      -0.73783253
H        0.30141117      -1.33215266       0.97501749
H        1.23203777       0.72194246      -1.16102332
11
Frame=9 idx=000061 GeodesicLength=0.9025513137646204 rxn_smarts="[C:1]([O:2][C:3]([C:4](=[O:5])[H:11])([H:9])[H:10])([H:6])([H:7])[H:8]>>[C+:1]([C@:4]([C:3]([O:2][H:7])([H:9])[H:10])([O-:5])[H:11])([H:6])[H:8]"
C       -1.04605074       0.92435156       0.35684511
O       -0.99089092      -0.47703758      -0.38313850
C        0.32338422      -0.97886116      -0.05522432
C        1.26715589       0.22813041      -0.16067111
O        2.30006144       0.28646232       0.48223880
H       -0.88094354       0.72666970       1.42119653
H       -0.99220112       0.48200056      -1.05585100
H       -2.09560052       1.22691993       0.33452612
H        0.58312927      -1.78327032      -0.74576752
H        0.30810211      -1.34588676       0.97322562
H        1.22385391       0.71052135      -1.16737973
11
Frame=10 idx=000061 GeodesicLength=1.0033421664778042 rxn_smarts="[C:1]([O:2][C:3]([C:4](=[O:5])[H:11])([H:9])[H:10])([H:6])([H:7])[H:8]>>[C+:1]([C@:4]([C:3]([O:2][H:7])([H:9])[H:10])([O-:5])[H:11])([H:6])[H:8]"
C       -1.02157606       0.90292926       0.35513530
O       -0.99579306      -0.48426022      -0.37278016
C        0.32398143      -0.98635576      -0.05511632
C        1.24756761       0.23964155      -0.15429762
O        2.27818284       0.31418444       0.49532636
H       -0.88247378       0.71580633       1.42499653
H       -1.00880993       0.48764334      -1.06067204
H       -2.05579545       1.25313569       0.32163602
H        0.58402532      -1.78382454      -0.75311835
H        0.31475856      -1.35874823       0.97156241
H        1.21593251       0.69984815      -1.17267214
11
Frame=11 idx=000061 GeodesicLength=1.1041863608990703 rxn_smarts="[C:1]([O:2][C:3]([C:4](=[O:5])[H:11])([H:9])[H:10])([H:6])([H:7])[H:8]>>[C+:1]([C@:4]([C:3]([O:2][H:7])([H:9])[H:10])([O-:5])[H:11])([H:6])[H:8]"
C       -0.99881576       0.88136330       0.35296315
O       -1.00046919      -0.49144142      -0.36286426
C        0.32468449      -0.99367216      -0.05503188
C        1.22841332       0.25042527      -0.14836562
O        2.25649032       0.34088916       0.50793323
H       -0.88353671       0.70630625       1.42760706
H       -1.02498003       0.49472694      -1.06486912
H       -2.01600539       1.27712153       0.30956461
H        0.58460039      -1.78474096      -0.75991534
H        0.32138032      -1.37081454       0.97003798
H        1.20823823       0.68983663      -1.17705981
11
Frame=12 idx=000061 GeodesicLength=1.2050800551398078 rxn_smarts="[C:1]([O:2][C:3]([C:4](=[O:5])[H:11])([H:9])[H:10])([H:6])([H:7])[H:8]>>[C+:1]([C@:4]([C:3]([O:2][H:7])([H:9])[H:10])([O-:5])[H:11])([H:6])[H:8]"
C       -0.97765124       0.85970784       0.35034524
O       -1.00494315      -0.49861860      -0.35335209
C        0.32549213      -1.00082401      -0.05495396
C        1.20965648       0.26055439      -0.14281701
O        2.23498419       0.36665581       0.52007890
H       -0.88415304       0.69802056       1.42913195
H       -1.04069373       0.50323142      -1.06848747
H       -1.97630811       1.29901897       0.29825423
H        0.58490863      -1.78600239      -0.76618490
H        0.32796759      -1.38215125       0.96866183
H        1.20074026       0.68040726      -1.18067672
11
Frame=13 idx=000061 GeodesicLength=1.3060187629182696 rxn_smarts="[C:1]([O:2][C:3]([C:4](=[O:5])[H:11])([H:9])[H:10])([H:6])([H:7])[H:8]>>[C+:1]([C@:4]([C:3]([O:2][H:7])([H:9])[H:10])([O-:5])[H:11])([H:6])[H:8]"
C       -0.95797516       0.83800852       0.34729390
O       -1.00923696      -0.50582559      -0.34420958
C        0.32640252      -1.00782396      -0.05486837
C        1.19126214       0.27009158      -0.13760671
O        2.21365987       0.39155871       0.53178102
H       -0.88434200       0.69081725       1.42965301
H       -1.05592958       0.51314551      -1.07156260
H       -1.93677124       1.31894978       0.28766146
H        0.58499657      -1.78759601      -0.77194824
H        0.33452047      -1.39281247       0.96744251
H        1.19341338       0.67148669      -1.18363640
11
Frame=14 idx=000061 GeodesicLength=1.4070012520346984 rxn_smarts="[C:1]([O:2][C:3]([C:4](=[O:5])[H:11])([H:9])[H:10])([H:6])([H:7])[H:8]>>[C+:1]([C@:4]([C:3]([O:2][H:7])([H:9])[H:10])([O-:5])[H:11])([H:6])[H:8]"
C       -0.93968941       0.81630372       0.34381549
O       -1.01337044      -0.51309327      -0.33540634
C        0.32741373      -1.01468467      -0.05476265
C        1.17319719       0.27908983      -0.13270075
O        2.19250610       0.41566997       0.54305708
H       -0.88411854       0.68457742       1.42923229
H       -1.07066187       0.52446623      -1.07412274
H       -1.89745541       1.33702117       0.27775686
H        0.58490402      -1.78951327      -0.77722168
H        0.34103959      -1.40284442       0.96638827
H        1.18623504       0.66300728      -1.18603582
11
Frame=15 idx=000061 GeodesicLength=1.5080263375260616 rxn_smarts="[C:1]([O:2][C:3]([C:4](=[O:5])[H:11])([H:9])[H:10])([H:6])([H:7])[H:8]>>[C+:1]([C@:4]([C:3]([O:2][H:7])([H:9])[H:10])([O-:5])[H:11])([H:6])[H:8]"
C       -0.92270459       0.79462721       0.33991167
O       -1.01736128      -0.52044913      -0.32691477
C        0.32852361      -1.02141727      -0.05462551
C        1.15543041       0.28759505      -0.12807371
O        2.17150940       0.43905597       0.55392073
H       -0.88349602       0.67919197       1.42791674
H       -1.08485944       0.53719879      -1.07618907
H       -1.85841943       1.35332447       0.26852205
H        0.58466535      -1.79174865      -0.78201646
H        0.34752486      -1.41228416       0.96550771
H        1.17918715       0.65490574      -1.18795939
11
Frame=16 idx=000061 GeodesicLength=1.6090943475228028 rxn_smarts="[C:1]([O:2][C:3]([C:4](=[O:5])[H:11])([H:9])[H:10])([H:6])([H:7])[H:8]>>[C+:1]([C@:4]([C:3]([O:2][H:7])([H:9])[H:10])([O-:5])[H:11])([H:6])[H:8]"
C       -0.90693838       0.77300930       0.33557903
O       -1.02122513      -0.52791766      -0.31870935
C        0.32972986      -1.02803202      -0.05444642
C        1.13793273       0.29564643      -0.12370814
O        2.15065302       0.46178013       0.56438305
H       -0.88248541       0.67455819       1.42574030
H       -1.09848547       0.55135657      -1.07777665
H       -1.81972215       1.36793859       0.25994911
H        0.58430989      -1.79430000      -0.78633901
H        0.35397577      -1.42116152       0.96481002
H        1.17225527       0.64712200      -1.18948195
