16
Frame=0 idx=005038 GeodesicLength=0.0 rxn_smarts="[C:1]1([H:7])([H:8])[C:2]([H:9])([H:10])[C:3]12[C:4]([H:11])([H:12])[C:5]([H:13])([H:14])[C:6]2([H:15])[H:16]>>[C:1](=[C:2]([H:9])[H:10])([C:3]1=[C:4]([H:11])[C:5]([H:13])([H:14])[C:6]1([H:15])[H:16])[H:8].[H:7][H:12]"
C       -1.56331035       0.34937484       0.54522682
C       -1.73805844      -0.09065123      -0.79680253
C       -0.24904134       0.14510517      -0.07153571
C        0.61734552      -0.95674574       0.04740069
C        1.85983490      -0.10063586      -0.01579613
C        0.91659784       1.11649970      -0.23843412
H       -1.10612900      -0.92820217       1.63728045
H       -1.87893614       1.36854124       0.76190433
H       -2.16557733       0.54218603      -1.57359125
H       -1.73555605      -1.14787538      -1.03147755
H        0.49273756      -1.98496079      -0.26756980
H       -0.39947975      -1.39363298       1.64947347
H        2.55129055      -0.30822440      -0.83532299
H        2.42570049      -0.06720413       0.91672592
H        1.00356603       1.54670683      -1.23584740
H        0.96901550       1.90971893       0.50836581
16
Frame=1 idx=005038 GeodesicLength=0.07203850811957538 rxn_smarts="[C:1]1([H:7])([H:8])[C:2]([H:9])([H:10])[C:3]12[C:4]([H:11])([H:12])[C:5]([H:13])([H:14])[C:6]2([H:15])[H:16]>>[C:1](=[C:2]([H:9])[H:10])([C:3]1=[C:4]([H:11])[C:5]([H:13])([H:14])[C:6]1([H:15])[H:16])[H:8].[H:7][H:12]"
C       -1.55670028       0.34887049       0.54434871
C       -1.75032661      -0.08973279      -0.79476878
C       -0.24407372       0.14636324      -0.08020752
C        0.62190932      -0.95677725       0.05523970
C        1.86401465      -0.09808949      -0.00482002
C        0.92203588       1.11600608      -0.24715432
H       -1.11775111      -0.93327981       1.63148543
H       -1.86723075       1.36744391       0.76968014
H       -2.19529353       0.54533270      -1.55926697
H       -1.75255796      -1.14635030      -1.03237144
H        0.50277725      -1.97861986      -0.28273163
H       -0.39663582      -1.40801523       1.63937205
H        2.56470218      -0.31174219      -0.81477060
H        2.42001759      -0.05480215       0.93322629
H        1.01429311       1.53607655      -1.24854743
H        0.97081978       1.91731610       0.49128640
16
Frame=2 idx=005038 GeodesicLength=0.14402431776765245 rxn_smarts="[C:1]1([H:7])([H:8])[C:2]([H:9])([H:10])[C:3]12[C:4]([H:11])([H:12])[C:5]([H:13])([H:14])[C:6]2([H:15])[H:16]>>[C:1](=[C:2]([H:9])[H:10])([C:3]1=[C:4]([H:11])[C:5]([H:13])([H:14])[C:6]1([H:15])[H:16])[H:8].[H:7][H:12]"
C       -1.55004178       0.34823907       0.54320519
C       -1.76266317      -0.08870668      -0.79278858
C       -0.23906812       0.14742298      -0.08909067
C        0.62644580      -0.95686342       0.06294819
C        1.86809472      -0.09548000       0.00613531
C        0.92752091       1.11536044      -0.25588387
H       -1.12966214      -0.93817508       1.62557040
H       -1.85533804       1.36614138       0.77728778
H       -2.22500420       0.54860514      -1.54441989
H       -1.76989229      -1.14467738      -1.03336504
H        0.51312154      -1.97202353      -0.29741207
H       -0.39340569      -1.42244748       1.62924686
H        2.57798561      -0.31502170      -0.79404638
H        2.41408417      -0.04230672       0.94955235
H        1.02519120       1.52531139      -1.26109166
H        0.97263145       1.92462160       0.47415210
16
Frame=3 idx=005038 GeodesicLength=0.21598322688920296 rxn_smarts="[C:1]1([H:7])([H:8])[C:2]([H:9])([H:10])[C:3]12[C:4]([H:11])([H:12])[C:5]([H:13])([H:14])[C:6]2([H:15])[H:16]>>[C:1](=[C:2]([H:9])[H:10])([C:3]1=[C:4]([H:11])[C:5]([H:13])([H:14])[C:6]1([H:15])[H:16])[H:8].[H:7][H:12]"
C       -1.54337621       0.34747348       0.54174749
C       -1.77503439      -0.08759545      -0.79091132
C       -0.23402687       0.14828560      -0.09815530
C        0.63094632      -0.95699961       0.07056711
C        1.87207115      -0.09282654       0.01697253
C        0.93304418       1.11458088      -0.26452549
H       -1.14192634      -0.94283281       1.61955448
H       -1.84333106       1.36462167       0.78463999
H       -2.25458018       0.55196036      -1.52915326
H       -1.78750890      -1.14288007      -1.03448699
H        0.52373088      -1.96522994      -0.31146055
H       -0.38972674      -1.43681372       1.61921559
H        2.59101753      -0.31806029      -0.77335964
H        2.40802300      -0.02980121       0.96553596
H        1.03621047       1.51455040      -1.27333917
H        0.97446718       1.93156725       0.45715856
16
Frame=4 idx=005038 GeodesicLength=0.28790742771777955 rxn_smarts="[C:1]1([H:7])([H:8])[C:2]([H:9])([H:10])[C:3]12[C:4]([H:11])([H:12])[C:5]([H:13])([H:14])[C:6]2([H:15])[H:16]>>[C:1](=[C:2]([H:9])[H:10])([C:3]1=[C:4]([H:11])[C:5]([H:13])([H:14])[C:6]1([H:15])[H:16])[H:8].[H:7][H:12]"
C       -1.53671205       0.34657713       0.53996794
C       -1.78743803      -0.08639778      -0.78914145
C       -0.22894834       0.14895375      -0.10739493
C        0.63541161      -0.95718248       0.07808784
C        1.87594741      -0.09012851       0.02768630
C        0.93860419       1.11367675      -0.27307410
H       -1.15454245      -0.94720358       1.61346199
H       -1.83122498       1.36288464       0.79172453
H       -2.28401070       0.55539047      -1.51346976
H       -1.80540974      -1.14095582      -1.03572797
H        0.53459855      -1.95827965      -0.32486737
H       -0.38559212      -1.45116300       1.60926333
H        2.60380216      -0.32085370      -0.75272378
H        2.40184160      -0.01729483       0.98117444
H        1.04734739       1.50381315      -1.28528634
H        0.97632552       1.93816349       0.44031934
16
Frame=5 idx=005038 GeodesicLength=0.3597922591866036 rxn_smarts="[C:1]1([H:7])([H:8])[C:2]([H:9])([H:10])[C:3]12[C:4]([H:11])([H:12])[C:5]([H:13])([H:14])[C:6]2([H:15])[H:16]>>[C:1](=[C:2]([H:9])[H:10])([C:3]1=[C:4]([H:11])[C:5]([H:13])([H:14])[C:6]1([H:15])[H:16])[H:8].[H:7][H:12]"
C       -1.53005690       0.34554955       0.53785970
C       -1.79986944      -0.08511091      -0.78748544
C       -0.22382979       0.14942965      -0.11679899
C        0.63984177      -0.95740827       0.08550654
C        1.87972407      -0.08738666       0.03826941
C        0.94419788       1.11265549      -0.28152335
H       -1.16753254      -0.95126535       1.60730173
H       -1.81903244       1.36092557       0.79853308
H       -2.31327580       0.55889152      -1.49737516
H       -1.82359271      -1.13889970      -1.03708658
H        0.54571195      -1.95120690      -0.33762443
H       -0.38096894      -1.46550949       1.59939883
H        2.61633491      -0.32340233      -0.73215710
H        2.39554821      -0.00479721       0.99646121
H        1.05859410       1.49311693      -1.29692867
H        0.97820567       1.94441810       0.42364919
16
Frame=6 idx=005038 GeodesicLength=0.4316375287163007 rxn_smarts="[C:1]1([H:7])([H:8])[C:2]([H:9])([H:10])[C:3]12[C:4]([H:11])([H:12])[C:5]([H:13])([H:14])[C:6]2([H:15])[H:16]>>[C:1](=[C:2]([H:9])[H:10])([C:3]1=[C:4]([H:11])[C:5]([H:13])([H:14])[C:6]1([H:15])[H:16])[H:8].[H:7][H:12]"
C       -1.52341950       0.34439180       0.53541593
C       -1.81232454      -0.08373290      -0.78594961
C       -0.21866877       0.14971566      -0.12635592
C        0.64423734      -0.95767375       0.09282131
C        1.88340301      -0.08460220       0.04871468
C        0.94982223       1.11152499      -0.28986603
H       -1.18092028      -0.95498899       1.60108613
H       -1.80676823       1.35874168       0.80505595
H       -2.34235521       0.56245707      -1.48087786
H       -1.84205590      -1.13670794      -1.03855907
H        0.55705939      -1.94404458      -0.34972886
H       -0.37582514      -1.47987459       1.58962982
H        2.62861242      -0.32570698      -0.71167913
H        2.38915430       0.00768134       1.01138943
H        1.06994208       1.48248006      -1.30826106
H        0.98010681       1.95033932       0.40716430
16
Frame=7 idx=005038 GeodesicLength=0.5034473203070724 rxn_smarts="[C:1]1([H:7])([H:8])[C:2]([H:9])([H:10])[C:3]12[C:4]([H:11])([H:12])[C:5]([H:13])([H:14])[C:6]2([H:15])[H:16]>>[C:1](=[C:2]([H:9])[H:10])([C:3]1=[C:4]([H:11])[C:5]([H:13])([H:14])[C:6]1([H:15])[H:16])[H:8].[H:7][H:12]"
C       -1.51680804       0.34310626       0.53263102
C       -1.82479997      -0.08226156      -0.78453883
C       -0.21346276       0.14981404      -0.13605394
C        0.64859921      -0.95797612       0.10003012
C        1.88698631      -0.08177610       0.05901789
C        0.95547433       1.11029248      -0.29809728
H       -1.19473072      -0.95834028       1.59483049
H       -1.79444627       1.35633162       0.81128475
H       -2.37123123       0.56607992      -1.46398458
H       -1.86079809      -1.13437635      -1.04013928
H        0.56863079      -1.93682204      -0.36118692
H       -0.37012783      -1.49428954       1.57995959
H        2.64063484      -0.32776852      -0.69130369
H        2.38266840       0.02013252       1.02595716
H        1.08138367       1.47191669      -1.31928218
H        0.98202736       1.95593701       0.39087570
16
Frame=8 idx=005038 GeodesicLength=0.5752234399517575 rxn_smarts="[C:1]1([H:7])([H:8])[C:2]([H:9])([H:10])[C:3]12[C:4]([H:11])([H:12])[C:5]([H:13])([H:14])[C:6]2([H:15])[H:16]>>[C:1](=[C:2]([H:9])[H:10])([C:3]1=[C:4]([H:11])[C:5]([H:13])([H:14])[C:6]1([H:15])[H:16])[H:8].[H:7][H:12]"
C       -1.51023343       0.34169491       0.52949854
C       -1.83729143      -0.08069660      -0.78326120
C       -0.20820939       0.14972739      -0.14587920
C        0.65292831      -0.95831411       0.10713521
C        1.89047712      -0.07891174       0.06916995
C        0.96115071       1.10896694      -0.30620769
H       -1.20899753      -0.96128487       1.58855117
H       -1.78208569       1.35369496       0.81720920
H       -2.39988003       0.56975248      -1.44671101
H       -1.87981492      -1.13190424      -1.04182404
H        0.58041454      -1.92956854      -0.37200109
H       -0.36383783      -1.50877798       1.57040336
H        2.65239771      -0.32959043      -0.67105728
H        2.37610759       0.03254284       1.04015515
H        1.09290834       1.46144914      -1.32998569
H        0.98396592       1.96121984       0.37480463
16
Frame=9 idx=005038 GeodesicLength=0.6470303165782311 rxn_smarts="[C:1]1([H:7])([H:8])[C:2]([H:9])([H:10])[C:3]12[C:4]([H:11])([H:12])[C:5]([H:13])([H:14])[C:6]2([H:15])[H:16]>>[C:1](=[C:2]([H:9])[H:10])([C:3]1=[C:4]([H:11])[C:5]([H:13])([H:14])[C:6]1([H:15])[H:16])[H:8].[H:7][H:12]"
C       -1.50370616       0.34016302       0.52600839
C       -1.84979613      -0.07903787      -0.78212054
C       -0.20290660       0.14945661      -0.15581321
C        0.65722321      -0.95868095       0.11413884
C        1.89387714      -0.07601028       0.07916211
C        0.96684734       1.10755296      -0.31418278
H       -1.22377661      -0.96378040       1.58226416
H       -1.76970193       1.35083117       0.82280936
H       -2.42826888       0.57345434      -1.42907772
H       -1.89910667      -1.12928593      -1.04360023
H        0.59239533      -1.92230535      -0.38218442
H       -0.35689041      -1.52336562       1.56096940
H        2.66389055      -0.33117452      -0.65096393
H        2.36949325       0.04490183       1.05396988
H        1.10450059       1.45109407      -1.34035509
H        0.98592598       1.96618692       0.35897576
16
Frame=10 idx=005038 GeodesicLength=0.7186879598826202 rxn_smarts="[C:1]1([H:7])([H:8])[C:2]([H:9])([H:10])[C:3]12[C:4]([H:11])([H:12])[C:5]([H:13])([H:14])[C:6]2([H:15])[H:16]>>[C:1](=[C:2]([H:9])[H:10])([C:3]1=[C:4]([H:11])[C:5]([H:13])([H:14])[C:6]1([H:15])[H:16])[H:8].[H:7][H:12]"
C       -1.49719174       0.33850899       0.52219898
C       -1.86233992      -0.07724986      -0.78107814
C       -0.19754642       0.14900104      -0.16588047
C        0.66149899      -0.95908626       0.12098950
C        1.89718160      -0.07304724       0.08909247
C        0.97257205       1.10603723      -0.32212456
H       -1.23901388      -0.96583767       1.57597335
H       -1.75723070       1.34773567       0.82816739
H       -2.45650406       0.57723870      -1.41095047
H       -1.91872282      -1.12648270      -1.04544141
H        0.60461626      -1.91502129      -0.39187726
H       -0.34932603      -1.53821733       1.55152432
H        2.67522977      -0.33250564      -0.63080639
H        2.36267668       0.05729196       1.06756832
H        1.11621594       1.44071495      -1.35053721
H        0.98788428       1.97091945       0.34318160
16
Frame=11 idx=005038 GeodesicLength=0.7904444429458739 rxn_smarts="[C:1]1([H:7])([H:8])[C:2]([H:9])([H:10])[C:3]12[C:4]([H:11])([H:12])[C:5]([H:13])([H:14])[C:6]2([H:15])[H:16]>>[C:1](=[C:2]([H:9])[H:10])([C:3]1=[C:4]([H:11])[C:5]([H:13])([H:14])[C:6]1([H:15])[H:16])[H:8].[H:7][H:12]"
C       -1.49074607       0.33674273       0.51802403
C       -1.87489423      -0.07536927      -0.78018315
C       -0.19213343       0.14836535      -0.17602692
C        0.66574273      -0.95952386       0.12773856
C        1.90039947      -0.07005379       0.09885341
C        0.97831024       1.10444754      -0.32991819
H       -1.25486061      -0.96734284       1.56972843
H       -1.74477417       1.34441839       0.83318489
H       -2.48442513       0.58103703      -1.39249965
H       -1.93861260      -1.12353617      -1.04735541
H        0.61701853      -1.90776376      -0.40098106
H       -0.34099050      -1.55325945       1.54221678
H        2.68629892      -0.33360298      -0.61083480
H        2.35582665       0.06960518       1.08077910
H        1.12798132       1.43047843      -1.36038171
H        0.98985888       1.97535749       0.32765568
16
Frame=12 idx=005038 GeodesicLength=0.8620686396481049 rxn_smarts="[C:1]1([H:7])([H:8])[C:2]([H:9])([H:10])[C:3]12[C:4]([H:11])([H:12])[C:5]([H:13])([H:14])[C:6]2([H:15])[H:16]>>[C:1](=[C:2]([H:9])[H:10])([C:3]1=[C:4]([H:11])[C:5]([H:13])([H:14])[C:6]1([H:15])[H:16])[H:8].[H:7][H:12]"
C       -1.48433650       0.33486091       0.51350756
C       -1.88747865      -0.07335965      -0.77940453
C       -0.18665853       0.14754745      -0.18627634
C        0.66996856      -0.95999634       0.13434634
C        1.90352638      -0.06700539       0.10852894
C        0.98407054       1.10276878      -0.33764875
H       -1.27128811      -0.96832608       1.56351047
H       -1.73226816       1.34086873       0.83792312
H       -2.51213732       0.58488575      -1.37359270
H       -1.95881475      -1.12039946      -1.04932113
H        0.62963847      -1.90052467      -0.40961244
H       -0.33191016      -1.56861004       1.53294372
H        2.69718937      -0.33445568      -0.59086058
H        2.34881831       0.08192388       1.09373850
H        1.13984413       1.42026377      -1.37000579
H        0.99183642       1.97955805       0.31222362
16
Frame=13 idx=005038 GeodesicLength=0.9337442729943031 rxn_smarts="[C:1]1([H:7])([H:8])[C:2]([H:9])([H:10])[C:3]12[C:4]([H:11])([H:12])[C:5]([H:13])([H:14])[C:6]2([H:15])[H:16]>>[C:1](=[C:2]([H:9])[H:10])([C:3]1=[C:4]([H:11])[C:5]([H:13])([H:14])[C:6]1([H:15])[H:16])[H:8].[H:7][H:12]"
C       -1.47800987       0.33287181       0.50861388
C       -1.90007069      -0.07125959      -0.77878330
C       -0.18112641       0.14655209      -0.19657612
C        0.67416542      -0.96049989       0.14085774
C        1.90657127      -0.06393500       0.11803068
C        0.98983628       1.10102284      -0.34521701
H       -1.28841907      -0.96864092       1.55737860
H       -1.71980395       1.33709687       0.84229475
H       -2.53950388       0.58872706      -1.35438772
H       -1.97928170      -1.11711407      -1.05134741
H        0.64241977      -1.89332658      -0.41768954
H       -0.32194151      -1.58424223       1.52381384
H        2.70780684      -0.33507811      -0.57110034
H        2.34180044       0.09414216       1.10630849
H        1.15173100       1.41021263      -1.37928399
H        0.99382605       1.98347091       0.29708744
16
Frame=14 idx=005038 GeodesicLength=1.005360111796274 rxn_smarts="[C:1]1([H:7])([H:8])[C:2]([H:9])([H:10])[C:3]12[C:4]([H:11])([H:12])[C:5]([H:13])([H:14])[C:6]2([H:15])[H:16]>>[C:1](=[C:2]([H:9])[H:10])([C:3]1=[C:4]([H:11])[C:5]([H:13])([H:14])[C:6]1([H:15])[H:16])[H:8].[H:7][H:12]"
C       -1.47174345       0.33077640       0.50336527
C       -1.91269114      -0.06903465      -0.77829219
C       -0.17552915       0.14537689      -0.20694590
C        0.67834518      -0.96104235       0.14723134
C        1.90953003      -0.06081964       0.12743302
C        0.99561818       1.09919954      -0.35269968
H       -1.30627642      -0.96829609       1.55133589
H       -1.70733056       1.33309959       0.84635736
H       -2.56660801       0.59258875      -1.33477099
H       -2.00005482      -1.11364220      -1.05341028
H        0.65540099      -1.88616736      -0.42533621
H       -0.31106480      -1.60028707       1.51473592
H        2.71823747      -0.33546036      -0.55138196
H        2.33465454       0.10633516       1.11861256
H        1.16369306       1.40021872      -1.38832340
H        0.99581889       1.98715467       0.28208925
16
Frame=15 idx=005038 GeodesicLength=1.0769630938557382 rxn_smarts="[C:1]1([H:7])([H:8])[C:2]([H:9])([H:10])[C:3]12[C:4]([H:11])([H:12])[C:5]([H:13])([H:14])[C:6]2([H:15])[H:16]>>[C:1](=[C:2]([H:9])[H:10])([C:3]1=[C:4]([H:11])[C:5]([H:13])([H:14])[C:6]1([H:15])[H:16])[H:8].[H:7][H:12]"
C       -1.46554653       0.32858166       0.49775594
C       -1.92534156      -0.06668756      -0.77793576
C       -0.16986646       0.14402138      -0.21737122
C        0.68250877      -0.96162954       0.15346495
C        1.91240203      -0.05766498       0.13673329
C        1.00141079       1.09730249      -0.36008722
H       -1.32493667      -0.96719936       1.54542557
H       -1.69486672       1.32888464       0.85009452
H       -2.59341987       0.59645920      -1.31477178
H       -2.02113529      -1.10998615      -1.05549506
H        0.66857871      -1.87905089      -0.43258549
H       -0.29917807      -1.61682147       1.50570889
H        2.72847763      -0.33560286      -0.53171849
H        2.32738550       0.11848742       1.13065108
H        1.17571675       1.39029457      -1.39711725
H        0.99781099       1.99061142       0.26724801
16
Frame=16 idx=005038 GeodesicLength=1.1485453839496418 rxn_smarts="[C:1]1([H:7])([H:8])[C:2]([H:9])([H:10])[C:3]12[C:4]([H:11])([H:12])[C:5]([H:13])([H:14])[C:6]2([H:15])[H:16]>>[C:1](=[C:2]([H:9])[H:10])([C:3]1=[C:4]([H:11])[C:5]([H:13])([H:14])[C:6]1([H:15])[H:16])[H:8].[H:7][H:12]"
C       -1.45942581       0.32629097       0.49177676
C       -1.93802657      -0.06422468      -0.77770979
C       -0.16413832       0.14248507      -0.22783810
C        0.68665482      -0.96225818       0.15955138
C        1.91518601      -0.05447325       0.14593088
C        1.00721053       1.09532916      -0.36736644
H       -1.34447490      -0.96524803       1.53968456
H       -1.68242399       1.32445000       0.85348039
H       -2.61990596       0.60031429      -1.29441321
H       -2.04253084      -1.10614568      -1.05757225
H        0.68194599      -1.87196572      -0.43947346
H       -0.28618546      -1.63391422       1.49670801
H        2.73852350      -0.33550171      -0.51211251
H        2.31999724       0.13058600       1.14241997
H        1.18779024       1.38044446      -1.40564768
H        0.99980353       1.99383150       0.25258149
