14
Frame=0 idx=010518 GeodesicLength=0.0 rxn_smarts="[C:1](/[C:2](=[N:3]\[H:11])[O:4][C:5]([C:6](=[O:7])[H:14])([H:12])[H:13])([H:8])([H:9])[H:10]>>[C:1]([C@@:2]1([H:14])[N:3]([H:11])[C:6](=[O:7])[C:5]([H:12])([H:13])[O:4]1)([H:8])([H:9])[H:10]"
C       -1.91981875      -0.14948059      -0.44242924
C       -0.52877349      -0.04192935       0.05275783
N        0.06847884       1.08425258       0.55339257
O        0.03367765      -1.14627786       0.55199113
C        1.41536180      -0.79015711       0.66398415
C        1.39004052       0.53269617      -0.12694658
O        2.27604815       1.27551157      -0.48413258
H       -2.59713915      -0.00774247       0.40398154
H       -2.11952651       0.62928023      -1.17639445
H       -2.09131182      -1.12985270      -0.88075395
H       -0.21677374       1.92194054       0.05921935
H        1.67809016      -0.56406811       1.69802392
H        2.02029082      -1.59293933       0.24919061
H        0.59135552      -0.02123352      -1.12188430
14
Frame=1 idx=010518 GeodesicLength=0.07490448104735553 rxn_smarts="[C:1](/[C:2](=[N:3]\[H:11])[O:4][C:5]([C:6](=[O:7])[H:14])([H:12])[H:13])([H:8])([H:9])[H:10]>>[C:1]([C@@:2]1([H:14])[N:3]([H:11])[C:6](=[O:7])[C:5]([H:12])([H:13])[O:4]1)([H:8])([H:9])[H:10]"
C       -1.92833575      -0.15121699      -0.43887300
C       -0.52985399      -0.03862322       0.03499649
N        0.06391375       1.08809218       0.53772094
O        0.03347498      -1.14070120       0.54684470
C        1.41492359      -0.78742737       0.66757749
C        1.40972261       0.53069303      -0.13019563
O        2.31028625       1.26472460      -0.46639926
H       -2.59432079      -0.03198643       0.41969642
H       -2.14697955       0.63705204      -1.15722871
H       -2.09659559      -1.12626324      -0.89057480
H       -0.22508264       1.92815310       0.05050412
H        1.67067999      -0.56059612       1.70306789
H        2.02195528      -1.59163850       0.25801500
H        0.59621186      -0.02026189      -1.13515164
14
Frame=2 idx=010518 GeodesicLength=0.1497365304406831 rxn_smarts="[C:1](/[C:2](=[N:3]\[H:11])[O:4][C:5]([C:6](=[O:7])[H:14])([H:12])[H:13])([H:8])([H:9])[H:10]>>[C:1]([C@@:2]1([H:14])[N:3]([H:11])[C:6](=[O:7])[C:5]([H:12])([H:13])[O:4]1)([H:8])([H:9])[H:10]"
C       -1.93670772      -0.15297817      -0.43519017
C       -0.53093859      -0.03535212       0.01686382
N        0.05937224       1.09191182       0.52164710
O        0.03331197      -1.13501202       0.54140603
C        1.41442857      -0.78454305       0.67103045
C        1.42965080       0.52859030      -0.13344259
O        2.34438688       1.25361414      -0.44805547
H       -2.59070560      -0.05597810       0.43509679
H       -2.17412924       0.64432981      -1.13753694
H       -2.10237233      -1.12246339      -0.90006548
H       -0.23402717       1.93440071       0.04203105
H        1.66306141      -0.55693839       1.70795295
H        2.02351826      -1.59031016       0.26695756
H        0.60115052      -0.01927138      -1.14869510
14
Frame=3 idx=010518 GeodesicLength=0.2245008503436173 rxn_smarts="[C:1](/[C:2](=[N:3]\[H:11])[O:4][C:5]([C:6](=[O:7])[H:14])([H:12])[H:13])([H:8])([H:9])[H:10]>>[C:1]([C@@:2]1([H:14])[N:3]([H:11])[C:6](=[O:7])[C:5]([H:12])([H:13])[O:4]1)([H:8])([H:9])[H:10]"
C       -1.94491564      -0.15476204      -0.43138703
C       -0.53203564      -0.03211573      -0.00161843
N        0.05485922       1.09571473       0.50517221
O        0.03319276      -1.12920798       0.53568561
C        1.41387923      -0.78150147       0.67433744
C        1.44983028       0.52637984      -0.13668821
O        2.37831961       1.24216715      -0.42913095
H       -2.58631512      -0.07968186       0.45015698
H       -2.20091216       0.65111256      -1.11735069
H       -2.10862739      -1.11847276      -0.90920815
H       -0.24364022       1.94068033       0.03386205
H        1.65524711      -0.55308688       1.71266779
H        2.02496882      -1.58895784       0.27601347
H        0.60614915      -0.01826806      -1.16251209
14
Frame=4 idx=010518 GeodesicLength=0.29922534515662635 rxn_smarts="[C:1](/[C:2](=[N:3]\[H:11])[O:4][C:5]([C:6](=[O:7])[H:14])([H:12])[H:13])([H:8])([H:9])[H:10]>>[C:1]([C@@:2]1([H:14])[N:3]([H:11])[C:6](=[O:7])[C:5]([H:12])([H:13])[O:4]1)([H:8])([H:9])[H:10]"
C       -1.95294148      -0.15656842      -0.42747330
C       -0.53315393      -0.02891332      -0.02042555
N        0.05038158       1.09951548       0.48830228
O        0.03312147      -1.12329621       0.52970121
C        1.41327894      -0.77830625       0.67749809
C        1.47026693       0.52405759      -0.13993680
O        2.41205486       1.23038063      -0.40967079
H       -2.58117419      -0.10306591       0.46485907
H       -2.22726678       0.65740725      -1.09671323
H       -2.11534360      -1.11432252      -0.91799373
H       -0.25395411       1.94700592       0.02606894
H        1.64725331      -0.54903630       1.71721529
H        2.02629499      -1.58759939       0.28517934
H        0.61118201      -0.01725855      -1.17661083
14
Frame=5 idx=010518 GeodesicLength=0.3738394678535325 rxn_smarts="[C:1](/[C:2](=[N:3]\[H:11])[O:4][C:5]([C:6](=[O:7])[H:14])([H:12])[H:13])([H:8])([H:9])[H:10]>>[C:1]([C@@:2]1([H:14])[N:3]([H:11])[C:6](=[O:7])[C:5]([H:12])([H:13])[O:4]1)([H:8])([H:9])[H:10]"
C       -1.96076661      -0.15839034      -0.42345393
C       -0.53430332      -0.02574277      -0.03953194
N        0.04594120       1.10328457       0.47102896
O        0.03310121      -1.11724146       0.52344666
C        1.41263039      -0.77493262       0.68049043
C        1.49096809       0.52159877      -0.14317648
O        2.44557227       1.21820483      -0.38968756
H       -2.57531560      -0.12606614       0.47914929
H       -2.25312494       0.66317664      -1.07566614
H       -2.12249970      -1.11000669      -0.92636728
H       -0.26500949       1.95331295       0.01873610
H        1.63908950      -0.54476661       1.72153724
H        2.02748733      -1.58618993       0.29444433
H        0.61622967      -0.01624120      -1.19094966
14
Frame=6 idx=010518 GeodesicLength=0.4484499879682292 rxn_smarts="[C:1](/[C:2](=[N:3]\[H:11])[O:4][C:5]([C:6](=[O:7])[H:14])([H:12])[H:13])([H:8])([H:9])[H:10]>>[C:1]([C@@:2]1([H:14])[N:3]([H:11])[C:6](=[O:7])[C:5]([H:12])([H:13])[O:4]1)([H:8])([H:9])[H:10]"
C       -1.96836913      -0.16023289      -0.41936103
C       -0.53549823      -0.02261098      -0.05887608
N        0.04154508       1.10707362       0.45341726
O        0.03313931      -1.11109774       0.51698735
C        1.41194566      -0.77141607       0.68332701
C        1.51192711       0.51902749      -0.14642018
O        2.47882077       1.20569393      -0.36931332
H       -2.56879293      -0.14856782       0.49302412
H       -2.27837450       0.66842863      -1.05439168
H       -2.13006757      -1.10564434      -0.93430940
H       -0.27685397       1.95967254       0.01202593
H        1.63081213      -0.54030310       1.72568899
H        2.02853075      -1.58480600       0.30377294
H        0.62123551      -0.01521726      -1.20557191
14
Frame=7 idx=010518 GeodesicLength=0.5228630515334535 rxn_smarts="[C:1](/[C:2](=[N:3]\[H:11])[O:4][C:5]([C:6](=[O:7])[H:14])([H:12])[H:13])([H:8])([H:9])[H:10]>>[C:1]([C@@:2]1([H:14])[N:3]([H:11])[C:6](=[O:7])[C:5]([H:12])([H:13])[O:4]1)([H:8])([H:9])[H:10]"
C       -1.97574285      -0.16207673      -0.41519196
C       -0.53674480      -0.01949768      -0.07845923
N        0.03720584       1.11081104       0.43537779
O        0.03323698      -1.10474987       0.51028869
C        1.41122554      -0.76768216       0.68598000
C        1.53316500       0.51626862      -0.14964883
O        2.51179795       1.19270612      -0.34848803
H       -2.56162337      -0.17067109       0.50639222
H       -2.30303384       0.67316903      -1.03274793
H       -2.13801481      -1.10110152      -0.94182912
H       -0.28949321       1.96592505       0.00593798
H        1.62242125      -0.53556258       1.72954624
H        2.02941322      -1.58332362       0.31321491
H        0.62618710      -0.01421461      -1.22037273
14
Frame=8 idx=010518 GeodesicLength=0.5972850699712607 rxn_smarts="[C:1](/[C:2](=[N:3]\[H:11])[O:4][C:5]([C:6](=[O:7])[H:14])([H:12])[H:13])([H:8])([H:9])[H:10]>>[C:1]([C@@:2]1([H:14])[N:3]([H:11])[C:6](=[O:7])[C:5]([H:12])([H:13])[O:4]1)([H:8])([H:9])[H:10]"
C       -1.98287284      -0.16393619      -0.41096721
C       -0.53805157      -0.01640988      -0.09825486
N        0.03292482       1.11458964       0.41695499
O        0.03339643      -1.09828955       0.50339573
C        1.41047206      -0.76378524       0.68847801
C        1.55469289       0.51335987      -0.15289354
O        2.54450410       1.17932759      -0.32734468
H       -2.55384557      -0.19230194       0.51932598
H       -2.32704418       0.67743615      -1.01089483
H       -2.14631462      -1.09652182      -0.94893581
H       -0.30297434       1.97219872       0.00061860
H        1.61391755      -0.53057436       1.73321622
H        2.03012622      -1.58186570       0.32275955
H        0.63106905      -0.01322728      -1.23545816
14
Frame=9 idx=010518 GeodesicLength=0.6716575429803391 rxn_smarts="[C:1](/[C:2](=[N:3]\[H:11])[O:4][C:5]([C:6](=[O:7])[H:14])([H:12])[H:13])([H:8])([H:9])[H:10]>>[C:1]([C@@:2]1([H:14])[N:3]([H:11])[C:6](=[O:7])[C:5]([H:12])([H:13])[O:4]1)([H:8])([H:9])[H:10]"
C       -1.98974978      -0.16580240      -0.40670318
C       -0.53942689      -0.01334078      -0.11824239
N        0.02870952       1.11839258       0.39812379
O        0.03362340      -1.09167576       0.49631573
C        1.40969245      -0.75969624       0.69081338
C        1.57652243       0.51026772      -0.15615066
O        2.57692745       1.16549878      -0.30592850
H       -2.54549474      -0.21344880       0.53178146
H       -2.35037802       0.68123174      -0.98885781
H       -2.15493209      -1.09188794      -0.95562640
H       -0.31732931       1.97842166      -0.00381669
H        1.60532046      -0.52529635       1.73665798
H        2.03066096      -1.58039434       0.33242744
H        0.63585417      -0.01226988      -1.25079417
14
Frame=10 idx=010518 GeodesicLength=0.7459794836947714 rxn_smarts="[C:1](/[C:2](=[N:3]\[H:11])[O:4][C:5]([C:6](=[O:7])[H:14])([H:12])[H:13])([H:8])([H:9])[H:10]>>[C:1]([C@@:2]1([H:14])[N:3]([H:11])[C:6](=[O:7])[C:5]([H:12])([H:13])[O:4]1)([H:8])([H:9])[H:10]"
C       -1.99636454      -0.16767309      -0.40242107
C       -0.54087949      -0.01028598      -0.13840034
N        0.02456648       1.12223041       0.37887142
O        0.03392021      -1.08489485       0.48906718
C        1.40889191      -0.75540272       0.69298550
C        1.59866601       0.50697438      -0.15942608
O        2.60906627       1.15119406      -0.28430599
H       -2.53661023      -0.23408024       0.54373856
H       -2.37299956       0.68456189      -0.96670463
H       -2.16383530      -1.08722614      -0.96189427
H       -0.33259122       1.98455997      -0.00722272
H        1.59664764      -0.51969710       1.73986159
H        2.03100417      -1.57890632       0.34223043
H        0.64051764      -0.01135426      -1.26637961
14
Frame=11 idx=010518 GeodesicLength=0.8202525523456535 rxn_smarts="[C:1](/[C:2](=[N:3]\[H:11])[O:4][C:5]([C:6](=[O:7])[H:14])([H:12])[H:13])([H:8])([H:9])[H:10]>>[C:1]([C@@:2]1([H:14])[N:3]([H:11])[C:6](=[O:7])[C:5]([H:12])([H:13])[O:4]1)([H:8])([H:9])[H:10]"
C       -2.00271044      -0.16954579      -0.39814400
C       -0.54241744      -0.00724036      -0.15871138
N        0.02050208       1.12611682       0.35917768
O        0.03428902      -1.07793122       0.48166939
C        1.40807569      -0.75089005       0.69499578
C        1.62113760       0.50345952      -0.16272913
O        2.64092344       1.13638664      -0.26254780
H       -2.52723127      -0.25417087       0.55518002
H       -2.39488220       0.68743627      -0.94450279
H       -2.17299081      -1.08256153      -0.96773965
H       -0.34878958       1.99057396      -0.00943762
H        1.58791540      -0.51373809       1.74281944
H        2.03114257      -1.57739849       0.35218759
H        0.64503594      -0.01049681      -1.28221752
14
Frame=12 idx=010518 GeodesicLength=0.894479372086847 rxn_smarts="[C:1](/[C:2](=[N:3]\[H:11])[O:4][C:5]([C:6](=[O:7])[H:14])([H:12])[H:13])([H:8])([H:9])[H:10]>>[C:1]([C@@:2]1([H:14])[N:3]([H:11])[C:6](=[O:7])[C:5]([H:12])([H:13])[O:4]1)([H:8])([H:9])[H:10]"
C       -2.00878284      -0.17141791      -0.39389751
C       -0.54404826      -0.00419893      -0.17916347
N        0.01652172       1.13006764       0.33901437
O        0.03473157      -1.07076721       0.47414062
C        1.40724862      -0.74614053       0.69684632
C        1.64395233       0.49970117      -0.16607217
O        2.67250800       1.12104848      -0.24072760
H       -2.51739603      -0.27369253       0.56609161
H       -2.41600562       0.68986529      -0.92232541
H       -2.18236566      -1.07792148      -0.97316398
H       -0.36595156       1.99641194      -0.01027563
H        1.57913741      -0.50737300       1.74552434
H        2.03106267      -1.57586555       0.36232362
H        0.64938766      -0.00971739      -1.29831511
14
Frame=13 idx=010518 GeodesicLength=0.968662996915945 rxn_smarts="[C:1](/[C:2](=[N:3]\[H:11])[O:4][C:5]([C:6](=[O:7])[H:14])([H:12])[H:13])([H:8])([H:9])[H:10]>>[C:1]([C@@:2]1([H:14])[N:3]([H:11])[C:6](=[O:7])[C:5]([H:12])([H:13])[O:4]1)([H:8])([H:9])[H:10]"
C       -2.01457933      -0.17328686      -0.38970956
C       -0.54577899      -0.00115676      -0.19975077
N        0.01262978       1.13410156       0.31834233
O        0.03524868      -1.06338195       0.46649879
C        1.40641449      -0.74113200       0.69854055
C        1.66712646       0.49567512      -0.16947137
O        2.70383394       1.10514975      -0.21892328
H       -2.50714156      -0.29262106       0.57646042
H       -2.43635676       0.69186195      -0.90024505
H       -2.19192714      -1.07333268      -0.97817416
H       -0.38409659       2.00200880      -0.00952502
H        1.57032392      -0.50054452       1.74796963
H        2.03074969      -1.57429930       0.37267164
H        0.65355341      -0.00904207      -1.31468417
14
Frame=14 idx=010518 GeodesicLength=1.0428055883359648 rxn_smarts="[C:1](/[C:2](=[N:3]\[H:11])[O:4][C:5]([C:6](=[O:7])[H:14])([H:12])[H:13])([H:8])([H:9])[H:10]>>[C:1]([C@@:2]1([H:14])[N:3]([H:11])[C:6](=[O:7])[C:5]([H:12])([H:13])[O:4]1)([H:8])([H:9])[H:10]"
C       -2.02009946      -0.17514971      -0.38561189
C       -0.54761638       0.00189066      -0.22047354
N        0.00882948       1.13823930       0.29711100
O        0.03584037      -1.05575057       0.45876096
C        1.40557639      -0.73583705       0.70008154
C        1.69067688       0.49135503      -0.17294734
O        2.73492010       1.08865932      -0.19721519
H       -2.49650401      -0.31092317       0.58627425
H       -2.45592645       0.69343722      -0.87834562
H       -2.20164429      -1.06882606      -0.98277501
H       -0.40323780       2.00727802      -0.00693550
H        1.56148318      -0.49318382       1.75014651
H        2.03018725      -1.57268671       0.38327073
H        0.65751475      -0.00850247      -1.33134090
14
Frame=15 idx=010518 GeodesicLength=1.1169097926729206 rxn_smarts="[C:1](/[C:2](=[N:3]\[H:11])[O:4][C:5]([C:6](=[O:7])[H:14])([H:12])[H:13])([H:8])([H:9])[H:10]>>[C:1]([C@@:2]1([H:14])[N:3]([H:11])[C:6](=[O:7])[C:5]([H:12])([H:13])[O:4]1)([H:8])([H:9])[H:10]"
C       -2.02534507      -0.17700326      -0.38164007
C       -0.54956710       0.00494711      -0.24134012
N        0.00512206       1.14250545       0.27525326
O        0.03650520      -1.04784365       0.45094389
C        1.40473547      -0.73022124       0.70147363
C        1.71462091       0.48671192      -0.17652672
O        2.76578887       1.07154458      -0.17568946
H       -2.48551813      -0.32856822       0.59552058
H       -2.47471191       0.69460528      -0.85671142
H       -2.21148720      -1.06443200      -0.98697764
H       -0.42337313       2.01210879      -0.00221528
H        1.55261847      -0.48520514       1.75204558
H        2.02935668      -1.57100941       0.39417155
H        0.66125487      -0.00814021      -1.34830778
14
Frame=16 idx=010518 GeodesicLength=1.1909782934701234 rxn_smarts="[C:1](/[C:2](=[N:3]\[H:11])[O:4][C:5]([C:6](=[O:7])[H:14])([H:12])[H:13])([H:8])([H:9])[H:10]>>[C:1]([C@@:2]1([H:14])[N:3]([H:11])[C:6](=[O:7])[C:5]([H:12])([H:13])[O:4]1)([H:8])([H:9])[H:10]"
C       -2.03032023      -0.17884360      -0.37783526
C       -0.55163798       0.00801518      -0.26236799
N        0.00150645       1.14692844       0.25268198
O        0.03724024      -1.03962587       0.44306347
C        1.40389089      -0.72424119       0.70272130
C        1.73897594       0.48171404      -0.18024365
O        2.79646615       1.05377144      -0.15443771
H       -2.47421749      -0.34551756       0.60418557
H       -2.49271445       0.69538031      -0.83543665
H       -2.22142851      -1.06018413      -0.99079431
H       -0.44448359       2.01635435       0.00498669
H        1.54372827      -0.47650236       1.75365445
H        2.02823644      -1.56924100       0.40543629
H        0.66475787      -0.00800805      -1.36561419
