16
Frame=0 idx=010009 GeodesicLength=0.0 rxn_smarts="[C:1]([O:2][C:3]([C:4]([N:5]([C:6](=[O:7])[H:16])[H:15])([H:13])[H:14])([H:11])[H:12])([H:8])([H:9])[H:10]>>[C:1]([O:2][C:3]([C:4]([O:7]/[C:6](=[N:5]/[H:15])[H:16])([H:13])[H:14])([H:11])[H:12])([H:8])([H:9])[H:10]"
C       -2.30044954       0.32476397       0.88506461
O       -1.25443949      -0.43188315       0.33556977
C       -0.56708715       0.25415638      -0.66872644
C        0.57243869      -0.53648074      -1.19180227
N        1.60752636      -0.81578269       0.67265051
C        2.46568794       0.05966488       0.29032074
O        2.32760769       0.56185157      -0.85297683
H       -1.92835490       1.25644762       1.33034354
H       -3.05816290       0.57693169       0.13086804
H       -2.76594235      -0.27858426       1.66272094
H       -0.21718299       1.23638737      -0.32706027
H       -1.23890181       0.43713492      -1.52770595
H        0.92073354      -0.21749733      -2.16228944
H        0.47327120      -1.60783204      -1.10130721
H        1.66252543      -1.20677999       1.60422601
H        3.30073024       0.38750180       0.92010418
16
Frame=1 idx=010009 GeodesicLength=0.057466129652831016 rxn_smarts="[C:1]([O:2][C:3]([C:4]([N:5]([C:6](=[O:7])[H:16])[H:15])([H:13])[H:14])([H:11])[H:12])([H:8])([H:9])[H:10]>>[C:1]([O:2][C:3]([C:4]([O:7]/[C:6](=[N:5]/[H:15])[H:16])([H:13])[H:14])([H:11])[H:12])([H:8])([H:9])[H:10]"
C       -2.31058288       0.33489691       0.88248134
O       -1.25266821      -0.41777857       0.35060344
C       -0.57117068       0.25764416      -0.66546152
C        0.57963877      -0.53066814      -1.17132577
N        1.63472845      -0.84531404       0.65328678
C        2.48244434       0.04839567       0.28594206
O        2.31678174       0.58517772      -0.83863401
H       -1.95378665       1.28137720       1.30870382
H       -3.06986408       0.56008873       0.12137689
H       -2.76909379      -0.25836238       1.67196116
H       -0.23264796       1.24861861      -0.33751928
H       -1.24364848       0.42072673      -1.52752389
H        0.93006215      -0.22642935      -2.14624095
H        0.45942145      -1.60211595      -1.09597406
H        1.70983303      -1.25987106       1.57287366
H        3.29055280       0.40361377       0.93545034
16
Frame=2 idx=010009 GeodesicLength=0.1144762690413817 rxn_smarts="[C:1]([O:2][C:3]([C:4]([N:5]([C:6](=[O:7])[H:16])[H:15])([H:13])[H:14])([H:11])[H:12])([H:8])([H:9])[H:10]>>[C:1]([O:2][C:3]([C:4]([O:7]/[C:6](=[N:5]/[H:15])[H:16])([H:13])[H:14])([H:11])[H:12])([H:8])([H:9])[H:10]"
C       -2.32022054       0.34515846       0.88019861
O       -1.25025391      -0.40283581       0.36611681
C       -0.57551967       0.26101038      -0.66265817
C        0.58681703      -0.52451211      -1.15076459
N        1.66233291      -0.87470430       0.63264560
C        2.49858690       0.03829783       0.28221008
O        2.30553394       0.60831732      -0.82236273
H       -1.97928129       1.30641686       1.28587053
H       -3.08118842       0.54195020       0.11295124
H       -2.77114802      -0.23714645       1.68210817
H       -0.24924733       1.26116771      -0.35021474
H       -1.24899291       0.40251440      -1.52735697
H        0.94000328      -0.23442159      -2.12948804
H        0.44639045      -1.59558061      -1.09063129
H        1.75663925      -1.31174553       1.53963891
H        3.27954831       0.41611323       0.95173658
16
Frame=3 idx=010009 GeodesicLength=0.17099304720510766 rxn_smarts="[C:1]([O:2][C:3]([C:4]([N:5]([C:6](=[O:7])[H:16])[H:15])([H:13])[H:14])([H:11])[H:12])([H:8])([H:9])[H:10]>>[C:1]([O:2][C:3]([C:4]([O:7]/[C:6](=[N:5]/[H:15])[H:16])([H:13])[H:14])([H:11])[H:12])([H:8])([H:9])[H:10]"
C       -2.32941787       0.35552462       0.87818877
O       -1.24727213      -0.38702716       0.38200924
C       -0.58018286       0.26422674      -0.66035287
C        0.59395641      -0.51798713      -1.13008780
N        1.69029450      -0.90379909       0.61070777
C        2.51389675       0.02952696       0.27932586
O        2.29381483       0.63134623      -0.80408977
H       -2.00487394       1.33138056       1.26190378
H       -3.09211857       0.52260968       0.10565697
H       -2.77222567      -0.21496261       1.69301907
H       -0.26708776       1.27391360      -0.36523371
H       -1.25491482       0.38244628      -1.52717481
H        0.95052695      -0.24141111      -2.11202303
H        0.43425204      -1.58825611      -1.08523452
H        1.80274830      -1.36209635       1.50471515
H        3.26860384       0.42456488       0.96866992
16
Frame=4 idx=010009 GeodesicLength=0.22700406157879247 rxn_smarts="[C:1]([O:2][C:3]([C:4]([N:5]([C:6](=[O:7])[H:16])[H:15])([H:13])[H:14])([H:11])[H:12])([H:8])([H:9])[H:10]>>[C:1]([O:2][C:3]([C:4]([O:7]/[C:6](=[N:5]/[H:15])[H:16])([H:13])[H:14])([H:11])[H:12])([H:8])([H:9])[H:10]"
C       -2.33815532       0.36604664       0.87644060
O       -1.24382287      -0.37034810       0.39813101
C       -0.58516416       0.26723981      -0.65857500
C        0.60100776      -0.51117036      -1.10928899
N        1.71857074      -0.93249894       0.58740468
C        2.52830486       0.02197443       0.27732349
O        2.28161389       0.65414261      -0.78387323
H       -2.03037662       1.35607245       1.23701977
H       -3.10253545       0.50244855       0.09957958
H       -2.77246490      -0.19181184       1.70448436
H       -0.28612790       1.28664601      -0.38258596
H       -1.26132859       0.36056251      -1.52692750
H        0.96153418      -0.24748378      -2.09388436
H        0.42298872      -1.58026925      -1.07974108
H        1.84836472      -1.41108468       1.46805000
H        3.25759094       0.42953395       0.98644261
16
Frame=5 idx=010009 GeodesicLength=0.2822550645597943 rxn_smarts="[C:1]([O:2][C:3]([C:4]([N:5]([C:6](=[O:7])[H:16])[H:15])([H:13])[H:14])([H:11])[H:12])([H:8])([H:9])[H:10]>>[C:1]([O:2][C:3]([C:4]([O:7]/[C:6](=[N:5]/[H:15])[H:16])([H:13])[H:14])([H:11])[H:12])([H:8])([H:9])[H:10]"
C       -2.34628967       0.37644315       0.87504386
O       -1.23985211      -0.35302143       0.41425691
C       -0.59036260       0.27001483      -0.65734240
C        0.60802057      -0.50401718      -1.08861271
N        1.74728956      -0.96096719       0.56228564
C        2.54204687       0.01517077       0.27588755
O        2.26902059       0.67664649      -0.76181460
H       -2.05553732       1.37999471       1.21161595
H       -3.11228350       0.48153364       0.09493273
H       -2.77176477      -0.16816832       1.71639897
H       -0.30618222       1.29910181      -0.40203237
H       -1.26809789       0.33713944      -1.52650574
H        0.97297612      -0.25236506      -2.07532204
H        0.41269619      -1.57162816      -1.07455985
H        1.89105415      -1.45641573       1.43121168
H        3.24726603       0.43053822       1.00455642
16
Frame=6 idx=010009 GeodesicLength=0.336263727396859 rxn_smarts="[C:1]([O:2][C:3]([C:4]([N:5]([C:6](=[O:7])[H:16])[H:15])([H:13])[H:14])([H:11])[H:12])([H:8])([H:9])[H:10]>>[C:1]([O:2][C:3]([C:4]([O:7]/[C:6](=[N:5]/[H:15])[H:16])([H:13])[H:14])([H:11])[H:12])([H:8])([H:9])[H:10]"
C       -2.35327247       0.38625007       0.87422533
O       -1.23519064      -0.33562397       0.42989940
C       -0.59549011       0.27242968      -0.65671344
C        0.61507599      -0.49663722      -1.06858312
N        1.77677090      -0.98952252       0.53448505
C        2.55546866       0.00855272       0.27433501
O        2.25635187       0.69841948      -0.73852469
H       -2.07922860       1.40215652       1.18696481
H       -3.12077897       0.46062327       0.09209919
H       -2.76985230      -0.14510818       1.72841274
H       -0.32673667       1.31084597      -0.42305745
H       -1.27492121       0.31272961      -1.52582024
H        0.98466736      -0.25592452      -2.05692333
H        0.40344888      -1.56248241      -1.07040402
H        1.92642495      -1.49467217       1.39685503
H        3.23726234       0.42796367       1.02274974
16
Frame=7 idx=010009 GeodesicLength=0.38931249781351024 rxn_smarts="[C:1]([O:2][C:3]([C:4]([N:5]([C:6](=[O:7])[H:16])[H:15])([H:13])[H:14])([H:11])[H:12])([H:8])([H:9])[H:10]>>[C:1]([O:2][C:3]([C:4]([O:7]/[C:6](=[N:5]/[H:15])[H:16])([H:13])[H:14])([H:11])[H:12])([H:8])([H:9])[H:10]"
C       -2.35944439       0.39532270       0.87387346
O       -1.23006127      -0.31828866       0.44502166
C       -0.60056376       0.27448939      -0.65653314
C        0.62226625      -0.48895010      -1.04898622
N        1.80692361      -1.01758158       0.50439761
C        2.56895938       0.00194215       0.27240018
O        2.24351378       0.71971654      -0.71378414
H       -2.10190299       1.42247737       1.16307690
H       -3.12827156       0.43958322       0.09078681
H       -2.76714609      -0.12287420       1.74036092
H       -0.34781673       1.32176362      -0.44527110
H       -1.28163963       0.28750667      -1.52480074
H        0.99663459      -0.25806664      -2.03853650
H        0.39550562      -1.55280231      -1.06699647
H        1.95337387      -1.52514080       1.36523387
H        3.22966933       0.42090264       1.03975689
16
Frame=8 idx=010009 GeodesicLength=0.44166858859818986 rxn_smarts="[C:1]([O:2][C:3]([C:4]([N:5]([C:6](=[O:7])[H:16])[H:15])([H:13])[H:14])([H:11])[H:12])([H:8])([H:9])[H:10]>>[C:1]([O:2][C:3]([C:4]([O:7]/[C:6](=[N:5]/[H:15])[H:16])([H:13])[H:14])([H:11])[H:12])([H:8])([H:9])[H:10]"
C       -2.36516117       0.40429070       0.87370558
O       -1.22494454      -0.30074735       0.45963684
C       -0.60574022       0.27612969      -0.65670918
C        0.62938287      -0.48122711      -1.02929528
N        1.83750807      -1.04431891       0.47268960
C        2.58222124      -0.00401344       0.27045790
O        2.23038003       0.74038149      -0.68776105
H       -2.12363765       1.44155279       1.13980975
H       -3.13496292       0.41932709       0.09051119
H       -2.76433724      -0.10075096       1.75185350
H       -0.36948867       1.33173313      -0.46871486
H       -1.28820717       0.26133821      -1.52345090
H        1.00858379      -0.25954436      -2.01980367
H        0.38862634      -1.54290920      -1.06334908
H        1.97712402      -1.55292289       1.33382587
H        3.22265322       0.41168114       1.05659379
16
Frame=9 idx=010009 GeodesicLength=0.49359271873521343 rxn_smarts="[C:1]([O:2][C:3]([C:4]([N:5]([C:6](=[O:7])[H:16])[H:15])([H:13])[H:14])([H:11])[H:12])([H:8])([H:9])[H:10]>>[C:1]([O:2][C:3]([C:4]([O:7]/[C:6](=[N:5]/[H:15])[H:16])([H:13])[H:14])([H:11])[H:12])([H:8])([H:9])[H:10]"
C       -2.37094826       0.41320746       0.87350088
O       -1.22030898      -0.28306358       0.47372697
C       -0.61112461       0.27735166      -0.65704813
C        0.63639840      -0.47344751      -1.00911953
N        1.86821636      -1.06919129       0.44012729
C        2.59552817      -0.00940841       0.26842048
O        2.21679914       0.76056178      -0.66017338
H       -2.14491437       1.45947449       1.11707089
H       -3.14123355       0.40001312       0.09078669
H       -2.76218201      -0.07876015       1.76258539
H       -0.39178754       1.34064182      -0.49302197
H       -1.29450657       0.23437962      -1.52172749
H        1.02045488      -0.26043774      -2.00039693
H        0.38288531      -1.53284815      -1.05894314
H        1.99881836      -1.57825840       1.30190489
H        3.21790527       0.39978528       1.07230710
16
Frame=10 idx=010009 GeodesicLength=0.5451664211221483 rxn_smarts="[C:1]([O:2][C:3]([C:4]([N:5]([C:6](=[O:7])[H:16])[H:15])([H:13])[H:14])([H:11])[H:12])([H:8])([H:9])[H:10]>>[C:1]([O:2][C:3]([C:4]([O:7]/[C:6](=[N:5]/[H:15])[H:16])([H:13])[H:14])([H:11])[H:12])([H:8])([H:9])[H:10]"
C       -2.37701229       0.42232897       0.87312393
O       -1.21639523      -0.26517887       0.48731898
C       -0.61673306       0.27812999      -0.65743721
C        0.64322565      -0.46574363      -0.98824820
N        1.89900536      -1.09200342       0.40689696
C        2.60880123      -0.01404330       0.26638549
O        2.20280113       0.78009369      -0.63117693
H       -2.16581790       1.47656186       1.09476810
H       -3.14725692       0.38200033       0.09133677
H       -2.76103007      -0.05662447       1.77241691
H       -0.41459589       1.34838913      -0.51802490
H       -1.30046536       0.20672565      -1.51955360
H        1.03206061      -0.26102968      -1.98019751
H        0.37812488      -1.52280934      -1.05342168
H        2.02071455      -1.60304333       1.26850828
H        3.21457332       0.38624641       1.08730459
16
Frame=11 idx=010009 GeodesicLength=0.5965334202437225 rxn_smarts="[C:1]([O:2][C:3]([C:4]([N:5]([C:6](=[O:7])[H:16])[H:15])([H:13])[H:14])([H:11])[H:12])([H:8])([H:9])[H:10]>>[C:1]([O:2][C:3]([C:4]([O:7]/[C:6](=[N:5]/[H:15])[H:16])([H:13])[H:14])([H:11])[H:12])([H:8])([H:9])[H:10]"
C       -2.38349513       0.43179444       0.87247889
O       -1.21329489      -0.24700999       0.50051526
C       -0.62255958       0.27845257      -0.65776246
C        0.64981660      -0.45815842      -0.96654559
N        1.92982710      -1.11275249       0.37305116
C        2.62199064      -0.01790122       0.26445270
O        2.18836354       0.79891748      -0.60069367
H       -2.18657084       1.49310103       1.07256502
H       -3.15319085       0.36517602       0.09198837
H       -2.76099236      -0.03404328       1.78138963
H       -0.43780536       1.35489875      -0.54360252
H       -1.30605105       0.17841716      -1.51681599
H        1.04327846      -0.26135017      -1.95911191
H        0.37422262      -1.51287111      -1.04664930
H        2.04406331      -1.62800612       1.23296350
H        3.21239779       0.37133535       1.10177692
16
Frame=12 idx=010009 GeodesicLength=0.6478852521794694 rxn_smarts="[C:1]([O:2][C:3]([C:4]([N:5]([C:6](=[O:7])[H:16])[H:15])([H:13])[H:14])([H:11])[H:12])([H:8])([H:9])[H:10]>>[C:1]([O:2][C:3]([C:4]([O:7]/[C:6](=[N:5]/[H:15])[H:16])([H:13])[H:14])([H:11])[H:12])([H:8])([H:9])[H:10]"
C       -2.39053058       0.44167128       0.87150349
O       -1.21093186      -0.22832662       0.51353696
C       -0.62860894       0.27835499      -0.65793529
C        0.65618017      -0.45059437      -0.94392432
N        1.96062134      -1.13153432       0.33852131
C        2.63513607      -0.02113740       0.26268773
O        2.17339428       0.81712327      -0.56825166
H       -2.20774389       1.50941993       1.04969077
H       -3.15922452       0.34877974       0.09274379
H       -2.76192491      -0.01052862       1.78979644
H       -0.46141425       1.36018745      -0.56982239
H       -1.31130717       0.14933771      -1.51335491
H        1.05411786      -0.26108706      -1.93702143
H        0.37114244      -1.50295209      -1.03871293
H        2.06925019      -1.65339476       1.19494895
H        3.21184379       0.35468086       1.11559348
16
Frame=13 idx=010009 GeodesicLength=0.6991054230595491 rxn_smarts="[C:1]([O:2][C:3]([C:4]([N:5]([C:6](=[O:7])[H:16])[H:15])([H:13])[H:14])([H:11])[H:12])([H:8])([H:9])[H:10]>>[C:1]([O:2][C:3]([C:4]([O:7]/[C:6](=[N:5]/[H:15])[H:16])([H:13])[H:14])([H:11])[H:12])([H:8])([H:9])[H:10]"
C       -2.39794228       0.45199439       0.87020731
O       -1.20941395      -0.20943363       0.52620159
C       -0.63472462       0.27770958      -0.65787564
C        0.66228146      -0.44332368      -0.92044727
N        1.99148848      -1.14828466       0.30310413
C        2.64800495      -0.02353855       0.26112563
O        2.15809910       0.83430670      -0.53456347
H       -2.22862113       1.52535382       1.02682012
H       -3.16515879       0.33371459       0.09348023
H       -2.76397913       0.01362257       1.79732951
H       -0.48502991       1.36399912      -0.59625910
H       -1.31603852       0.11980481      -1.50913765
H        1.06430465      -0.26068202      -1.91413676
H        0.36875851      -1.49335042      -1.02949663
H        2.09667306      -1.67916482       1.15425002
H        3.21129812       0.33727220       1.12939798
16
Frame=14 idx=010009 GeodesicLength=0.7502233513765503 rxn_smarts="[C:1]([O:2][C:3]([C:4]([N:5]([C:6](=[O:7])[H:16])[H:15])([H:13])[H:14])([H:11])[H:12])([H:8])([H:9])[H:10]>>[C:1]([O:2][C:3]([C:4]([O:7]/[C:6](=[N:5]/[H:15])[H:16])([H:13])[H:14])([H:11])[H:12])([H:8])([H:9])[H:10]"
C       -2.40608521       0.46248915       0.86842032
O       -1.20897231      -0.19048790       0.53849630
C       -0.64091689       0.27662274      -0.65739737
C        0.66813173      -0.43615486      -0.89594684
N        2.02199443      -1.16284598       0.26727894
C        2.66110014      -0.02554627       0.25924435
O        2.14243190       0.85057822      -0.49909357
H       -2.24969341       1.54069290       1.00382246
H       -3.17122968       0.31959490       0.09384919
H       -2.76759834       0.03800422       1.80374978
H       -0.50857770       1.36640364      -0.62246601
H       -1.32014166       0.09009742      -1.50411735
H        1.07381402      -0.25975770      -1.89027931
H        0.36710443      -1.48387953      -1.01901777
H        2.12490089      -1.70378746       1.11214511
H        3.21373766       0.31797651       1.14131177
16
Frame=15 idx=010009 GeodesicLength=0.8011611791054024 rxn_smarts="[C:1]([O:2][C:3]([C:4]([N:5]([C:6](=[O:7])[H:16])[H:15])([H:13])[H:14])([H:11])[H:12])([H:8])([H:9])[H:10]>>[C:1]([O:2][C:3]([C:4]([O:7]/[C:6](=[N:5]/[H:15])[H:16])([H:13])[H:14])([H:11])[H:12])([H:8])([H:9])[H:10]"
C       -2.41486976       0.47320471       0.86618148
O       -1.20967947      -0.17176123       0.55034383
C       -0.64706625       0.27502101      -0.65644947
C        0.67374512      -0.42933562      -0.87050339
N        2.05227091      -1.17527177       0.23091350
C        2.67426361      -0.02694889       0.25713080
O        2.12671888       0.86563253      -0.46254337
H       -2.27042977       1.55545467       0.98120686
H       -3.17742860       0.30711242       0.09373779
H       -2.77291479       0.06237270       1.80893019
H       -0.53172966       1.36733118      -0.64815628
H       -1.32356049       0.06047886      -1.49830930
H        1.08247558      -0.25870855      -1.86567018
H        0.36606264      -1.47483588      -1.00717600
H        2.15442509      -1.72751007       1.06836918
H        3.21771697       0.29776393       1.15199435
16
Frame=16 idx=010009 GeodesicLength=0.852046169868978 rxn_smarts="[C:1]([O:2][C:3]([C:4]([N:5]([C:6](=[O:7])[H:16])[H:15])([H:13])[H:14])([H:11])[H:12])([H:8])([H:9])[H:10]>>[C:1]([O:2][C:3]([C:4]([O:7]/[C:6](=[N:5]/[H:15])[H:16])([H:13])[H:14])([H:11])[H:12])([H:8])([H:9])[H:10]"
C       -2.42428972       0.48415788       0.86346101
O       -1.21135776      -0.15303130       0.56194522
C       -0.65315247       0.27293357      -0.65498273
C        0.67914338      -0.42277179      -0.84409136
N        2.08214857      -1.18563118       0.19394863
C        2.68746597      -0.02788726       0.25484212
O        2.11085765       0.87952469      -0.42438896
H       -2.29124497       1.56984203       0.95828045
H       -3.18378961       0.29549812       0.09323690
H       -2.77964092       0.08715558       1.81314748
H       -0.55449775       1.36682646      -0.67346979
H       -1.32634133       0.03076938      -1.49159234
H        1.09032599      -0.25719865      -1.84024496
H        0.36561150      -1.46609913      -0.99414615
H        2.18509994      -1.75036582       1.02276933
H        3.22366152       0.27627744       1.16128514
