16
Frame=0 idx=003601 GeodesicLength=0.0 rxn_smarts="[C:1]([C:2]1([C:3]([O:4][H:12])([H:10])[H:11])[C:5]([H:13])([H:14])[C:6]1([H:15])[H:16])([H:7])([H:8])[H:9]>>[C:1]([C:2]1([C:3](=[O:4])[H:11])[C:5]([H:13])([H:14])[C:6]1([H:15])[H:16])([H:7])([H:8])[H:9].[H:10][H:12]"
C        0.31724996       1.59875022      -0.42456025
C       -0.03970395       0.17684536      -0.05693062
C        0.98390954      -0.36540596       0.91047975
O        2.21529628      -0.60019245       0.50168642
C       -0.64137490      -0.72651594      -1.07859111
C       -1.47175468      -0.23260935       0.07775735
H       -0.40812917       2.00017848      -1.13325341
H        0.32123715       2.24478098       0.45712155
H        1.30721814       1.63169100      -0.88103860
H        0.39796745      -1.63339950       1.20721120
H        0.84814460       0.03613344       1.93220063
H        1.31682724      -1.60772509       0.89825361
H       -0.34499783      -1.76881092      -1.08217085
H       -0.83441965      -0.31845367      -2.06214867
H       -2.23186774       0.51386642      -0.11373929
H       -1.73560244      -0.94913309       0.84772225
16
Frame=1 idx=003601 GeodesicLength=0.10641067078579819 rxn_smarts="[C:1]([C:2]1([C:3]([O:4][H:12])([H:10])[H:11])[C:5]([H:13])([H:14])[C:6]1([H:15])[H:16])([H:7])([H:8])[H:9]>>[C:1]([C:2]1([C:3](=[O:4])[H:11])[C:5]([H:13])([H:14])[C:6]1([H:15])[H:16])([H:7])([H:8])[H:9].[H:10][H:12]"
C        0.31230051       1.60484079      -0.42481193
C       -0.03896250       0.18169183      -0.05706887
C        0.97972064      -0.36463850       0.91197393
O        2.20413833      -0.62137304       0.49719835
C       -0.63849882      -0.72322399      -1.08024882
C       -1.47058025      -0.23195086       0.07475999
H       -0.41248761       2.00303250      -1.13597284
H        0.31056420       2.25196675       0.45604308
H        1.30348525       1.64274875      -0.87845810
H        0.39756351      -1.65323834       1.22568599
H        0.86551145       0.06261720       1.92553214
H        1.32255818      -1.63786442       0.90408490
H       -0.34005762      -1.76485660      -1.08375933
H       -0.83147944      -0.31495434      -2.06375481
H       -2.23188798       0.51324820      -0.11699171
H       -1.73188782      -0.94804593       0.84578803
16
Frame=2 idx=003601 GeodesicLength=0.21263877014046145 rxn_smarts="[C:1]([C:2]1([C:3]([O:4][H:12])([H:10])[H:11])[C:5]([H:13])([H:14])[C:6]1([H:15])[H:16])([H:7])([H:8])[H:9]>>[C:1]([C:2]1([C:3](=[O:4])[H:11])[C:5]([H:13])([H:14])[C:6]1([H:15])[H:16])([H:7])([H:8])[H:9].[H:10][H:12]"
C        0.30729091       1.61107588      -0.42517705
C       -0.03823698       0.18673453      -0.05717828
C        0.97526152      -0.36348710       0.91387053
O        2.19233836      -0.64261489       0.49357735
C       -0.63556352      -0.71983392      -1.08183239
C       -1.46937564      -0.23122207       0.07182153
H       -0.41684696       2.00591144      -1.13891048
H        0.29967193       2.25939330       0.45474455
H        1.29973013       1.65390880      -0.87584419
H        0.39749228      -1.67363122       1.24415305
H        0.88331293       0.08930476       1.91823882
H        1.32847842      -1.66904033       0.90938074
H       -0.33504157      -1.76079463      -1.08522455
H       -0.82852303      -0.31143001      -2.06530806
H       -2.23192169       0.51264520      -0.12021489
H       -1.72806710      -0.94691976       0.84390332
16
Frame=3 idx=003601 GeodesicLength=0.31873775655423053 rxn_smarts="[C:1]([C:2]1([C:3]([O:4][H:12])([H:10])[H:11])[C:5]([H:13])([H:14])[C:6]1([H:15])[H:16])([H:7])([H:8])[H:9]>>[C:1]([C:2]1([C:3](=[O:4])[H:11])[C:5]([H:13])([H:14])[C:6]1([H:15])[H:16])([H:7])([H:8])[H:9].[H:10][H:12]"
C        0.30221705       1.61746326      -0.42566329
C       -0.03752855       0.19198521      -0.05724561
C        0.97051692      -0.36190321       0.91621399
O        2.17986197      -0.66392375       0.49090557
C       -0.63255983      -0.71634343      -1.08332485
C       -1.46814183      -0.23041359       0.06894812
H       -0.42121061       2.00881379      -1.14207646
H        0.28855476       2.26707919       0.45320560
H        1.29594568       1.66517604      -0.87320764
H        0.39780059      -1.69461769       1.26257858
H        0.90153581       0.11623865       1.91031043
H        1.33459959      -1.70136249       0.91403313
H       -0.32994125      -1.75662262      -1.08654202
H       -0.82553711      -0.30788993      -2.06679720
H       -2.23197029       0.51206279      -0.12341420
H       -1.72414291      -0.94574221       0.84207585
16
Frame=4 idx=003601 GeodesicLength=0.42480380423668646 rxn_smarts="[C:1]([C:2]1([C:3]([O:4][H:12])([H:10])[H:11])[C:5]([H:13])([H:14])[C:6]1([H:15])[H:16])([H:7])([H:8])[H:9]>>[C:1]([C:2]1([C:3](=[O:4])[H:11])[C:5]([H:13])([H:14])[C:6]1([H:15])[H:16])([H:7])([H:8])[H:9].[H:10][H:12]"
C        0.29707403       1.62401385      -0.42628250
C       -0.03683748       0.19745959      -0.05725702
C        0.96547450      -0.35982575       0.91905177
O        2.16666397      -0.68530926       0.48928624
C       -0.62947640      -0.71274923      -1.08470616
C       -1.46687787      -0.22951440       0.06614869
H       -0.42558273       2.01173783      -1.14548568
H        0.27720465       2.27504866       0.45139931
H        1.29212357       1.67655889      -0.87056294
H        0.39854276      -1.71625086       1.28091871
H        0.92016057       0.14346927       1.90173911
H        1.34093147      -1.73496491       0.91791680
H       -0.32474513      -1.75233684      -1.08768283
H       -0.82250789      -0.30434501      -2.06820851
H       -2.23203426       0.51150639      -0.12659311
H       -1.72011377      -0.94449823       0.84031812
16
Frame=5 idx=003601 GeodesicLength=0.5308518372055948 rxn_smarts="[C:1]([C:2]1([C:3]([O:4][H:12])([H:10])[H:11])[C:5]([H:13])([H:14])[C:6]1([H:15])[H:16])([H:7])([H:8])[H:9]>>[C:1]([C:2]1([C:3](=[O:4])[H:11])[C:5]([H:13])([H:14])[C:6]1([H:15])[H:16])([H:7])([H:8])[H:9].[H:10][H:12]"
C        0.29185749       1.63073744      -0.42704451
C       -0.03616838       0.20317386      -0.05719694
C        0.96011109      -0.35719238       0.92243787
O        2.15269279      -0.70679285       0.48882515
C       -0.62630342      -0.70904958      -1.08595441
C       -1.46558756      -0.22851221       0.06343057
H       -0.42996460       2.01468077      -1.14915435
H        0.26561397       2.28332610       0.44929902
H        1.28825759       1.68806081      -0.86792177
H        0.39978750      -1.73857730       1.29911983
H        0.93917572       0.17103539       1.89251525
H        1.34749363      -1.76995891       0.92090491
H       -0.31944303      -1.74793498      -1.08861325
H       -0.81941956      -0.30080899      -2.06952778
H       -2.23211755       0.51098316      -0.12976062
H       -1.71598569      -0.94317035       0.83864102
16
Frame=6 idx=003601 GeodesicLength=0.6369760842727463 rxn_smarts="[C:1]([C:2]1([C:3]([O:4][H:12])([H:10])[H:11])[C:5]([H:13])([H:14])[C:6]1([H:15])[H:16])([H:7])([H:8])[H:9]>>[C:1]([C:2]1([C:3](=[O:4])[H:11])[C:5]([H:13])([H:14])[C:6]1([H:15])[H:16])([H:7])([H:8])[H:9].[H:10][H:12]"
C        0.28656088       1.63764893      -0.42796620
C       -0.03552387       0.20914999      -0.05704919
C        0.95440886      -0.35392181       0.92642878
O        2.13787544      -0.72839535       0.48966173
C       -0.62302726      -0.70524090      -1.08704288
C       -1.46427066      -0.22739217       0.06080505
H       -0.43435987       2.01763972      -1.15310475
H        0.25377100       2.29194289       0.44686800
H        1.28433866       1.69969333      -0.86530093
H        0.40160699      -1.76166429       1.31711242
H        0.95857091       0.19897931       1.88262501
H        1.35430432      -1.80649208       0.92285499
H       -0.31402052      -1.74341283      -1.08929339
H       -0.81625490      -0.29729792      -2.07073726
H       -2.23222189       0.51049999      -0.13292339
H       -1.71175810      -0.94173681       0.83706202
16
Frame=7 idx=003601 GeodesicLength=0.7431732632306436 rxn_smarts="[C:1]([C:2]1([C:3]([O:4][H:12])([H:10])[H:11])[C:5]([H:13])([H:14])[C:6]1([H:15])[H:16])([H:7])([H:8])[H:9]>>[C:1]([C:2]1([C:3](=[O:4])[H:11])[C:5]([H:13])([H:14])[C:6]1([H:15])[H:16])([H:7])([H:8])[H:9].[H:10][H:12]"
C        0.28117774       1.64476029      -0.42906000
C       -0.03490932       0.21540757      -0.05679619
C        0.94834122      -0.34994041       0.93108133
O        2.12213800      -0.75014003       0.49193267
C       -0.61963543      -0.70132145      -1.08794544
C       -1.46293144      -0.22613943       0.05828022
H       -0.43877221       2.02061146      -1.15735599
H        0.24166629       2.30092476       0.44407627
H        1.28035853       1.71146367      -0.86271520
H        0.40407185      -1.78557083       1.33482095
H        0.97835487       0.22733601       1.87204230
H        1.36138869      -1.84468395       0.92363974
H       -0.30846533      -1.73876813      -1.08968190
H       -0.81299312      -0.29382900      -2.07181970
H       -2.23235173       0.51006426      -0.13609401
H       -1.70743861      -0.94017480       0.83559495
16
Frame=8 idx=003601 GeodesicLength=0.8494474023509875 rxn_smarts="[C:1]([C:2]1([C:3]([O:4][H:12])([H:10])[H:11])[C:5]([H:13])([H:14])[C:6]1([H:15])[H:16])([H:7])([H:8])[H:9]>>[C:1]([C:2]1([C:3](=[O:4])[H:11])[C:5]([H:13])([H:14])[C:6]1([H:15])[H:16])([H:7])([H:8])[H:9].[H:10][H:12]"
C        0.27570040       1.65208855      -0.43034411
C       -0.03433274       0.22197084      -0.05641573
C        0.94187969      -0.34516126       0.93647173
O        2.10537867      -0.77207580       0.49580210
C       -0.61611347      -0.69729234      -1.08862849
C       -1.46157537      -0.22473530       0.05586854
H       -0.44320442       2.02359554      -1.16193845
H        0.22928469       2.31031243       0.44088706
H        1.27631065       1.72337765      -0.86018427
H        0.40725442      -1.81038934       1.35212327
H        0.99854226       0.25614044       1.86074885
H        1.36879697      -1.88463543       0.92311490
H       -0.30276082      -1.73400228      -1.08972455
H       -0.80961095      -0.29042734      -2.07275573
H       -2.23251358       0.50968786      -0.13928728
H       -1.70303639      -0.93845422       0.83426218
16
Frame=9 idx=003601 GeodesicLength=0.9561693374467548 rxn_smarts="[C:1]([C:2]1([C:3]([O:4][H:12])([H:10])[H:11])[C:5]([H:13])([H:14])[C:6]1([H:15])[H:16])([H:7])([H:8])[H:9]>>[C:1]([C:2]1([C:3](=[O:4])[H:11])[C:5]([H:13])([H:14])[C:6]1([H:15])[H:16])([H:7])([H:8])[H:9].[H:10][H:12]"
C        0.27014892       1.65963036      -0.43186062
C       -0.03381799       0.22888411      -0.05587965
C        0.93491925      -0.33938938       0.94267500
O        2.08723471      -0.79435483       0.50162611
C       -0.61246703      -0.69313674      -1.08903321
C       -1.46022403      -0.22314547       0.05359952
H       -0.44760946       2.02654875      -1.16692065
H        0.21661625       2.32014913       0.43719897
H        1.27224133       1.73538913      -0.85770734
H        0.41138976      -1.83631733       1.36872350
H        1.01906842       0.28554799       1.84882571
H        1.37681779      -1.92646045       0.92099014
H       -0.29692693      -1.72909551      -1.08935149
H       -0.80611161      -0.28711567      -2.07349194
H       -2.23271950       0.50939634      -0.14249800
H       -1.69855988      -0.93653043       0.83310394
16
Frame=10 idx=003601 GeodesicLength=1.0629158226113464 rxn_smarts="[C:1]([C:2]1([C:3]([O:4][H:12])([H:10])[H:11])[C:5]([H:13])([H:14])[C:6]1([H:15])[H:16])([H:7])([H:8])[H:9]>>[C:1]([C:2]1([C:3](=[O:4])[H:11])[C:5]([H:13])([H:14])[C:6]1([H:15])[H:16])([H:7])([H:8])[H:9].[H:10][H:12]"
C        0.26449515       1.66741121      -0.43360302
C       -0.03335934       0.23615169      -0.05517261
C        0.92749851      -0.33264207       0.94973679
O        2.06778865      -0.81689141       0.50942783
C       -0.60866887      -0.68886946      -1.08914639
C       -1.45887333      -0.22135846       0.05146686
H       -0.45203408       2.02949961      -1.17228267
H        0.20366536       2.33044981       0.43303174
H        1.26809315       1.74754593      -0.85533121
H        0.41637409      -1.86342074       1.38461464
H        1.04004319       0.31545857       1.83612138
H        1.38534957      -1.97017353       0.91732664
H       -0.29092390      -1.72406347      -1.08851727
H       -0.80244552      -0.28392022      -2.07403343
H       -2.23297072       0.50919452      -0.14576437
H       -1.69403192      -0.93437198       0.83212509
16
Frame=11 idx=003601 GeodesicLength=1.1696485421590193 rxn_smarts="[C:1]([C:2]1([C:3]([O:4][H:12])([H:10])[H:11])[C:5]([H:13])([H:14])[C:6]1([H:15])[H:16])([H:7])([H:8])[H:9]>>[C:1]([C:2]1([C:3](=[O:4])[H:11])[C:5]([H:13])([H:14])[C:6]1([H:15])[H:16])([H:7])([H:8])[H:9].[H:10][H:12]"
C        0.25873837       1.67543811      -0.43558785
C       -0.03296995       0.24379646      -0.05427360
C        0.91957494      -0.32483726       0.95770861
O        2.04689199      -0.83970982       0.51937697
C       -0.60471357      -0.68448967      -1.08893054
C       -1.45753754      -0.21934684       0.04947962
H       -0.45647378       2.03244019      -1.17804261
H        0.19044298       2.34123533       0.42834792
H        1.26386111       1.75984224      -0.85308295
H        0.42225376      -1.89186192       1.39962333
H        1.06148387       0.34587563       1.82259377
H        1.39454192      -2.01578362       0.91206316
H       -0.28474963      -1.71890466      -1.08715884
H       -0.79858914      -0.28086580      -2.07435476
H       -2.23327530       0.50910436      -0.14910867
H       -1.68948003      -0.93193273       0.83134643
16
Frame=12 idx=003601 GeodesicLength=1.2763381507119438 rxn_smarts="[C:1]([C:2]1([C:3]([O:4][H:12])([H:10])[H:11])[C:5]([H:13])([H:14])[C:6]1([H:15])[H:16])([H:7])([H:8])[H:9]>>[C:1]([C:2]1([C:3](=[O:4])[H:11])[C:5]([H:13])([H:14])[C:6]1([H:15])[H:16])([H:7])([H:8])[H:9].[H:10][H:12]"
C        0.25287846       1.68371817      -0.43783130
C       -0.03266078       0.25184070      -0.05316155
C        0.91111584      -0.31589517       0.96663505
O        2.02437267      -0.86282864       0.53165280
C       -0.60059505      -0.67999910      -1.08834599
C       -1.45622952      -0.21708098       0.04764798
H       -0.46092697       2.03536362      -1.18421426
H        0.17696759       2.35252508       0.42310925
H        1.25953576       1.77227621      -0.85099383
H        0.42903727      -1.92183492       1.41354941
H        1.08341751       0.37678544       1.80818289
H        1.40457727      -2.06325916       0.90516649
H       -0.27840231      -1.71362043      -1.08520795
H       -0.79451657      -0.27798088      -2.07442896
H       -2.23363896       0.50914959      -0.15255393
H       -1.68493221      -0.92915955       0.83079390
16
Frame=13 idx=003601 GeodesicLength=1.382886498304977 rxn_smarts="[C:1]([C:2]1([C:3]([O:4][H:12])([H:10])[H:11])[C:5]([H:13])([H:14])[C:6]1([H:15])[H:16])([H:7])([H:8])[H:9]>>[C:1]([C:2]1([C:3](=[O:4])[H:11])[C:5]([H:13])([H:14])[C:6]1([H:15])[H:16])([H:7])([H:8])[H:9].[H:10][H:12]"
C        0.24691846       1.69225220      -0.44034505
C       -0.03245009       0.26029984      -0.05181242
C        0.90207402      -0.30575340       0.97656348
O        2.00005224      -0.88627369       0.54640983
C       -0.59631495      -0.67540452      -1.08735192
C       -1.45497248      -0.21452716       0.04597862
H       -0.46538547       2.03826461      -1.19080878
H        0.16326580       2.36433201       0.41729062
H        1.25511340       1.78482979      -0.84909577
H        0.43669930      -1.95353727       1.42616268
H        1.10588536       0.40811952       1.79281847
H        1.41571442      -2.11245836       0.89665055
H       -0.27189096      -1.70821931      -1.08258947
H       -0.79020005      -0.27529747      -2.07423009
H       -2.23407277       0.50936416      -0.15613298
H       -1.68043622      -0.92599093       0.83049224
16
Frame=14 idx=003601 GeodesicLength=1.4893090773404465 rxn_smarts="[C:1]([C:2]1([C:3]([O:4][H:12])([H:10])[H:11])[C:5]([H:13])([H:14])[C:6]1([H:15])[H:16])([H:7])([H:8])[H:9]>>[C:1]([C:2]1([C:3](=[O:4])[H:11])[C:5]([H:13])([H:14])[C:6]1([H:15])[H:16])([H:7])([H:8])[H:9].[H:10][H:12]"
C        0.24085886       1.70104408      -0.44314375
C       -0.03235192       0.26919305      -0.05020349
C        0.89242002      -0.29434105       0.98752654
O        1.97371380      -0.91004221       0.56383828
C       -0.59187290      -0.67070991      -1.08590556
C       -1.45378554      -0.21165056       0.04448175
H       -0.46985194       2.04113894      -1.19783429
H        0.14936860       2.37666918       0.41086523
H        1.25058583       1.79749198      -0.84743651
H        0.44512488      -1.98725633       1.43719159
H        1.12898009       0.43979051       1.77639003
H        1.42826010      -2.16319412       0.88658766
H       -0.26521908      -1.70270480      -1.07922807
H       -0.78561325      -0.27284590      -2.07372896
H       -2.23458546       0.50977922      -0.15987232
H       -1.67603208      -0.92236209       0.83047188
16
Frame=15 idx=003601 GeodesicLength=1.5955859495666664 rxn_smarts="[C:1]([C:2]1([C:3]([O:4][H:12])([H:10])[H:11])[C:5]([H:13])([H:14])[C:6]1([H:15])[H:16])([H:7])([H:8])[H:9]>>[C:1]([C:2]1([C:3](=[O:4])[H:11])[C:5]([H:13])([H:14])[C:6]1([H:15])[H:16])([H:7])([H:8])[H:9].[H:10][H:12]"
C        0.23470374       1.71009046      -0.44623551
C       -0.03238698       0.27853232      -0.04831304
C        0.88211516      -0.28160547       0.99954540
O        1.94512673      -0.93412721       0.58409679
C       -0.58727853      -0.66592210      -1.08396606
C       -1.45269718      -0.20841287       0.04316234
H       -0.47432509       2.04398490      -1.20528802
H        0.13532272       2.38953775       0.40382098
H        1.24594892       1.81023765      -0.84606307
H        0.45414978      -2.02328659       1.44634825
H        1.15280865       0.47163060       1.75875932
H        1.44261344      -2.21515384       0.87512349
H       -0.25840310      -1.69708469      -1.07504558
H       -0.78073147      -0.27065560      -2.07289872
H       -2.23519043       0.51043513      -0.16380695
H       -1.67177635      -0.91820046       0.83076036
16
Frame=16 idx=003601 GeodesicLength=1.7017529584464754 rxn_smarts="[C:1]([C:2]1([C:3]([O:4][H:12])([H:10])[H:11])[C:5]([H:13])([H:14])[C:6]1([H:15])[H:16])([H:7])([H:8])[H:9]>>[C:1]([C:2]1([C:3](=[O:4])[H:11])[C:5]([H:13])([H:14])[C:6]1([H:15])[H:16])([H:7])([H:8])[H:9].[H:10][H:12]"
C        0.22845932       1.71938454      -0.44962615
C       -0.03257613       0.28832782      -0.04612145
C        0.87113315      -0.26750134       1.01262392
O        1.91403090      -0.95850162       0.60734665
C       -0.58254666      -0.66104839      -1.08149392
C       -1.45173876      -0.20477445       0.04202525
H       -0.47880839       2.04680077      -1.21315769
H        0.12118786       2.40293076       0.39615370
H        1.24119786       1.82303987      -0.84502752
H        0.46351559      -2.06198772       1.45331511
H        1.17751856       0.50342505       1.73974817
H        1.45925518      -2.26791968       0.86247367
H       -0.25146319      -1.69136559      -1.06996493
H       -0.77553382      -0.26875457      -2.07171204
H       -2.23590261       0.51137378      -0.16796961
H       -1.66772885      -0.91342926       0.83138684
