12
Frame=0 idx=001051 GeodesicLength=0.0 rxn_smarts="[C:1]([C@@:2]1([H:10])[O:3][C@:4]1([C:5](=[O:6])[H:12])[H:11])([H:7])([H:8])[H:9]>>[C:1]([C:2]([O+:3]=[C:4]=[C:5]([O-:6])[H:12])([H:10])[H:11])([H:7])([H:8])[H:9]"
C       -1.28424602       0.42279053       0.51719196
C       -0.59453699      -0.76787802      -0.08456883
O       -0.11218917      -0.54409667      -1.42175265
C        1.11231501      -0.72844241      -0.83075327
C        1.79673853       0.46978715      -0.31165955
O        2.00064376       0.77391765       0.83939880
H       -1.56644266       0.20997339       1.54900132
H       -0.63968604       1.29907862       0.51261064
H       -2.18524430       0.64179525      -0.05724695
H       -1.16128976      -1.69792218      -0.08584156
H        0.33317277      -1.07264733       0.53192641
H        2.30076487       0.99364398      -1.15830633
12
Frame=1 idx=001051 GeodesicLength=0.0610359429372184 rxn_smarts="[C:1]([C@@:2]1([H:10])[O:3][C@:4]1([C:5](=[O:6])[H:12])[H:11])([H:7])([H:8])[H:9]>>[C:1]([C:2]([O+:3]=[C:4]=[C:5]([O-:6])[H:12])([H:10])[H:11])([H:7])([H:8])[H:9]"
C       -1.28244681       0.42727499       0.50983437
C       -0.59402475      -0.76942066      -0.08168576
O       -0.10997188      -0.55535960      -1.41999036
C        1.11118684      -0.72906691      -0.82511121
C        1.80028498       0.46547719      -0.30538115
O        2.02915324       0.74621190       0.84675078
H       -1.56488249       0.22382545       1.54349092
H       -0.63907336       1.30452173       0.49725319
H       -2.18368199       0.64317937      -0.06548450
H       -1.16895509      -1.69448400      -0.08123833
H        0.34706592      -1.09282989       0.53415713
H        2.25534538       1.03067042      -1.15259509
12
Frame=2 idx=001051 GeodesicLength=0.12227604474854617 rxn_smarts="[C:1]([C@@:2]1([H:10])[O:3][C@:4]1([C:5](=[O:6])[H:12])[H:11])([H:7])([H:8])[H:9]>>[C:1]([C:2]([O+:3]=[C:4]=[C:5]([O-:6])[H:12])([H:10])[H:11])([H:7])([H:8])[H:9]"
C       -1.28075968       0.43185805       0.50234196
C       -0.59347609      -0.77078313      -0.07872186
O       -0.10799462      -0.56663598      -1.41825331
C        1.10992305      -0.72947183      -0.81979088
C        1.80374446       0.46150984      -0.29964717
O        2.05851979       0.71839289       0.85248294
H       -1.56322627       0.23791392       1.53786855
H       -0.63867795       1.31009260       0.48152909
H       -2.18235160       0.64436553      -0.07377923
H       -1.17626413      -1.69099621      -0.07620250
H        0.36142164      -1.11311858       0.53598304
H        2.20914141       1.06687287      -1.14381062
12
Frame=3 idx=001051 GeodesicLength=0.18370273791834243 rxn_smarts="[C:1]([C@@:2]1([H:10])[O:3][C@:4]1([C:5](=[O:6])[H:12])[H:11])([H:7])([H:8])[H:9]>>[C:1]([C:2]([O+:3]=[C:4]=[C:5]([O-:6])[H:12])([H:10])[H:11])([H:7])([H:8])[H:9]"
C       -1.27924635       0.43652083       0.49470344
C       -0.59284540      -0.77189041      -0.07565006
O       -0.10623430      -0.57783344      -1.41639670
C        1.10852959      -0.72959362      -0.81470342
C        1.80700601       0.45789602      -0.29443276
O        2.08879138       0.69042904       0.85639318
H       -1.56159188       0.25218250       1.53200702
H       -0.63861910       1.31569901       0.46551751
H       -2.18127239       0.64536839      -0.08213805
H       -1.18308120      -1.68733974      -0.07072485
H        0.37631529      -1.13341803       0.53735705
H        2.16224835       1.10197945      -1.13193236
12
Frame=4 idx=001051 GeodesicLength=0.24533043404757388 rxn_smarts="[C:1]([C@@:2]1([H:10])[O:3][C@:4]1([C:5](=[O:6])[H:12])[H:11])([H:7])([H:8])[H:9]>>[C:1]([C:2]([O+:3]=[C:4]=[C:5]([O-:6])[H:12])([H:10])[H:11])([H:7])([H:8])[H:9]"
C       -1.27795356       0.44126420       0.48695614
C       -0.59221674      -0.77280192      -0.07248941
O       -0.10473855      -0.58894003      -1.41454865
C        1.10695404      -0.72943799      -0.80990433
C        1.81008622       0.45473735      -0.28969920
O        2.11992808       0.66251887       0.85852840
H       -1.55993232       0.26665180       1.52607217
H       -0.63895344       1.32147306       0.44914838
H       -2.18055357       0.64609038      -0.09051115
H       -1.18952890      -1.68369121      -0.06483095
H        0.39167160      -1.15379320       0.53831020
H        2.11523714       1.13592868      -1.11703160
12
Frame=5 idx=001051 GeodesicLength=0.307122624997637 rxn_smarts="[C:1]([C@@:2]1([H:10])[O:3][C@:4]1([C:5](=[O:6])[H:12])[H:11])([H:7])([H:8])[H:9]>>[C:1]([C:2]([O+:3]=[C:4]=[C:5]([O-:6])[H:12])([H:10])[H:11])([H:7])([H:8])[H:9]"
C       -1.27694863       0.44606856       0.47908980
C       -0.59158572      -0.77345034      -0.06924488
O       -0.10347530      -0.59985506      -1.41263622
C        1.10523570      -0.72891693      -0.80536294
C        1.81293581       0.45201534      -0.28535579
O        2.15181384       0.63459743       0.85880924
H       -1.55806299       0.28141842       1.52008389
H       -0.63990481       1.32740640       0.43214733
H       -2.18041941       0.64633558      -0.09869266
H       -1.19557941      -1.67992626      -0.05853333
H        0.40752844      -1.17422820       0.53873783
H        2.06846251       1.16853506      -1.09904227
12
Frame=6 idx=001051 GeodesicLength=0.3692215225033201 rxn_smarts="[C:1]([C@@:2]1([H:10])[O:3][C@:4]1([C:5](=[O:6])[H:12])[H:11])([H:7])([H:8])[H:9]>>[C:1]([C:2]([O+:3]=[C:4]=[C:5]([O-:6])[H:12])([H:10])[H:11])([H:7])([H:8])[H:9]"
C       -1.27627435       0.45094968       0.47108619
C       -0.59093497      -0.77385809      -0.06582855
O       -0.10237750      -0.61070042      -1.41058789
C        1.10338938      -0.72816021      -0.80093111
C        1.81560875       0.44971350      -0.28141525
O        2.18510127       0.60665515       0.85695170
H       -1.55679263       0.29625601       1.51379304
H       -0.64121103       1.33334032       0.41522271
H       -2.18046531       0.64653883      -0.10723043
H       -1.20120124      -1.67610881      -0.05175322
H        0.42389830      -1.19460095       0.53883975
H        2.02125933       1.19997499      -1.07814693
12
Frame=7 idx=001051 GeodesicLength=0.43140439943286696 rxn_smarts="[C:1]([C@@:2]1([H:10])[O:3][C@:4]1([C:5](=[O:6])[H:12])[H:11])([H:7])([H:8])[H:9]>>[C:1]([C:2]([O+:3]=[C:4]=[C:5]([O-:6])[H:12])([H:10])[H:11])([H:7])([H:8])[H:9]"
C       -1.27590751       0.45589711       0.46297914
C       -0.59031893      -0.77402540      -0.06235693
O       -0.10155508      -0.62124647      -1.40847039
C        1.10127977      -0.72702471      -0.79670166
C        1.81790745       0.44791305      -0.27765948
O        2.21885264       0.57895560       0.85321519
H       -1.55508593       0.31143968       1.50752682
H       -0.64330063       1.33957131       0.39749301
H       -2.18120772       0.64612110      -0.11542410
H       -1.20642011      -1.67229785      -0.04467007
H        0.44072087      -1.21512823       0.53835414
H        1.97503517       1.22982481      -1.05428568
12
Frame=8 idx=001051 GeodesicLength=0.4939024294060442 rxn_smarts="[C:1]([C@@:2]1([H:10])[O:3][C@:4]1([C:5](=[O:6])[H:12])[H:11])([H:7])([H:8])[H:9]>>[C:1]([C:2]([O+:3]=[C:4]=[C:5]([O-:6])[H:12])([H:10])[H:11])([H:7])([H:8])[H:9]"
C       -1.27608177       0.46084577       0.45478482
C       -0.58976307      -0.77389213      -0.05867324
O       -0.10089203      -0.63152853      -1.40613321
C        1.09906863      -0.72553202      -0.79246969
C        1.82001218       0.44661131      -0.27417574
O        2.25413038       0.55140439       0.84703795
H       -1.55429593       0.32653456       1.50096269
H       -0.64595837       1.34570544       0.37996477
H       -2.18233989       0.64558664      -0.12395403
H       -1.21125602      -1.66839261      -0.03711290
H        0.45807460      -1.23546879       0.53756790
H        1.92930131       1.25812597      -1.02779932
12
Frame=9 idx=001051 GeodesicLength=0.5565747064792278 rxn_smarts="[C:1]([C@@:2]1([H:10])[O:3][C@:4]1([C:5](=[O:6])[H:12])[H:11])([H:7])([H:8])[H:9]>>[C:1]([C:2]([O+:3]=[C:4]=[C:5]([O-:6])[H:12])([H:10])[H:11])([H:7])([H:8])[H:9]"
C       -1.27672634       0.46583856       0.44647784
C       -0.58922275      -0.77344020      -0.05482703
O       -0.10033114      -0.64152665      -1.40354846
C        1.09671537      -0.72370380      -0.78822795
C        1.82180786       0.44570800      -0.27078812
O        2.29050332       0.52401042       0.83842691
H       -1.55395145       0.34177784       1.49416017
H       -0.64934673       1.35188056       0.36222324
H       -2.18394930       0.64473313      -0.13255483
H       -1.21563465      -1.66435377      -0.02916717
H        0.47594364      -1.25574170       0.53632304
H        1.88419219       1.28481761      -0.99849764
12
Frame=10 idx=001051 GeodesicLength=0.6194809683557994 rxn_smarts="[C:1]([C@@:2]1([H:10])[O:3][C@:4]1([C:5](=[O:6])[H:12])[H:11])([H:7])([H:8])[H:9]>>[C:1]([C:2]([O+:3]=[C:4]=[C:5]([O-:6])[H:12])([H:10])[H:11])([H:7])([H:8])[H:9]"
C       -1.27788783       0.47086700       0.43806436
C       -0.58878505      -0.77271928      -0.05082877
O       -0.09995003      -0.65120252      -1.40079551
C        1.09417932      -0.72152921      -0.78396632
C        1.82333328       0.44526082      -0.26736955
O        2.32793987       0.49689895       0.82741942
H       -1.55395219       0.35718593       1.48722932
H       -0.65352741       1.35818665       0.34412676
H       -2.18619306       0.64346277      -0.14118310
H       -1.21968088      -1.66032045      -0.02084741
H        0.49429462      -1.27603506       0.53465678
H        1.84022937       1.30994440      -0.96650599
12
Frame=11 idx=001051 GeodesicLength=0.6827684463031773 rxn_smarts="[C:1]([C@@:2]1([H:10])[O:3][C@:4]1([C:5](=[O:6])[H:12])[H:11])([H:7])([H:8])[H:9]>>[C:1]([C:2]([O+:3]=[C:4]=[C:5]([O-:6])[H:12])([H:10])[H:11])([H:7])([H:8])[H:9]"
C       -1.27960922       0.47593352       0.42953862
C       -0.58852683      -0.77178742      -0.04665485
O       -0.09981260      -0.66058519      -1.39794146
C        1.09144440      -0.71905510      -0.77963359
C        1.82469558       0.44530251      -0.26381342
O        2.36668956       0.47021196       0.81394467
H       -1.55446135       0.37269018       1.48020484
H       -0.65842593       1.36467437       0.32577693
H       -2.18908610       0.64184305      -0.15001259
H       -1.22355129      -1.65642518      -0.01214937
H        0.51310398      -1.29643890       0.53267873
H        1.79753980       1.33363621      -0.93193852
12
Frame=12 idx=001051 GeodesicLength=0.745971480836484 rxn_smarts="[C:1]([C@@:2]1([H:10])[O:3][C@:4]1([C:5](=[O:6])[H:12])[H:11])([H:7])([H:8])[H:9]>>[C:1]([C:2]([O+:3]=[C:4]=[C:5]([O-:6])[H:12])([H:10])[H:11])([H:7])([H:8])[H:9]"
C       -1.28191628       0.48101431       0.42088044
C       -0.58830079      -0.77039977      -0.04235055
O       -0.09960688      -0.66943027      -1.39470507
C        1.08867037      -0.71608334      -0.77518822
C        1.82572456       0.44556713      -0.25993109
O        2.40579550       0.44370084       0.79788781
H       -1.55489304       0.38864375       1.47301521
H       -0.66456181       1.37116529       0.30641843
H       -2.19294484       0.63941146      -0.15830325
H       -1.22694066      -1.65215755      -0.00310618
H        0.53245848      -1.31683092       0.52993669
H        1.75651539       1.35539907      -0.89455422
12
Frame=13 idx=001051 GeodesicLength=0.8094653626464077 rxn_smarts="[C:1]([C@@:2]1([H:10])[O:3][C@:4]1([C:5](=[O:6])[H:12])[H:11])([H:7])([H:8])[H:9]>>[C:1]([C:2]([O+:3]=[C:4]=[C:5]([O-:6])[H:12])([H:10])[H:11])([H:7])([H:8])[H:9]"
C       -1.28476872       0.48614799       0.41206722
C       -0.58820051      -0.76875418      -0.03780421
O       -0.09951175      -0.67809814      -1.39118442
C        1.08566130      -0.71293983      -0.77044744
C        1.82649132       0.44616476      -0.25575931
O        2.44652249       0.41765334       0.77859826
H       -1.55645016       0.40460969       1.46543065
H       -0.67122106       1.37766359       0.28734992
H       -2.19698868       0.63693960      -0.16723186
H       -1.23001743      -1.64794148       0.00633669
H        0.55227751      -1.33712291       0.52698368
H        1.71620570       1.37567757      -0.85433917
12
Frame=14 idx=001051 GeodesicLength=0.8733533096781851 rxn_smarts="[C:1]([C@@:2]1([H:10])[O:3][C@:4]1([C:5](=[O:6])[H:12])[H:11])([H:7])([H:8])[H:9]>>[C:1]([C:2]([O+:3]=[C:4]=[C:5]([O-:6])[H:12])([H:10])[H:11])([H:7])([H:8])[H:9]"
C       -1.28823893       0.49134998       0.40309073
C       -0.58831324      -0.76688895      -0.03305676
O       -0.09958982      -0.68644444      -1.38746390
C        1.08249445      -0.70955751      -0.76544199
C        1.82716520       0.44709199      -0.25109170
O        2.48841881       0.39221779       0.75633419
H       -1.55857015       0.42076097       1.45766461
H       -0.67868326       1.38435471       0.26789316
H       -2.20175041       0.63413282      -0.17638189
H       -1.23296576      -1.64386547       0.01614939
H        0.57260592      -1.35764577       0.52368780
H        1.67742719       1.39449386      -0.81138365
12
Frame=15 idx=001051 GeodesicLength=0.9370453459065721 rxn_smarts="[C:1]([C@@:2]1([H:10])[O:3][C@:4]1([C:5](=[O:6])[H:12])[H:11])([H:7])([H:8])[H:9]>>[C:1]([C:2]([O+:3]=[C:4]=[C:5]([O-:6])[H:12])([H:10])[H:11])([H:7])([H:8])[H:9]"
C       -1.29233577       0.49654714       0.39395550
C       -0.58850421      -0.76452677      -0.02812318
O       -0.09944352      -0.69427234      -1.38326254
C        1.07930983      -0.70573252      -0.76010107
C        1.82753525       0.44809316      -0.24576847
O        2.53066109       0.36721620       0.73080140
H       -1.56107798       0.43729879       1.44959129
H       -0.68726601       1.39088247       0.24765202
H       -2.20725215       0.63062942      -0.18525073
H       -1.23548565      -1.63934817       0.02633222
H        0.59344218      -1.37806002       0.51968900
H        1.64041694       1.41127263      -0.76551544
12
Frame=16 idx=001051 GeodesicLength=1.0008467532162155 rxn_smarts="[C:1]([C@@:2]1([H:10])[O:3][C@:4]1([C:5](=[O:6])[H:12])[H:11])([H:7])([H:8])[H:9]>>[C:1]([C:2]([O+:3]=[C:4]=[C:5]([O-:6])[H:12])([H:10])[H:11])([H:7])([H:8])[H:9]"
C       -1.29695263       0.50181091       0.38468032
C       -0.58889208      -0.76191776      -0.02299226
O       -0.09935579      -0.70183038      -1.37879363
C        1.07595712      -0.70179125      -0.75434708
C        1.82778644       0.44924943      -0.23980032
O        2.57353116       0.34330618       0.70196458
H       -1.56434550       0.45394328       1.44124207
H       -0.69642643       1.39745947       0.22735124
H       -2.21313941       0.62699741      -0.19448094
H       -1.23785881      -1.63487715       0.03679667
H        0.61477056      -1.39864839       0.51534030
H        1.60492537       1.42629826      -0.71696094
