15
Frame=0 idx=001361 GeodesicLength=0.0 rxn_smarts="[C:1]([C:2]([C:3]([H:11])([H:12])[H:13])([N:4]([C:5](=[O:6])[H:15])[H:14])[H:10])([H:7])([H:8])[H:9]>>[C:1]([C:2]([C:3]([H:11])([H:12])[H:13])([O:6]/[C:5](=[N:4]/[H:14])[H:15])[H:10])([H:7])([H:8])[H:9]"
C       -1.21263117       0.11682425       1.07793798
C       -0.41465465      -0.59806758       0.05230306
C       -0.70895075      -0.46437522      -1.39552430
N        1.06882260       1.08652099      -0.04568571
C        2.00056967       0.28750925       0.35518268
O        1.73808950      -0.91217653       0.59602516
H       -2.11731352      -0.48258798       1.25088481
H       -1.48971440       1.12137114       0.76919452
H       -0.67312879       0.15991813       2.02247139
H       -0.17679082      -1.61110832       0.33752138
H        0.14687385      -0.77480174      -1.99263443
H       -0.99912990       0.54567554      -1.67286494
H       -1.52698936      -1.16330502      -1.61877643
H        1.33083184       2.04801773      -0.22873142
H        3.03411585       0.64058535       0.49269620
15
Frame=1 idx=001361 GeodesicLength=0.048100939021895994 rxn_smarts="[C:1]([C:2]([C:3]([H:11])([H:12])[H:13])([N:4]([C:5](=[O:6])[H:15])[H:14])[H:10])([H:7])([H:8])[H:9]>>[C:1]([C:2]([C:3]([H:11])([H:12])[H:13])([O:6]/[C:5](=[N:4]/[H:14])[H:15])[H:10])([H:7])([H:8])[H:9]"
C       -1.20699337       0.11059415       1.07844159
C       -0.39651550      -0.59217099       0.05071151
C       -0.70952820      -0.46145757      -1.39590598
N        1.06567495       1.08463115      -0.04952823
C        1.99259373       0.29896417       0.38976091
O        1.73084490      -0.90497073       0.61590254
H       -2.11492695      -0.48708437       1.23677755
H       -1.47988386       1.11893932       0.77764522
H       -0.67555299       0.14451958       2.02805137
H       -0.17621936      -1.61243993       0.32800949
H        0.13632657      -0.78072788      -2.00274758
H       -0.99383939       0.55086533      -1.67197059
H       -1.53813924      -1.15021578      -1.60920637
H        1.33276122       2.03785007      -0.26337672
H        3.03339751       0.64270348       0.48743531
15
Frame=2 idx=001361 GeodesicLength=0.09446627609138183 rxn_smarts="[C:1]([C:2]([C:3]([H:11])([H:12])[H:13])([N:4]([C:5](=[O:6])[H:15])[H:14])[H:10])([H:7])([H:8])[H:9]>>[C:1]([C:2]([C:3]([H:11])([H:12])[H:13])([O:6]/[C:5](=[N:4]/[H:14])[H:15])[H:10])([H:7])([H:8])[H:9]"
C       -1.20235380       0.10442848       1.07901917
C       -0.37879386      -0.58617777       0.04988473
C       -0.70915498      -0.45848440      -1.39561175
N        1.06214455       1.08329111      -0.05159983
C        1.98623186       0.30888529       0.41539000
O        1.72308913      -0.89682184       0.63710312
H       -2.11346490      -0.49135152       1.22231232
H       -1.47097421       1.11645125       0.78607897
H       -0.67962296       0.12912621       2.03385676
H       -0.17545346      -1.61307830       0.31952491
H        0.12715433      -0.78638330      -2.01127392
H       -0.98760909       0.55593996      -1.67079536
H       -1.54769915      -1.13718772      -1.59963029
H        1.33440848       2.02738762      -0.29508949
H        3.03209806       0.64397493       0.48083066
15
Frame=3 idx=001361 GeodesicLength=0.1398639988012994 rxn_smarts="[C:1]([C:2]([C:3]([H:11])([H:12])[H:13])([N:4]([C:5](=[O:6])[H:15])[H:14])[H:10])([H:7])([H:8])[H:9]>>[C:1]([C:2]([C:3]([H:11])([H:12])[H:13])([O:6]/[C:5](=[N:4]/[H:14])[H:15])[H:10])([H:7])([H:8])[H:9]"
C       -1.19869009       0.09833807       1.07961974
C       -0.36146753      -0.58008609       0.04977566
C       -0.70782960      -0.45546995      -1.39476654
N        1.05817966       1.08259719      -0.05198488
C        1.98112435       0.31781025       0.43515121
O        1.71481204      -0.88798208       0.65951283
H       -2.11285746      -0.49541835       1.20746557
H       -1.46304498       1.11391574       0.79441861
H       -0.68528852       0.11378940       2.03982506
H       -0.17455231      -1.61311216       0.31199883
H        0.11940205      -0.79177997      -2.01835815
H       -0.98048502       0.56090009      -1.66945714
H       -1.55568434      -1.12428151      -1.59020625
H        1.33536497       2.01695342      -0.32388545
H        3.03101680       0.64382594       0.47089090
15
Frame=4 idx=001361 GeodesicLength=0.18501590266886525 rxn_smarts="[C:1]([C:2]([C:3]([H:11])([H:12])[H:13])([N:4]([C:5](=[O:6])[H:15])[H:14])[H:10])([H:7])([H:8])[H:9]>>[C:1]([C:2]([C:3]([H:11])([H:12])[H:13])([O:6]/[C:5](=[N:4]/[H:14])[H:15])[H:10])([H:7])([H:8])[H:9]"
C       -1.19510429       0.09228646       1.08022969
C       -0.34443851      -0.57403911       0.04980553
C       -0.70640580      -0.45245639      -1.39374121
N        1.05412010       1.08214607      -0.05217790
C        1.97640763       0.32650824       0.45255757
O        1.70643971      -0.87895020       0.68129420
H       -2.11221127      -0.49917292       1.19279969
H       -1.45521039       1.11135751       0.80287289
H       -0.69101745       0.09834587       2.04559196
H       -0.17340533      -1.61276432       0.30466966
H        0.11176677      -0.79706695      -2.02495793
H       -0.97336164       0.56575965      -1.66808792
H       -1.56321215      -1.11140563      -1.58079053
H        1.33633038       2.00574580      -0.35245761
H        3.02930223       0.64370592       0.46239193
15
Frame=5 idx=001361 GeodesicLength=0.22984634459920011 rxn_smarts="[C:1]([C:2]([C:3]([H:11])([H:12])[H:13])([N:4]([C:5](=[O:6])[H:15])[H:14])[H:10])([H:7])([H:8])[H:9]>>[C:1]([C:2]([C:3]([H:11])([H:12])[H:13])([O:6]/[C:5](=[N:4]/[H:14])[H:15])[H:10])([H:7])([H:8])[H:9]"
C       -1.19199455       0.08632459       1.08079031
C       -0.32771667      -0.56796215       0.05021489
C       -0.70445508      -0.44947623      -1.39242496
N        1.04983218       1.08213238      -0.05160439
C        1.97221288       0.33491915       0.46762200
O        1.69780646      -0.86949211       0.70328239
H       -2.11190304      -0.50265928       1.17802894
H       -1.44789552       1.10878176       0.81123233
H       -0.69749203       0.08296826       2.05123864
H       -0.17205557      -1.61197347       0.29788768
H        0.10491971      -0.80225069      -2.03069215
H       -0.96578839       0.57046147      -1.66670623
H       -1.56976757      -1.09867184      -1.57150630
H        1.33669630       1.99450757      -0.37905048
H        3.02760089       0.64239058       0.45168733
15
Frame=6 idx=001361 GeodesicLength=0.2746590699170616 rxn_smarts="[C:1]([C:2]([C:3]([H:11])([H:12])[H:13])([N:4]([C:5](=[O:6])[H:15])[H:14])[H:10])([H:7])([H:8])[H:9]>>[C:1]([C:2]([C:3]([H:11])([H:12])[H:13])([O:6]/[C:5](=[N:4]/[H:14])[H:15])[H:10])([H:7])([H:8])[H:9]"
C       -1.18860828       0.08043916       1.08129941
C       -0.31125133      -0.56199045       0.05051888
C       -0.70273367      -0.44657989      -1.39109629
N        1.04560132       1.08212821      -0.05148260
C        1.96800506       0.34335503       0.48183548
O        1.68925308      -0.86006580       0.72399783
H       -2.11123086      -0.50571465       1.16361386
H       -1.44029089       1.10621909       0.81967395
H       -0.70343535       0.06751549       2.05649333
H       -0.17048477      -1.61091756       0.29105045
H        0.09767343      -0.80750774      -2.03630915
H       -0.95849760       0.57499334      -1.66541047
H       -1.57633465      -1.08596462      -1.56217273
H        1.33715047       1.98240528      -0.40575643
H        3.02518405       0.64168512       0.44374449
15
Frame=7 idx=001361 GeodesicLength=0.31938708595618026 rxn_smarts="[C:1]([C:2]([C:3]([H:11])([H:12])[H:13])([N:4]([C:5](=[O:6])[H:15])[H:14])[H:10])([H:7])([H:8])[H:9]>>[C:1]([C:2]([C:3]([H:11])([H:12])[H:13])([O:6]/[C:5](=[N:4]/[H:14])[H:15])[H:10])([H:7])([H:8])[H:9]"
C       -1.18520795       0.07463052       1.08176732
C       -0.29504496      -0.55608706       0.05085690
C       -0.70099760      -0.44375109      -1.38969604
N        1.04134997       1.08227015      -0.05145333
C        1.96388462       0.35177732       0.49510108
O        1.68069529      -0.85055574       0.74397195
H       -2.11045902      -0.50841029       1.14941987
H       -1.43267092       1.10367659       0.82815095
H       -0.70928562       0.05202413       2.06146310
H       -0.16871240      -1.60960311       0.28434220
H        0.09042421      -0.81279059      -2.04162190
H       -0.95125456       0.57938323      -1.66419162
H       -1.58261597      -1.07332875      -1.55286890
H        1.33747403       1.96979071      -0.43190603
H        3.02242089       0.64097398       0.43666445
15
Frame=8 idx=001361 GeodesicLength=0.36410401193300795 rxn_smarts="[C:1]([C:2]([C:3]([H:11])([H:12])[H:13])([N:4]([C:5](=[O:6])[H:15])[H:14])[H:10])([H:7])([H:8])[H:9]>>[C:1]([C:2]([C:3]([H:11])([H:12])[H:13])([O:6]/[C:5](=[N:4]/[H:14])[H:15])[H:10])([H:7])([H:8])[H:9]"
C       -1.18167628       0.06890300       1.08216485
C       -0.27908527      -0.55025987       0.05115158
C       -0.69935428      -0.44100894      -1.38826135
N        1.03710767       1.08247450      -0.05166807
C        1.95973776       0.36023855       0.50769926
O        1.67216592      -0.84100529       0.76304808
H       -2.10947403      -0.51071934       1.13547553
H       -1.42490210       1.10113740       0.83664897
H       -0.71485102       0.03650953       2.06608064
H       -0.16676102      -1.60804025       0.27768079
H        0.08299078      -0.81813733      -2.04671008
H       -0.94414985       0.58359694      -1.66306239
H       -1.58874852      -1.06075347      -1.54357728
H        1.33774307       1.95657298      -0.45760824
H        3.01925718       0.64049159       0.43093771
15
Frame=9 idx=001361 GeodesicLength=0.40885033250826364 rxn_smarts="[C:1]([C:2]([C:3]([H:11])([H:12])[H:13])([N:4]([C:5](=[O:6])[H:15])[H:14])[H:10])([H:7])([H:8])[H:9]>>[C:1]([C:2]([C:3]([H:11])([H:12])[H:13])([O:6]/[C:5](=[N:4]/[H:14])[H:15])[H:10])([H:7])([H:8])[H:9]"
C       -1.17792871       0.06323142       1.08252130
C       -0.26335758      -0.54454005       0.05131970
C       -0.69792259      -0.43833224      -1.38684454
N        1.03292873       1.08268174      -0.05230474
C        1.95544995       0.36881338       0.51995570
O        1.66373967      -0.83151717       0.78107096
H       -2.10823303      -0.51263543       1.12185399
H       -1.41686308       1.09861617       0.84525396
H       -0.71998867       0.02087191       2.07035414
H       -0.16463382      -1.60630712       0.27095837
H        0.07519146      -0.82354084      -2.05172433
H       -0.93730486       0.58768743      -1.66203228
H       -1.59489970      -1.04818587      -1.53427004
H        1.33816651       1.94250875      -0.48342541
H        3.01565571       0.64064792       0.42731324
15
Frame=10 idx=001361 GeodesicLength=0.45356733821302764 rxn_smarts="[C:1]([C:2]([C:3]([H:11])([H:12])[H:13])([N:4]([C:5](=[O:6])[H:15])[H:14])[H:10])([H:7])([H:8])[H:9]>>[C:1]([C:2]([C:3]([H:11])([H:12])[H:13])([O:6]/[C:5](=[N:4]/[H:14])[H:15])[H:10])([H:7])([H:8])[H:9]"
C       -1.17414394       0.05765144       1.08280550
C       -0.24786574      -0.53889209       0.05148026
C       -0.69650614      -0.43575435      -1.38539056
N        1.02874886       1.08295475      -0.05308803
C        1.95116532       0.37739140       0.53158383
O        1.65532296      -0.82199647       0.79843300
H       -2.10689118      -0.51417915       1.10843376
H       -1.40875726       1.09611241       0.85384296
H       -0.72499792       0.00524275       2.07431490
H       -0.16236876      -1.60437305       0.26434971
H        0.06733347      -0.82902842      -2.05647363
H       -0.93050286       0.59160265      -1.66111264
H       -1.60082932      -1.03569754      -1.52500849
H        1.33843961       1.92807950      -0.50841737
H        3.01185290       0.64088617       0.42424681
15
Frame=11 idx=001361 GeodesicLength=0.4982544038550924 rxn_smarts="[C:1]([C:2]([C:3]([H:11])([H:12])[H:13])([N:4]([C:5](=[O:6])[H:15])[H:14])[H:10])([H:7])([H:8])[H:9]>>[C:1]([C:2]([C:3]([H:11])([H:12])[H:13])([O:6]/[C:5](=[N:4]/[H:14])[H:15])[H:10])([H:7])([H:8])[H:9]"
C       -1.17022077       0.05218779       1.08300417
C       -0.23261053      -0.53335261       0.05154894
C       -0.69522054      -0.43332248      -1.38395194
N        1.02461825       1.08319229      -0.05422504
C        1.94680290       0.38597350       0.54272988
O        1.64697927      -0.81256744       0.81488855
H       -2.10536376      -0.51531096       1.09531312
H       -1.40047845       1.09364660       0.86238009
H       -0.72968022      -0.01031530       2.07791157
H       -0.16001581      -1.60229260       0.25779107
H        0.05924118      -0.83468433      -2.06106163
H       -0.92383196       0.59530365      -1.66035175
H       -1.60668803      -1.02331000      -1.51576676
H        1.33865804       1.91335226      -0.53257797
H        3.00781044       0.64149962       0.42236771
15
Frame=12 idx=001361 GeodesicLength=0.5428429403440306 rxn_smarts="[C:1]([C:2]([C:3]([H:11])([H:12])[H:13])([N:4]([C:5](=[O:6])[H:15])[H:14])[H:10])([H:7])([H:8])[H:9]>>[C:1]([C:2]([C:3]([H:11])([H:12])[H:13])([O:6]/[C:5](=[N:4]/[H:14])[H:15])[H:10])([H:7])([H:8])[H:9]"
C       -1.16641467       0.04685516       1.08311135
C       -0.21759238      -0.52786408       0.05171288
C       -0.69378748      -0.43103304      -1.38243972
N        1.02043672       1.08352377      -0.05528503
C        1.94258881       0.39442063       0.55302865
O        1.63858062      -0.80307253       0.83098381
H       -2.10386950      -0.51609691       1.08232024
H       -1.39232384       1.09120640       0.87077609
H       -0.73447098      -0.02571354       2.08122805
H       -0.15758666      -1.60001877       0.25150345
H        0.05136776      -0.84045517      -2.06523744
H       -0.91702844       0.59877416      -1.65971974
H       -1.61213071      -1.01109080      -1.50663627
H        1.33844985       1.89887491      -0.55510745
H        3.00378090       0.64168981       0.41976113
15
Frame=13 idx=001361 GeodesicLength=0.5874075643837297 rxn_smarts="[C:1]([C:2]([C:3]([H:11])([H:12])[H:13])([N:4]([C:5](=[O:6])[H:15])[H:14])[H:10])([H:7])([H:8])[H:9]>>[C:1]([C:2]([C:3]([H:11])([H:12])[H:13])([O:6]/[C:5](=[N:4]/[H:14])[H:15])[H:10])([H:7])([H:8])[H:9]"
C       -1.16251444       0.04162778       1.08313994
C       -0.20279587      -0.52247703       0.05180669
C       -0.69244906      -0.42888156      -1.38093752
N        1.01629061       1.08381940      -0.05661921
C        1.93831431       0.40285381       0.56290683
O        1.63024211      -0.79366373       0.84631728
H       -2.10223781      -0.51650929       1.06959640
H       -1.38403787       1.08879276       0.87911885
H       -0.73901030      -0.04103822       2.08421221
H       -0.15509314      -1.59762538       0.24528685
H        0.04332108      -0.84637949      -2.06923196
H       -0.91031494       0.60204066      -1.65923687
H       -1.61747157      -0.99896818      -1.49755110
H        1.33817780       1.88426195      -0.57679514
H        2.99957908       0.64214652       0.41798676
15
Frame=14 idx=001361 GeodesicLength=0.6319149603761005 rxn_smarts="[C:1]([C:2]([C:3]([H:11])([H:12])[H:13])([N:4]([C:5](=[O:6])[H:15])[H:14])[H:10])([H:7])([H:8])[H:9]>>[C:1]([C:2]([C:3]([H:11])([H:12])[H:13])([O:6]/[C:5](=[N:4]/[H:14])[H:15])[H:10])([H:7])([H:8])[H:9]"
C       -1.15860304       0.03651795       1.08308715
C       -0.18822110      -0.51717767       0.05188965
C       -0.69111773      -0.42687750      -1.37942052
N        1.01215000       1.08410554      -0.05808957
C        1.93405835       0.41120540       0.57224859
O        1.62192882      -0.78431623       0.86105092
H       -2.10053948      -0.51657181       1.05709770
H       -1.37572485       1.08640465       0.88736010
H       -0.74342718      -0.05622793       2.08689025
H       -0.15256095      -1.59511031       0.23921781
H        0.03525317      -0.85244393      -2.07296775
H       -0.90360954       0.60508716      -1.65889655
H       -1.62260109      -0.98698215      -1.48854768
H        1.33771551       1.86977577      -0.59733618
H        2.99529911       0.64261105       0.41641606
15
Frame=15 idx=001361 GeodesicLength=0.6764058102949826 rxn_smarts="[C:1]([C:2]([C:3]([H:11])([H:12])[H:13])([N:4]([C:5](=[O:6])[H:15])[H:14])[H:10])([H:7])([H:8])[H:9]>>[C:1]([C:2]([C:3]([H:11])([H:12])[H:13])([O:6]/[C:5](=[N:4]/[H:14])[H:15])[H:10])([H:7])([H:8])[H:9]"
C       -1.15460131       0.03150310       1.08296164
C       -0.17385554      -0.51198490       0.05189327
C       -0.68988972      -0.42500696      -1.37792068
N        1.00804649       1.08433184      -0.05982225
C        1.92972446       0.41953859       0.58125150
O        1.61368566      -0.77508340       0.87506557
H       -2.09871896      -0.51628356       1.04486731
H       -1.36727465       1.08403392       0.89555289
H       -0.74759493      -0.07134629       2.08925210
H       -0.14999357      -1.59250771       0.23320817
H        0.02699885      -0.85866079      -2.07653549
H       -0.89699033       0.60793772      -1.65870333
H       -1.62765286      -0.97507735      -1.47959622
H        1.33723648       1.85521931      -0.61712124
H        2.99087994       0.64338649       0.41564676
15
Frame=16 idx=001361 GeodesicLength=0.7208275304290943 rxn_smarts="[C:1]([C:2]([C:3]([H:11])([H:12])[H:13])([N:4]([C:5](=[O:6])[H:15])[H:14])[H:10])([H:7])([H:8])[H:9]>>[C:1]([C:2]([C:3]([H:11])([H:12])[H:13])([O:6]/[C:5](=[N:4]/[H:14])[H:15])[H:10])([H:7])([H:8])[H:9]"
C       -1.15069526       0.02659620       1.08276172
C       -0.15969728      -0.50685195       0.05196436
C       -0.68855813      -0.42326972      -1.37637184
N        1.00390550       1.08459909      -0.06150336
C        1.92550518       0.42773503       0.58963192
O        1.60541492      -0.76584103       0.88875584
H       -2.09692589      -0.51569923       1.03278152
H       -1.35891551       1.08167409       0.90363227
H       -0.75182660      -0.08631637       2.09135857
H       -0.14739021      -1.58978015       0.22742192
H        0.01890908      -0.86497686      -2.07975766
H       -0.89027727       0.61057711      -1.65862646
H       -1.63236769      -0.96332508      -1.47077000
H        1.33643725       1.84105225      -0.63559123
H        2.98648192       0.64382662       0.41431242
