14
Frame=0 idx=006599 GeodesicLength=0.0 rxn_smarts="[C:1](/[N:2]=[C:3]1/[C:4]([H:11])([H:12])[O:5][C:6]([H:13])([H:14])[O:7]1)([H:8])([H:9])[H:10]>>[C:1]([N:2]1[C:3](=[O:7])[C:4]1([H:11])[H:12])([H:8])([H:9])[H:10].[O:5]=[C:6]([H:13])[H:14]"
C        2.46416370      -0.17897009      -0.18227467
N        1.25682781       0.59741347       0.01716147
C        0.09615129       0.10866832      -0.28938658
C       -0.52628537       0.85385259       0.80299590
O       -2.36560421       0.68823813       0.12011347
C       -2.46531956      -0.44972188      -0.33635683
O       -0.39853666      -0.79499926      -0.97642999
H        2.73047414      -0.71386808       0.73376282
H        2.33010718      -0.91257331      -0.98235296
H        3.28945093       0.48780559      -0.43195687
H       -0.50664596       1.93099826       0.82024938
H       -0.68503335       0.33152370       1.74021041
H       -2.94309615      -0.60874836      -1.30870259
H       -2.27665377      -1.33961908       0.27296698
14
Frame=1 idx=006599 GeodesicLength=0.06772995386577213 rxn_smarts="[C:1](/[N:2]=[C:3]1/[C:4]([H:11])([H:12])[O:5][C:6]([H:13])([H:14])[O:7]1)([H:8])([H:9])[H:10]>>[C:1]([N:2]1[C:3](=[O:7])[C:4]1([H:11])[H:12])([H:8])([H:9])[H:10].[O:5]=[C:6]([H:13])[H:14]"
C        2.45782119      -0.18524241      -0.18198875
N        1.25389541       0.59797192      -0.00086211
C        0.09075607       0.11939806      -0.30763726
C       -0.52266104       0.88381288       0.77819121
O       -2.37277109       0.67520032       0.13117332
C       -2.45789693      -0.47141807      -0.31728753
O       -0.40999903      -0.81461715      -0.95237035
H        2.64808719      -0.84978841       0.66540643
H        2.39551544      -0.80051597      -1.08394329
H        3.31211981       0.48804796      -0.26065635
H       -0.50871856       1.96166145       0.76869985
H       -0.66188844       0.38831238       1.73344244
H       -2.94308084      -0.64240793      -1.28393416
H       -2.28117918      -1.35041503       0.31176654
14
Frame=2 idx=006599 GeodesicLength=0.13690091005132787 rxn_smarts="[C:1](/[N:2]=[C:3]1/[C:4]([H:11])([H:12])[O:5][C:6]([H:13])([H:14])[O:7]1)([H:8])([H:9])[H:10]>>[C:1]([N:2]1[C:3](=[O:7])[C:4]1([H:11])[H:12])([H:8])([H:9])[H:10].[O:5]=[C:6]([H:13])[H:14]"
C        2.45042364      -0.19173875      -0.18220516
N        1.25089810       0.60028502      -0.02108529
C        0.08544303       0.13112793      -0.32795462
C       -0.51851461       0.91260786       0.75272394
O       -2.37877215       0.66155336       0.14462775
C       -2.44929811      -0.49283128      -0.29750303
O       -0.42018271      -0.83141894      -0.92993595
H        2.56870638      -0.96965061       0.57710333
H        2.46815675      -0.68238243      -1.15926755
H        3.31704700       0.46471623      -0.08974739
H       -0.51128072       1.99053045       0.71822989
H       -0.63694209       0.44317640       1.72434045
H       -2.94223109      -0.67428695      -1.25833019
H       -2.28345344      -1.36168828       0.34900382
14
Frame=3 idx=006599 GeodesicLength=0.20604733124849312 rxn_smarts="[C:1](/[N:2]=[C:3]1/[C:4]([H:11])([H:12])[O:5][C:6]([H:13])([H:14])[O:7]1)([H:8])([H:9])[H:10]>>[C:1]([N:2]1[C:3](=[O:7])[C:4]1([H:11])[H:12])([H:8])([H:9])[H:10].[O:5]=[C:6]([H:13])[H:14]"
C        2.44350283      -0.19813584      -0.18315894
N        1.24788501       0.60107734      -0.03861160
C        0.08062680       0.14010296      -0.34594664
C       -0.51487580       0.94013822       0.72753909
O       -2.38358948       0.64900121       0.15749924
C       -2.44046806      -0.51294988      -0.27810937
O       -0.42932673      -0.84853165      -0.90537903
H        2.50045141      -1.07398894       0.46879818
H        2.54670403      -0.55835092      -1.21034222
H        3.30423926       0.42203199       0.07399901
H       -0.51395579       2.01748632       0.66746473
H       -0.61422080       0.49813507       1.71456474
H       -2.93977732      -0.70431765      -1.23374782
H       -2.28719535      -1.37169822       0.38543061
14
Frame=4 idx=006599 GeodesicLength=0.2754428821129225 rxn_smarts="[C:1](/[N:2]=[C:3]1/[C:4]([H:11])([H:12])[O:5][C:6]([H:13])([H:14])[O:7]1)([H:8])([H:9])[H:10]>>[C:1]([N:2]1[C:3](=[O:7])[C:4]1([H:11])[H:12])([H:8])([H:9])[H:10].[O:5]=[C:6]([H:13])[H:14]"
C        2.43632093      -0.20412998      -0.18438344
N        1.24461389       0.60271550      -0.05954549
C        0.07571978       0.14782307      -0.36506356
C       -0.51052328       0.96596495       0.70161763
O       -2.38714850       0.63665618       0.17239219
C       -2.43151127      -0.53218988      -0.25786372
O       -0.43853837      -0.86466001      -0.88164307
H        2.43986237      -1.15975381       0.34657847
H        2.63223816      -0.43327454      -1.23529816
H        3.27353272       0.36097086       0.23074892
H       -0.51637127       2.04217814       0.61705455
H       -0.58984687       0.55118375       1.70269541
H       -2.93751912      -0.73192999      -1.20830417
H       -2.29082917      -1.38155422       0.42101442
14
Frame=5 idx=006599 GeodesicLength=0.34454923446383723 rxn_smarts="[C:1](/[N:2]=[C:3]1/[C:4]([H:11])([H:12])[O:5][C:6]([H:13])([H:14])[O:7]1)([H:8])([H:9])[H:10]>>[C:1]([N:2]1[C:3](=[O:7])[C:4]1([H:11])[H:12])([H:8])([H:9])[H:10].[O:5]=[C:6]([H:13])[H:14]"
C        2.42913544      -0.21011991      -0.18578270
N        1.24129841       0.60422955      -0.08216840
C        0.07090211       0.15399200      -0.38453613
C       -0.50584162       0.99103176       0.67442844
O       -2.38957777       0.62472213       0.18853027
C       -2.42237860      -0.55088278      -0.23624677
O       -0.44789806      -0.87981882      -0.85850083
H        2.38895886      -1.22875833       0.20871123
H        2.72416460      -0.30552389      -1.23410483
H        3.22431488       0.28090261       0.37996643
H       -0.51877940       2.06547182       0.56503830
H       -0.56473113       0.60444464       1.68863989
H       -2.93572402      -0.75872846      -1.18106325
H       -2.29384370      -1.39096233       0.45708834
14
Frame=6 idx=006599 GeodesicLength=0.41342675648754784 rxn_smarts="[C:1](/[N:2]=[C:3]1/[C:4]([H:11])([H:12])[O:5][C:6]([H:13])([H:14])[O:7]1)([H:8])([H:9])[H:10]>>[C:1]([N:2]1[C:3](=[O:7])[C:4]1([H:11])[H:12])([H:8])([H:9])[H:10].[O:5]=[C:6]([H:13])[H:14]"
C        2.42161088      -0.21561375      -0.18749985
N        1.23780952       0.60667282      -0.11031245
C        0.06581261       0.15889570      -0.40604644
C       -0.50004765       1.01494821       0.64540333
O       -2.39047968       0.61297915       0.20726187
C       -2.41305862      -0.56905712      -0.21251135
O       -0.45794931      -0.89406847      -0.83697498
H        2.34798185      -1.27810889       0.05801728
H        2.82320345      -0.17844894      -1.20346054
H        3.15346297       0.18241490       0.51979520
H       -0.52083978       2.08703874       0.51169726
H       -0.53672374       0.65682079       1.67156413
H       -2.93512233      -0.78422334      -1.15096729
H       -2.29566018      -1.40024982       0.49403382
14
Frame=7 idx=006599 GeodesicLength=0.48009359179282357 rxn_smarts="[C:1](/[N:2]=[C:3]1/[C:4]([H:11])([H:12])[O:5][C:6]([H:13])([H:14])[O:7]1)([H:8])([H:9])[H:10]>>[C:1]([N:2]1[C:3](=[O:7])[C:4]1([H:11])[H:12])([H:8])([H:9])[H:10].[O:5]=[C:6]([H:13])[H:14]"
C        2.41468640      -0.22014681      -0.18975376
N        1.23422326       0.60857111      -0.14153542
C        0.06075751       0.16049833      -0.42701016
C       -0.49352721       1.03715041       0.61544706
O       -2.38985553       0.60231945       0.22726301
C       -2.40414653      -0.58595249      -0.18770166
O       -0.46848733      -0.90960319      -0.81399809
H        2.32274417      -1.30559691      -0.10214451
H        2.92377564      -0.05512736      -1.14271373
H        3.06355896       0.06896047       0.64114999
H       -0.52228093       2.10622739       0.45710763
H       -0.50762667       0.70844771       1.65247813
H       -2.93467024      -0.80726169      -1.12005373
H       -2.29915150      -1.40848642       0.53146525
14
Frame=8 idx=006599 GeodesicLength=0.5430073042019538 rxn_smarts="[C:1](/[N:2]=[C:3]1/[C:4]([H:11])([H:12])[O:5][C:6]([H:13])([H:14])[O:7]1)([H:8])([H:9])[H:10]>>[C:1]([N:2]1[C:3](=[O:7])[C:4]1([H:11])[H:12])([H:8])([H:9])[H:10].[O:5]=[C:6]([H:13])[H:14]"
C        2.40975519      -0.22456200      -0.19281842
N        1.23099381       0.60722991      -0.16802421
C        0.05670727       0.15709420      -0.44316506
C       -0.48782570       1.05864998       0.58491815
O       -2.38858296       0.59394457       0.24487049
C       -2.39603097      -0.60141275      -0.16255873
O       -0.47874798      -0.92781448      -0.78581672
H        2.31827128      -1.31042324      -0.27390560
H        3.01851394       0.06671468      -1.05244102
H        2.96229077      -0.06225782       0.73669197
H       -0.52360055       2.12354305       0.39863401
H       -0.48223606       0.76298889       1.63244235
H       -2.93315147      -0.82984722      -1.08950116
H       -2.30635656      -1.41384775       0.57067395
14
Frame=9 idx=006599 GeodesicLength=0.6075989001444415 rxn_smarts="[C:1](/[N:2]=[C:3]1/[C:4]([H:11])([H:12])[O:5][C:6]([H:13])([H:14])[O:7]1)([H:8])([H:9])[H:10]>>[C:1]([N:2]1[C:3](=[O:7])[C:4]1([H:11])[H:12])([H:8])([H:9])[H:10].[O:5]=[C:6]([H:13])[H:14]"
C        2.40329823      -0.22695477      -0.19518258
N        1.22737072       0.60913991      -0.20956127
C        0.05159567       0.15385805      -0.46589791
C       -0.47890023       1.07728285       0.55198651
O       -2.38428203       0.58456180       0.26950642
C       -2.38722172      -0.61645452      -0.13439255
O       -0.49083333      -0.94347694      -0.76415499
H        2.32734453      -1.28942249      -0.43830496
H        3.11082747       0.17047586      -0.92677848
H        2.83698426      -0.19903652       0.80853153
H       -0.52389428       2.13790164       0.34181414
H       -0.44780913       0.81167859       1.60760653
H       -2.93461591      -0.84841585      -1.05453449
H       -2.30986426      -1.42113761       0.60936209
14
Frame=10 idx=006599 GeodesicLength=0.6684103944376991 rxn_smarts="[C:1](/[N:2]=[C:3]1/[C:4]([H:11])([H:12])[O:5][C:6]([H:13])([H:14])[O:7]1)([H:8])([H:9])[H:10]>>[C:1]([N:2]1[C:3](=[O:7])[C:4]1([H:11])[H:12])([H:8])([H:9])[H:10].[O:5]=[C:6]([H:13])[H:14]"
C        2.40033729      -0.23012734      -0.19727567
N        1.22496458       0.60599910      -0.23572707
C        0.04899898       0.14581568      -0.47932635
C       -0.47281228       1.09622735       0.51990233
O       -2.38058012       0.57819281       0.28810722
C       -2.37910796      -0.62989196      -0.10791384
O       -0.50123409      -0.96106268      -0.73525209
H        2.35699989      -1.24355835      -0.60288646
H        3.18039316       0.26307078      -0.78172465
H        2.72126052      -0.34925538       0.84168387
H       -0.52519439       2.15086678       0.28058722
H       -0.42268991       0.86602555       1.58359134
H       -2.93325175      -0.86788297      -1.02258199
H       -2.31808392      -1.42441937       0.64881615
14
Frame=11 idx=006599 GeodesicLength=0.7347216464083062 rxn_smarts="[C:1](/[N:2]=[C:3]1/[C:4]([H:11])([H:12])[O:5][C:6]([H:13])([H:14])[O:7]1)([H:8])([H:9])[H:10]>>[C:1]([N:2]1[C:3](=[O:7])[C:4]1([H:11])[H:12])([H:8])([H:9])[H:10].[O:5]=[C:6]([H:13])[H:14]"
C        2.39507303      -0.23221573      -0.19710433
N        1.22241406       0.60557500      -0.27474854
C        0.04554784       0.13970857      -0.50017337
C       -0.46388070       1.11247318       0.48583709
O       -2.37347939       0.57018407       0.31427365
C       -2.36951771      -0.64321553      -0.07913799
O       -0.51358580      -0.97380120      -0.71698586
H        2.39955263      -1.17753121      -0.74430249
H        3.23460271       0.32940383      -0.61222985
H        2.59362412      -0.49164139       0.84709139
H       -0.52605128       2.16136212       0.22241112
H       -0.38877726       0.91379388       1.55492553
H       -2.93554260      -0.88324924      -0.98609851
H       -2.31997964      -1.43084635       0.68624217
14
Frame=12 idx=006599 GeodesicLength=0.800739654238626 rxn_smarts="[C:1](/[N:2]=[C:3]1/[C:4]([H:11])([H:12])[O:5][C:6]([H:13])([H:14])[O:7]1)([H:8])([H:9])[H:10]>>[C:1]([N:2]1[C:3](=[O:7])[C:4]1([H:11])[H:12])([H:8])([H:9])[H:10].[O:5]=[C:6]([H:13])[H:14]"
C        2.39229989      -0.23504275      -0.19593163
N        1.22086697       0.60199437      -0.30212432
C        0.04407010       0.13060493      -0.51415795
C       -0.45703051       1.12818443       0.45313673
O       -2.36671867       0.56427723       0.33678525
C       -2.36056095      -0.65497240      -0.05234959
O       -0.52468763      -0.98730478      -0.69415289
H        2.45417702      -1.09201836      -0.87014566
H        3.26373271       0.37598836      -0.43900162
H        2.48481483      -0.63362106       0.81888115
H       -0.52785105       2.16992150       0.16265784
H       -0.36159429       0.96419585       1.52700245
H       -2.93567082      -0.89744324      -0.95307153
H       -2.32584761      -1.43476409       0.72247177
14
Frame=13 idx=006599 GeodesicLength=0.8709771244515119 rxn_smarts="[C:1](/[N:2]=[C:3]1/[C:4]([H:11])([H:12])[O:5][C:6]([H:13])([H:14])[O:7]1)([H:8])([H:9])[H:10]>>[C:1]([N:2]1[C:3](=[O:7])[C:4]1([H:11])[H:12])([H:8])([H:9])[H:10].[O:5]=[C:6]([H:13])[H:14]"
C        2.38748175      -0.23764119      -0.19247717
N        1.21936813       0.59951711      -0.33687403
C        0.04210385       0.12325566      -0.53349924
C       -0.44843618       1.14178748       0.41936337
O       -2.35677641       0.55710487       0.36525861
C       -2.35020969      -0.66644359      -0.02451849
O       -0.53736495      -0.99666686      -0.68073253
H        2.51782800      -0.99621520      -0.96710008
H        3.27138386       0.39896113      -0.25866425
H        2.37802624      -0.76057899       0.76882710
H       -0.52966000       2.17659981       0.10576521
H       -0.32859749       1.00947939       1.49568966
H       -2.93864946      -0.90761541      -0.91710134
H       -2.32649765      -1.44154421       0.75606319
14
Frame=14 idx=006599 GeodesicLength=0.9410089794367318 rxn_smarts="[C:1](/[N:2]=[C:3]1/[C:4]([H:11])([H:12])[O:5][C:6]([H:13])([H:14])[O:7]1)([H:8])([H:9])[H:10]>>[C:1]([N:2]1[C:3](=[O:7])[C:4]1([H:11])[H:12])([H:8])([H:9])[H:10].[O:5]=[C:6]([H:13])[H:14]"
C        2.38353021      -0.24106360      -0.18800766
N        1.21843961       0.59529758      -0.36601797
C        0.04114449       0.11432806      -0.54947043
C       -0.44072220       1.15435637       0.38656731
O       -2.34613599       0.55103542       0.39310634
C       -2.34016461      -0.67664220       0.00205769
O       -0.54965383      -1.00598479      -0.66607042
H        2.58715157      -0.88984601      -1.04229782
H        3.25760440       0.40333995      -0.08442588
H        2.28930502      -0.87842875       0.69676422
H       -0.53202532       2.18134517       0.04904043
H       -0.29853339       1.05493557       1.46425156
H       -2.94072307      -0.91519887      -0.88329630
H       -2.32921688      -1.44747389       0.78779891
14
Frame=15 idx=006599 GeodesicLength=1.0128021165284524 rxn_smarts="[C:1](/[N:2]=[C:3]1/[C:4]([H:11])([H:12])[O:5][C:6]([H:13])([H:14])[O:7]1)([H:8])([H:9])[H:10]>>[C:1]([N:2]1[C:3](=[O:7])[C:4]1([H:11])[H:12])([H:8])([H:9])[H:10].[O:5]=[C:6]([H:13])[H:14]"
C        2.37839650      -0.24492972      -0.18215309
N        1.21777092       0.59085998      -0.39719233
C        0.04021233       0.10593473      -0.56752004
C       -0.43244251       1.16588905       0.35291868
O       -2.33296873       0.54482083       0.42381889
C       -2.32908252      -0.68634205       0.02937564
O       -0.56270066      -1.01320808      -0.65606380
H        2.66213268      -0.77597308      -1.09285534
H        3.22305802       0.38924892       0.08859216
H        2.20987606      -0.98487712       0.60675495
H       -0.53478069       2.18473841      -0.00711313
H       -0.26646567       1.09862802       1.43023804
H       -2.94399038      -0.92046799      -0.84745146
H       -2.32901534      -1.45432191       0.81865082
14
Frame=16 idx=006599 GeodesicLength=1.0851193839554254 rxn_smarts="[C:1](/[N:2]=[C:3]1/[C:4]([H:11])([H:12])[O:5][C:6]([H:13])([H:14])[O:7]1)([H:8])([H:9])[H:10]>>[C:1]([N:2]1[C:3](=[O:7])[C:4]1([H:11])[H:12])([H:8])([H:9])[H:10].[O:5]=[C:6]([H:13])[H:14]"
C        2.37302969      -0.24926810      -0.17566294
N        1.21733677       0.58531372      -0.42781987
C        0.03961035       0.09632599      -0.58480922
C       -0.42412858       1.17637328       0.31890518
O       -2.31785901       0.53924594       0.45594542
C       -2.31778122      -0.69506412       0.05698483
O       -0.57572876      -1.02064236      -0.64554948
H        2.74105465      -0.65396733      -1.12032437
H        3.16855661       0.35813097       0.25562986
H        2.14467889      -1.08097661       0.49872724
H       -0.53799003       2.18624974      -0.06387640
H       -0.23438131       1.14206206       1.39440649
H       -2.94689605      -0.92295700      -0.81155709
H       -2.32950198      -1.46082617       0.84900035
