11
Frame=0 idx=003060 GeodesicLength=0.0 rxn_smarts="[O:1]([C@@:2]1([H:8])[C:3]([H:9])([H:10])[C@:4]1([C:5]#[N:6])[H:11])[H:7]>>[O:1]=[C:2]([C:3]([C:4](=[C:5]=[N:6][H:7])[H:11])([H:9])[H:10])[H:8]"
O       -0.54853518       1.41114024      -0.78723361
C       -0.94107517       0.33849219      -0.24319032
C       -0.34342181      -0.99782533      -0.49069807
C        0.43148852      -0.63220258       0.76774294
C        1.34237617       0.34462382       0.57124616
N        1.75863623       1.32845993       0.05482135
H        0.67515048       1.71033113      -0.35722726
H       -1.75919925       0.38081516       0.48469750
H       -1.00166474      -1.84961825      -0.35299513
H        0.25296784      -1.06783168      -1.39527206
H        0.13327688      -0.96638459       1.74810854
11
Frame=1 idx=003060 GeodesicLength=0.08333839131117213 rxn_smarts="[O:1]([C@@:2]1([H:8])[C:3]([H:9])([H:10])[C@:4]1([C:5]#[N:6])[H:11])[H:7]>>[O:1]=[C:2]([C:3]([C:4](=[C:5]=[N:6][H:7])[H:11])([H:9])[H:10])[H:8]"
O       -0.56005078       1.40831266      -0.79116602
C       -0.94949546       0.33482755      -0.24225130
C       -0.34521881      -0.99887710      -0.49056700
C        0.42929922      -0.62788792       0.76531076
C        1.35569835       0.33822254       0.57472806
N        1.77383260       1.32430842       0.06315833
H        0.68071318       1.72150532      -0.36294668
H       -1.76824198       0.37539717       0.48514328
H       -0.99971370      -1.85342741      -0.35224366
H        0.25060482      -1.06178028      -1.39598127
H        0.13257256      -0.96060094       1.74681550
11
Frame=2 idx=003060 GeodesicLength=0.1666736309418197 rxn_smarts="[O:1]([C@@:2]1([H:8])[C:3]([H:9])([H:10])[C@:4]1([C:5]#[N:6])[H:11])[H:7]>>[O:1]=[C:2]([C:3]([C:4](=[C:5]=[N:6][H:7])[H:11])([H:9])[H:10])[H:8]"
O       -0.57193778       1.40548446      -0.79509153
C       -0.95811999       0.33111069      -0.24132591
C       -0.34701804      -0.99985573      -0.49043254
C        0.42708172      -0.62331236       0.76283208
C        1.36919309       0.33152773       0.57824957
N        1.78925505       1.32004324       0.07197826
H        0.68652162       1.73278058      -0.36916378
H       -1.77742850       0.36982309       0.48564524
H       -0.99761493      -1.85724470      -0.35143573
H        0.24816496      -1.05560324      -1.39668380
H        0.13190281      -0.95475376       1.74542816
11
Frame=3 idx=003060 GeodesicLength=0.24999368249642992 rxn_smarts="[O:1]([C@@:2]1([H:8])[C:3]([H:9])([H:10])[C@:4]1([C:5]#[N:6])[H:11])[H:7]>>[O:1]=[C:2]([C:3]([C:4](=[C:5]=[N:6][H:7])[H:11])([H:9])[H:10])[H:8]"
O       -0.58421680       1.40264880      -0.79901582
C       -0.96695527       0.32733885      -0.24041142
C       -0.34881783      -1.00075388      -0.49029436
C        0.42483622      -0.61846176       0.76029973
C        1.38285793       0.32452915       0.58181718
N        1.80489730       1.31566742       0.08132800
H        0.69259052       1.74414311      -0.37592921
H       -1.78675062       0.36409564       0.48622159
H       -0.99536259      -1.86105995      -0.35057036
H        0.24564768      -1.04929434      -1.39737905
H        0.13127346      -0.94885304       1.74393373
11
Frame=4 idx=003060 GeodesicLength=0.33330831650431203 rxn_smarts="[O:1]([C@@:2]1([H:8])[C:3]([H:9])([H:10])[C@:4]1([C:5]#[N:6])[H:11])[H:7]>>[O:1]=[C:2]([C:3]([C:4](=[C:5]=[N:6][H:7])[H:11])([H:9])[H:10])[H:8]"
O       -0.59690327       1.39980554      -0.80294789
C       -0.97600735       0.32350918      -0.23951227
C       -0.35061700      -1.00156922      -0.49015147
C        0.42256505      -0.61332070       0.75771267
C        1.39669856       0.31720831       0.58542702
N        1.82076430       1.31116057       0.09121309
H        0.69892328       1.75561606      -0.38323168
H       -1.79621188       0.35820783       0.48687043
H       -0.99294751      -1.86487544      -0.34964168
H        0.24304929      -1.04285065      -1.39806826
H        0.13068652      -0.94289148       1.74233005
11
Frame=5 idx=003060 GeodesicLength=0.4166135545497398 rxn_smarts="[O:1]([C@@:2]1([H:8])[C:3]([H:9])([H:10])[C@:4]1([C:5]#[N:6])[H:11])[H:7]>>[O:1]=[C:2]([C:3]([C:4](=[C:5]=[N:6][H:7])[H:11])([H:9])[H:10])[H:8]"
O       -0.61001754       1.39695123      -0.80689142
C       -0.98528322       0.31961897      -0.23862679
C       -0.35241349      -1.00229531      -0.49000284
C        0.42027017      -0.60787231       0.75506537
C        1.41071654       0.30954939       0.58908001
N        1.83685489       1.30651244       0.10166532
H        0.70553311       1.76719897      -0.39109921
H       -1.80581305       0.35215434       0.48759987
H       -0.99035894      -1.86868664      -0.34864565
H        0.24036634      -1.03626367      -1.39875252
H        0.13014518      -0.93686743       1.74060785
11
Frame=6 idx=003060 GeodesicLength=0.4999088833659782 rxn_smarts="[O:1]([C@@:2]1([H:8])[C:3]([H:9])([H:10])[C@:4]1([C:5]#[N:6])[H:11])[H:7]>>[O:1]=[C:2]([C:3]([C:4](=[C:5]=[N:6][H:7])[H:11])([H:9])[H:10])[H:8]"
O       -0.62358113       1.39408267      -0.81085097
C       -0.99479013       0.31566514      -0.23775404
C       -0.35420513      -1.00292549      -0.48984739
C        0.41795369      -0.60209854       0.75235307
C        1.42491244       0.30153654       0.59277797
N        1.85316896       1.30170918       0.11271305
H        0.71243364       1.77889500      -0.39955644
H       -1.81555489       0.34592867       0.48841745
H       -0.98758510      -1.87248957      -0.34757783
H        0.23759514      -1.02952431      -1.39943311
H        0.12965252      -0.93077929       1.73875826
11
Frame=7 idx=003060 GeodesicLength=0.5831933821157846 rxn_smarts="[O:1]([C@@:2]1([H:8])[C:3]([H:9])([H:10])[C@:4]1([C:5]#[N:6])[H:11])[H:7]>>[O:1]=[C:2]([C:3]([C:4](=[C:5]=[N:6][H:7])[H:11])([H:9])[H:10])[H:8]"
O       -0.63761747       1.39119694      -0.81483011
C       -1.00453583       0.31164448      -0.23689257
C       -0.35598892      -1.00345224      -0.48968397
C        0.41561781      -0.59597990       0.74957124
C        1.43928464       0.29315525       0.59652562
N        1.86970711       1.29673201       0.12438068
H        0.71963947       1.79070763      -0.40862871
H       -1.82543859       0.33952327       0.48933126
H       -0.98461230      -1.87627994      -0.34643434
H        0.23473328      -1.02262167      -1.40011085
H        0.12921081      -0.92462582       1.73677175
11
Frame=8 idx=003060 GeodesicLength=0.6664661901563842 rxn_smarts="[O:1]([C@@:2]1([H:8])[C:3]([H:9])([H:10])[C@:4]1([C:5]#[N:6])[H:11])[H:7]>>[O:1]=[C:2]([C:3]([C:4](=[C:5]=[N:6][H:7])[H:11])([H:9])[H:10])[H:8]"
O       -0.65215138       1.38828998      -0.81883383
C       -1.01452813       0.30755343      -0.23604107
C       -0.35776145      -1.00386747      -0.48951121
C        0.41326508      -0.58949542       0.74671492
C        1.45382977       0.28439169       0.60032869
N        1.88647021       1.29155889       0.13669198
H        0.72716528       1.80264165      -0.41833995
H       -1.83546444       0.33293053       0.49035010
H       -0.98142584      -1.88005276      -0.34521080
H        0.23177835      -1.01554434      -1.40078641
H        0.12882257      -0.91840618       1.73463757
11
Frame=9 idx=003060 GeodesicLength=0.7497265927593121 rxn_smarts="[O:1]([C@@:2]1([H:8])[C:3]([H:9])([H:10])[C@:4]1([C:5]#[N:6])[H:11])[H:7]>>[O:1]=[C:2]([C:3]([C:4](=[C:5]=[N:6][H:7])[H:11])([H:9])[H:10])[H:8]"
O       -0.66720995       1.38535780      -0.82286579
C       -1.02477545       0.30338790      -0.23519786
C       -0.35951788      -1.00416195      -0.48932759
C        0.41089748      -0.58262231       0.74378022
C        1.46854086       0.27523485       0.60419844
N        1.90346315       1.28615876       0.14965851
H        0.73502503       1.81470454      -0.42870994
H       -1.84563374       0.32614092       0.49148245
H       -0.97800820      -1.88380261      -0.34390403
H        0.22873077      -1.00827827      -1.40145921
H        0.12848792      -0.91211965       1.73234480
11
Frame=10 idx=003060 GeodesicLength=0.8329803669504668 rxn_smarts="[O:1]([C@@:2]1([H:8])[C:3]([H:9])([H:10])[C@:4]1([C:5]#[N:6])[H:11])[H:7]>>[O:1]=[C:2]([C:3]([C:4](=[C:5]=[N:6][H:7])[H:11])([H:9])[H:10])[H:8]"
O       -0.68282301       1.38239573      -0.82693076
C       -1.03528700       0.29914316      -0.23436116
C       -0.36125292      -1.00432609      -0.48913161
C        0.40851700      -0.57533639       0.74076356
C        1.48340897       0.26567674       0.60815065
N        1.92069534       1.28049466       0.16328711
H        0.74323283       1.82690738      -0.43975741
H       -1.85594816       0.31914365       0.49273739
H       -0.97434058      -1.88752456      -0.34251135
H        0.22559145      -1.00080787      -1.40212872
H        0.12820607      -0.90576641       1.72988230
11
Frame=11 idx=003060 GeodesicLength=0.9162040361134278 rxn_smarts="[O:1]([C@@:2]1([H:8])[C:3]([H:9])([H:10])[C@:4]1([C:5]#[N:6])[H:11])[H:7]>>[O:1]=[C:2]([C:3]([C:4](=[C:5]=[N:6][H:7])[H:11])([H:9])[H:10])[H:8]"
O       -0.69902413       1.37939980      -0.83102864
C       -1.04607095       0.29481454      -0.23352754
C       -0.36295451      -1.00434583      -0.48892051
C        0.40612416      -0.56760912       0.73766494
C        1.49841015       0.25571238       0.61221066
N        1.93817876       1.27449970       0.17754369
H        0.75179973       1.83926547      -0.45147971
H       -1.86641216       0.31192345       0.49412125
H       -0.97039281      -1.89121038      -0.34103298
H        0.22237293      -0.99311014      -1.40278920
H        0.12796884      -0.89933987       1.72723806
11
Frame=12 idx=003060 GeodesicLength=0.9994169305883467 rxn_smarts="[O:1]([C@@:2]1([H:8])[C:3]([H:9])([H:10])[C@:4]1([C:5]#[N:6])[H:11])[H:7]>>[O:1]=[C:2]([C:3]([C:4](=[C:5]=[N:6][H:7])[H:11])([H:9])[H:10])[H:8]"
O       -0.71584529       1.37636362      -0.83516207
C       -1.05713902       0.29039490      -0.23269573
C       -0.36461825      -1.00421101      -0.48869230
C        0.40371924      -0.55941278       0.73448138
C        1.51353879       0.24533365       0.61639894
N        1.95594732       1.26813297       0.19242017
H        0.76073555       1.85179484      -0.46388264
H       -1.87703627       0.30445746       0.49563347
H       -0.96614207      -1.89485638      -0.33946327
H        0.21907041      -0.98516393      -1.40344121
H        0.12776958      -0.89283334       1.72440327
11
Frame=13 idx=003060 GeodesicLength=1.0826241686069251 rxn_smarts="[O:1]([C@@:2]1([H:8])[C:3]([H:9])([H:10])[C@:4]1([C:5]#[N:6])[H:11])[H:7]>>[O:1]=[C:2]([C:3]([C:4](=[C:5]=[N:6][H:7])[H:11])([H:9])[H:10])[H:8]"
O       -0.73333462       1.37328635      -0.83931161
C       -1.06850608       0.28587591      -0.23185386
C       -0.36622762      -1.00390157      -0.48844466
C        0.40129975      -0.55071251       0.73121718
C        1.52876938       0.23454199       0.62075956
N        1.97404078       1.26129508       0.20785547
H        0.77006026       1.86451353      -0.47697917
H       -1.88784400       0.29670587       0.49727638
H       -0.96154224      -1.89845666      -0.33781098
H        0.21570165      -0.97692451      -1.40407978
H        0.12758275      -0.88622347       1.72137148
11
Frame=14 idx=003060 GeodesicLength=1.1658201382752933 rxn_smarts="[O:1]([C@@:2]1([H:8])[C:3]([H:9])([H:10])[C@:4]1([C:5]#[N:6])[H:11])[H:7]>>[O:1]=[C:2]([C:3]([C:4](=[C:5]=[N:6][H:7])[H:11])([H:9])[H:10])[H:8]"
O       -0.75153418       1.37015707      -0.84348703
C       -1.08018013       0.28124869      -0.23100101
C       -0.36776951      -1.00340423      -0.48817502
C        0.39886222      -0.54147716       0.72787537
C        1.54406662       0.22334040       0.62533637
N        1.99250815       1.25390656       0.22378695
H        0.77976994       1.87745873      -0.49074490
H       -1.89883575       0.28865132       0.49905383
H       -0.95656308      -1.90200257      -0.33608014
H        0.21227982      -0.96837328      -1.40469599
H        0.12739590      -0.87950553       1.71813157
11
Frame=15 idx=003060 GeodesicLength=1.2489999324847736 rxn_smarts="[O:1]([C@@:2]1([H:8])[C:3]([H:9])([H:10])[C@:4]1([C:5]#[N:6])[H:11])[H:7]>>[O:1]=[C:2]([C:3]([C:4](=[C:5]=[N:6][H:7])[H:11])([H:9])[H:10])[H:8]"
O       -0.77049351       1.36696022      -0.84768459
C       -1.09217516       0.27649947      -0.23013203
C       -0.36922562      -1.00269790      -0.48787990
C        0.39639883      -0.53166288       0.72446079
C        1.55940047       0.21172553       0.63017747
N        2.01141740       1.24585696       0.24012439
H        0.78986299       1.89066578      -0.50515021
H       -1.91002970       0.28025388       0.50096371
H       -0.95115421      -1.90548275      -0.33427378
H        0.20882298      -0.95946650      -1.40528325
H        0.12717555      -0.87265180       1.71467739
11
Frame=16 idx=003060 GeodesicLength=1.3321820787914977 rxn_smarts="[O:1]([C@@:2]1([H:8])[C:3]([H:9])([H:10])[C@:4]1([C:5]#[N:6])[H:11])[H:7]>>[O:1]=[C:2]([C:3]([C:4](=[C:5]=[N:6][H:7])[H:11])([H:9])[H:10])[H:8]"
O       -0.79026922       1.36368310      -0.85191477
C       -1.10450610       0.27161557      -0.22924486
C       -0.37058114      -1.00176768      -0.48755598
C        0.39390544      -0.52123281       0.72097846
C        1.57474024       0.19969520       0.63533443
N        2.03084758       1.23704470       0.25679005
H        0.80033742       1.90419034      -0.52016596
H       -1.92144076       0.27148078       0.50300475
H       -0.94527469      -1.90889386      -0.33239439
H        0.20534477      -0.95017355      -1.40583342
H        0.12689646      -0.86564179       1.71100169
