16
Frame=0 idx=004901 GeodesicLength=0.0 rxn_smarts="[C:1]([C:2]([C@@:3]1([C:4]([H:12])([H:13])[H:14])[C:5]([H:15])([H:16])[O:6]1)([H:10])[H:11])([H:7])([H:8])[H:9]>>[C:1]([C:2]([C@:3]([C:4]([H:12])([H:13])[H:14])([O+:6]=[C-:5][H:16])[H:15])([H:10])[H:11])([H:7])([H:8])[H:9]"
C        1.90500087       0.17387744       0.41203535
C        0.85121227       0.41862348      -0.65862566
C       -0.56952398       0.14218060      -0.19915946
C       -0.89347771      -1.25503941       0.27414015
C       -1.95683824       1.45188848      -0.28288126
O       -1.47621577       0.56049893      -1.22640676
H        1.94275889      -0.87365449       0.71679641
H        1.71360425       0.77762582       1.30275266
H        2.89442176       0.44233917       0.04072038
H        1.03432151      -0.21181711      -1.53355818
H        0.88327417       1.45363199      -1.00297138
H       -0.62153706      -1.96965318      -0.50536639
H       -0.34898261      -1.50807500       1.18446615
H       -1.96059870      -1.35194434       0.47185533
H       -0.73474780       0.89932691       0.65381158
H       -2.66267190       0.85019066       0.35239113
16
Frame=1 idx=004901 GeodesicLength=0.06252421776021355 rxn_smarts="[C:1]([C:2]([C@@:3]1([C:4]([H:12])([H:13])[H:14])[C:5]([H:15])([H:16])[O:6]1)([H:10])[H:11])([H:7])([H:8])[H:9]>>[C:1]([C:2]([C@:3]([C:4]([H:12])([H:13])[H:14])([O+:6]=[C-:5][H:16])[H:15])([H:10])[H:11])([H:7])([H:8])[H:9]"
C        1.90369015       0.17250411       0.41201540
C        0.84890815       0.41749999      -0.65775941
C       -0.57166780       0.14130907      -0.19742435
C       -0.89071051      -1.25856344       0.27223095
C       -1.95361684       1.44805273      -0.29092785
O       -1.47907287       0.55228129      -1.22845100
H        1.94327052      -0.87561601       0.71449586
H        1.71182551       0.77314908       1.30469014
H        2.89265867       0.44350726       0.04131249
H        1.03390414      -0.21186954      -1.53311290
H        0.88078694       1.45308283      -1.00077119
H       -0.61488744      -1.97240973      -0.50666160
H       -0.34620148      -1.51045076       1.18288871
H       -1.95757685      -1.36167793       0.46820966
H       -0.74126682       0.92003949       0.65745292
H       -2.66004346       0.86916155       0.36181217
16
Frame=2 idx=004901 GeodesicLength=0.12499938271703179 rxn_smarts="[C:1]([C:2]([C@@:3]1([C:4]([H:12])([H:13])[H:14])[C:5]([H:15])([H:16])[O:6]1)([H:10])[H:11])([H:7])([H:8])[H:9]>>[C:1]([C:2]([C@:3]([C:4]([H:12])([H:13])[H:14])([O+:6]=[C-:5][H:16])[H:15])([H:10])[H:11])([H:7])([H:8])[H:9]"
C        1.90234058       0.17113168       0.41201804
C        0.84656299       0.41632823      -0.65687907
C       -0.57383955       0.14031375      -0.19566333
C       -0.88791315      -1.26221280       0.27029111
C       -1.95048057       1.44403669      -0.29871743
O       -1.48196448       0.54407381      -1.23033838
H        1.94379972      -0.87757190       0.71219766
H        1.70995725       0.76863983       1.30664706
H        2.89084124       0.44473788       0.04195080
H        1.03346401      -0.21194827      -1.53265963
H        0.87823056       1.45248292      -0.99856236
H       -0.60821491      -1.97523048      -0.50802511
H       -0.34337303      -1.51295706       1.18126814
H       -1.95447381      -1.37158684       0.46456457
H       -0.74770193       0.94125105       0.66088570
H       -2.65723491       0.88851153       0.37102224
16
Frame=3 idx=004901 GeodesicLength=0.18744998688298076 rxn_smarts="[C:1]([C:2]([C@@:3]1([C:4]([H:12])([H:13])[H:14])[C:5]([H:15])([H:16])[O:6]1)([H:10])[H:11])([H:7])([H:8])[H:9]>>[C:1]([C:2]([C@:3]([C:4]([H:12])([H:13])[H:14])([O+:6]=[C-:5][H:16])[H:15])([H:10])[H:11])([H:7])([H:8])[H:9]"
C        1.90094957       0.16976148       0.41204578
C        0.84417486       0.41510543      -0.65598369
C       -0.57603983       0.13918811      -0.19387451
C       -0.88508484      -1.26599468       0.26831688
C       -1.94742588       1.43983729      -0.30623154
O       -1.48489503       0.53587953      -1.23206323
H        1.94434494      -0.87951932       0.70990757
H        1.70799593       0.76410234       1.30862332
H        2.88896650       0.44603200       0.04263800
H        1.03300039      -0.21205630      -1.53219675
H        0.87560188       1.45182842      -0.99634715
H       -0.60151766      -1.97811891      -0.50946361
H       -0.34049678      -1.51560276       1.17960019
H       -1.95128842      -1.38168062       0.46091330
H       -0.75404392       0.96299278       0.66409421
H       -2.65424171       0.90824522       0.38002123
16
Frame=4 idx=004901 GeodesicLength=0.2498854910452532 rxn_smarts="[C:1]([C:2]([C@@:3]1([C:4]([H:12])([H:13])[H:14])[C:5]([H:15])([H:16])[O:6]1)([H:10])[H:11])([H:7])([H:8])[H:9]>>[C:1]([C:2]([C@:3]([C:4]([H:12])([H:13])[H:14])([O+:6]=[C-:5][H:16])[H:15])([H:10])[H:11])([H:7])([H:8])[H:9]"
C        1.89951448       0.16839475       0.41210144
C        0.84174142       0.41382903      -0.65507164
C       -0.57826979       0.13792719      -0.19205414
C       -0.88222481      -1.26991575       0.26630445
C       -1.94444886       1.43545474      -0.31345362
O       -1.48786919       0.52770056      -1.23362008
H        1.94490440      -0.88145578       0.70763163
H        1.70593856       0.75954084       1.31061927
H        2.88703142       0.44739002       0.04337653
H        1.03251159      -0.21219673      -1.53172191
H        0.87289815       1.45111553      -0.99412777
H       -0.59479411      -1.98107731      -0.51098447
H       -0.33757212      -1.51839693       1.17788039
H       -1.94801926      -1.39196850       0.45724910
H       -0.76028244       0.98529652       0.66706012
H       -2.65105944       0.92836181       0.38881072
16
Frame=5 idx=004901 GeodesicLength=0.31232838943298796 rxn_smarts="[C:1]([C:2]([C@@:3]1([C:4]([H:12])([H:13])[H:14])[C:5]([H:15])([H:16])[O:6]1)([H:10])[H:11])([H:7])([H:8])[H:9]>>[C:1]([C:2]([C@:3]([C:4]([H:12])([H:13])[H:14])([O+:6]=[C-:5][H:16])[H:15])([H:10])[H:11])([H:7])([H:8])[H:9]"
C        1.89803216       0.16703302       0.41218809
C        0.83926011       0.41249658      -0.65414129
C       -0.58053069       0.13652439      -0.19019888
C       -0.87933198      -1.27398418       0.26424949
C       -1.94155115       1.43087708      -0.32036113
O       -1.49089114       0.51953788      -1.23500283
H        1.94547645      -0.88337849       0.70537536
H        1.70378098       0.75495896       1.31263557
H        2.88503206       0.44881394       0.04417005
H        1.03199638      -0.21237181      -1.53123304
H        0.87011461       1.45034088      -0.99190503
H       -0.58804264      -1.98410920      -0.51259592
H       -0.33459796      -1.52135062       1.17610341
H       -1.94466481      -1.40246048       0.45356536
H       -0.76640604       1.00819677       0.66976211
H       -2.64767634       0.94887529       0.39738870
16
Frame=6 idx=004901 GeodesicLength=0.3748012679062788 rxn_smarts="[C:1]([C:2]([C@@:3]1([C:4]([H:12])([H:13])[H:14])[C:5]([H:15])([H:16])[O:6]1)([H:10])[H:11])([H:7])([H:8])[H:9]>>[C:1]([C:2]([C@:3]([C:4]([H:12])([H:13])[H:14])([O+:6]=[C-:5][H:16])[H:15])([H:10])[H:11])([H:7])([H:8])[H:9]"
C        1.89649920       0.16567748       0.41230940
C        0.83672838       0.41110509      -0.65319082
C       -0.58282329       0.13497204      -0.18830563
C       -0.87640559      -1.27820848       0.26214756
C       -1.93873044       1.42610283      -0.32693372
O       -1.49396689       0.51139364      -1.23620436
H        1.94605948      -0.88528505       0.70314497
H        1.70151836       0.75036018       1.31467389
H        2.88296457       0.45030524       0.04502256
H        1.03145357      -0.21258450      -1.53072779
H        0.86724780       1.44950040      -0.98968106
H       -0.58126180      -1.98721842      -0.51430638
H       -0.33157321      -1.52447520       1.17426380
H       -1.94122331      -1.41316737       0.44985475
H       -0.77240222       1.03173603       0.67217427
H       -2.64408462       0.96978609       0.40575857
16
Frame=7 idx=004901 GeodesicLength=0.4372991136008021 rxn_smarts="[C:1]([C:2]([C@@:3]1([C:4]([H:12])([H:13])[H:14])[C:5]([H:15])([H:16])[O:6]1)([H:10])[H:11])([H:7])([H:8])[H:9]>>[C:1]([C:2]([C@:3]([C:4]([H:12])([H:13])[H:14])([O+:6]=[C-:5][H:16])[H:15])([H:10])[H:11])([H:7])([H:8])[H:9]"
C        1.89491328       0.16432917       0.41246856
C        0.83414358       0.40965191      -0.65221752
C       -0.58514837       0.13326539      -0.18636760
C       -0.87344441      -1.28259577       0.25999494
C       -1.93598236       1.42113641      -0.33315311
O       -1.49710217       0.50327036      -1.23721555
H        1.94665251      -0.88717321       0.70094643
H        1.69914816       0.74574864       1.31673527
H        2.88082595       0.45186447       0.04593623
H        1.03088050      -0.21283787      -1.53020293
H        0.86429461       1.44858975      -0.98745743
H       -0.57445117      -1.99040650      -0.51612457
H       -0.32849544      -1.52778270       1.17235606
H       -1.93769289      -1.42409824       0.44611157
H       -0.77825932       1.05594966       0.67427150
H       -2.64028246       0.99108851       0.41391813
16
Frame=8 idx=004901 GeodesicLength=0.49983286106277103 rxn_smarts="[C:1]([C:2]([C@@:3]1([C:4]([H:12])([H:13])[H:14])[C:5]([H:15])([H:16])[O:6]1)([H:10])[H:11])([H:7])([H:8])[H:9]>>[C:1]([C:2]([C@:3]([C:4]([H:12])([H:13])[H:14])([O+:6]=[C-:5][H:16])[H:15])([H:10])[H:11])([H:7])([H:8])[H:9]"
C        1.89327110       0.16298931       0.41267016
C        0.83150316       0.40813372      -0.65121871
C       -0.58750639       0.13139654      -0.18437907
C       -0.87044703      -1.28715567       0.25778695
C       -1.93330846       1.41597649      -0.33899420
O       -1.50030413       0.49517112      -1.23802579
H        1.94725436      -0.88904068       0.69878640
H        1.69666562       0.74112751       1.31882198
H        2.87861195       0.45349379       0.04691631
H        1.03027559      -0.21313542      -1.52965511
H        0.86125160       1.44760421      -0.98523600
H       -0.56761022      -1.99367689      -0.51806096
H       -0.32536181      -1.53128772       1.17037313
H       -1.93407096      -1.43526430       0.44232941
H       -0.78396400       1.08088460       0.67601701
H       -2.63626038       1.01278339       0.42186849
16
Frame=9 idx=004901 GeodesicLength=0.5624139335951718 rxn_smarts="[C:1]([C:2]([C@@:3]1([C:4]([H:12])([H:13])[H:14])[C:5]([H:15])([H:16])[O:6]1)([H:10])[H:11])([H:7])([H:8])[H:9]>>[C:1]([C:2]([C@:3]([C:4]([H:12])([H:13])[H:14])([O+:6]=[C-:5][H:16])[H:15])([H:10])[H:11])([H:7])([H:8])[H:9]"
C        1.89156930       0.16165949       0.41291818
C        0.82880455       0.40654724      -0.65019229
C       -0.58989711       0.12935732      -0.18233556
C       -0.86741227      -1.29189685       0.25551875
C       -1.93070343       1.41062484      -0.34443216
O       -1.50357918       0.48709828      -1.23862526
H        1.94786397      -0.89088453       0.69667174
H        1.69406554       0.73650140       1.32093604
H        2.87631882       0.45519508       0.04796660
H        1.02963768      -0.21348044      -1.52908166
H        0.85811458       1.44653908      -0.98301898
H       -0.56073912      -1.99703306      -0.52012554
H       -0.32216972      -1.53500410       1.16830834
H       -1.93035544      -1.44667437       0.43850200
H       -0.78950442       1.10658282       0.67737988
H       -2.63201375       1.03486783       0.42960992
16
Frame=10 idx=004901 GeodesicLength=0.6250299205216763 rxn_smarts="[C:1]([C:2]([C@@:3]1([C:4]([H:12])([H:13])[H:14])[C:5]([H:15])([H:16])[O:6]1)([H:10])[H:11])([H:7])([H:8])[H:9]>>[C:1]([C:2]([C@:3]([C:4]([H:12])([H:13])[H:14])([O+:6]=[C-:5][H:16])[H:15])([H:10])[H:11])([H:7])([H:8])[H:9]"
C        1.88980431       0.16034076       0.41321821
C        0.82604404       0.40488960      -0.64913337
C       -0.59232231       0.12714172      -0.18022664
C       -0.86433858      -1.29682940       0.25318536
C       -1.92817198       1.40507936      -0.34944325
O       -1.50693559       0.47905450      -1.23900026
H        1.94847985      -0.89270271       0.69460975
H        1.69134378       0.73187337       1.32308109
H        2.87394155       0.45697063       0.04909260
H        1.02896302      -0.21387573      -1.52847744
H        0.85488012       1.44539003      -0.98080699
H       -0.55383795      -2.00047676      -0.52233108
H       -0.31891477      -1.53894948       1.16615279
H       -1.92654317      -1.45834180       0.43462316
H       -0.79486325       1.13309354       0.67831124
H       -2.62752905       1.05734235       0.43714482
16
Frame=11 idx=004901 GeodesicLength=0.6876768012975198 rxn_smarts="[C:1]([C:2]([C@@:3]1([C:4]([H:12])([H:13])[H:14])[C:5]([H:15])([H:16])[O:6]1)([H:10])[H:11])([H:7])([H:8])[H:9]>>[C:1]([C:2]([C@:3]([C:4]([H:12])([H:13])[H:14])([O+:6]=[C-:5][H:16])[H:15])([H:10])[H:11])([H:7])([H:8])[H:9]"
C        1.88797284       0.15903496       0.41357559
C        0.82321868       0.40315724      -0.64803822
C       -0.59478180       0.12474209      -0.17804335
C       -0.86122416      -1.30196335       0.25078133
C       -1.92571087       1.39934193      -0.35399872
O       -1.51038062       0.47104402      -1.23913590
H        1.94910115      -0.89449204       0.69260872
H        1.68849539       0.72724840       1.32526032
H        2.87147625       0.45882216       0.05029889
H        1.02824920      -0.21432526      -1.52783798
H        0.85154432       1.44415161      -0.97860220
H       -0.54690778      -2.00401031      -0.52469061
H       -0.31559196      -1.54314186       1.16389748
H       -1.92263121      -1.47027736       0.43068673
H       -0.80002874       1.16046366       0.67876333
H       -2.62280068       1.08020414       0.44447458
16
Frame=12 idx=004901 GeodesicLength=0.7503378559556974 rxn_smarts="[C:1]([C:2]([C@@:3]1([C:4]([H:12])([H:13])[H:14])[C:5]([H:15])([H:16])[O:6]1)([H:10])[H:11])([H:7])([H:8])[H:9]>>[C:1]([C:2]([C@:3]([C:4]([H:12])([H:13])[H:14])([O+:6]=[C-:5][H:16])[H:15])([H:10])[H:11])([H:7])([H:8])[H:9]"
C        1.88607073       0.15774388       0.41399720
C        0.82032498       0.40134646      -0.64690178
C       -0.59727650       0.12215121      -0.17577485
C       -0.85806734      -1.30730967       0.24830034
C       -1.92332115       1.39341481      -0.35806844
O       -1.51392379       0.46307177      -1.23901517
H        1.94972605      -0.89624936       0.69067859
H        1.68551480       0.72263199       1.32747769
H        2.86891764       0.46075223       0.05159232
H        1.02749314      -0.21483335      -1.52715739
H        0.84810413       1.44281795      -0.97640663
H       -0.53995007      -2.00763555      -0.52721923
H       -0.31219600      -1.54760151       1.16153146
H       -1.91861631      -1.48249365       0.42668594
H       -0.80498446       1.18874524       0.67867369
H       -2.61781584       1.10344755       0.45160626
16
Frame=13 idx=004901 GeodesicLength=0.8130010782745942 rxn_smarts="[C:1]([C:2]([C@@:3]1([C:4]([H:12])([H:13])[H:14])[C:5]([H:15])([H:16])[O:6]1)([H:10])[H:11])([H:7])([H:8])[H:9]>>[C:1]([C:2]([C@:3]([C:4]([H:12])([H:13])[H:14])([O+:6]=[C-:5][H:16])[H:15])([H:10])[H:11])([H:7])([H:8])[H:9]"
C        1.88409409       0.15646986       0.41448953
C        0.81735964       0.39945360      -0.64571949
C       -0.59980626       0.11936103      -0.17341073
C       -0.85486628      -1.31287898       0.24573606
C       -1.92100004       1.38729940      -0.36161999
O       -1.51757365       0.45514297      -1.23862038
H        1.95035306      -0.89797079       0.68882938
H        1.68239620       0.71803051       1.32973713
H        2.86626094       0.46276347       0.05297880
H        1.02669225      -0.21540421      -1.52643020
H        0.84455553       1.44138321      -0.97422265
H       -0.53296717      -2.01135429      -0.52993229
H       -0.30872079      -1.55234904       1.15904340
H       -1.91449529      -1.49500188       0.42261439
H       -0.80971695       1.21798550       0.67798307
H       -2.61256526       1.12706962       0.45854399
16
Frame=14 idx=004901 GeodesicLength=0.8756584562649798 rxn_smarts="[C:1]([C:2]([C@@:3]1([C:4]([H:12])([H:13])[H:14])[C:5]([H:15])([H:16])[O:6]1)([H:10])[H:11])([H:7])([H:8])[H:9]>>[C:1]([C:2]([C@:3]([C:4]([H:12])([H:13])[H:14])([O+:6]=[C-:5][H:16])[H:15])([H:10])[H:11])([H:7])([H:8])[H:9]"
C        1.88203792       0.15521587       0.41506060
C        0.81431844       0.39747467      -0.64448552
C       -0.60237179       0.11636183      -0.17093866
C       -0.85161913      -1.31868449       0.24308107
C       -1.91874790       1.38099346      -0.36461391
O       -1.52134132       0.44726316      -1.23793001
H        1.95098037      -0.89965179       0.68707255
H        1.67913230       0.71345094       1.33204356
H        2.86349994       0.46486005       0.05446620
H        1.02584324      -0.21604220      -1.52564984
H        0.84089352       1.43984126      -0.97205211
H       -0.52596179      -2.01516905      -0.53284811
H       -0.30515860      -1.55740932       1.15641967
H       -1.91026427      -1.50781701       0.41846469
H       -0.81420913       1.24823887       0.67661837
H       -2.60703182       1.15107376       0.46529145
16
Frame=15 idx=004901 GeodesicLength=0.9382875863135522 rxn_smarts="[C:1]([C:2]([C@@:3]1([C:4]([H:12])([H:13])[H:14])[C:5]([H:15])([H:16])[O:6]1)([H:10])[H:11])([H:7])([H:8])[H:9]>>[C:1]([C:2]([C@:3]([C:4]([H:12])([H:13])[H:14])([O+:6]=[C-:5][H:16])[H:15])([H:10])[H:11])([H:7])([H:8])[H:9]"
C        1.87989706       0.15398543       0.41571936
C        0.81119771       0.39540523      -0.64319398
C       -0.60497310       0.11314486      -0.16834607
C       -0.84832417      -1.32473841       0.24032682
C       -1.91656182       1.37450039      -0.36701140
O       -1.52523770       0.43944013      -1.23692164
H        1.95160511      -0.90128678       0.68542242
H        1.67571576       0.70890299       1.33440160
H        2.86062874       0.46704514       0.05606302
H        1.02494348      -0.21675313      -1.52480879
H        0.83711461       1.43818447      -0.96989856
H       -0.51893802      -2.01908104      -0.53598632
H       -0.30150210      -1.56280719       1.15364522
H       -1.90591996      -1.52095157       0.41422875
H       -0.81844634       1.27955709       0.67449719
H       -2.60119925       1.17545241       0.47186238
16
Frame=16 idx=004901 GeodesicLength=1.0008720182381177 rxn_smarts="[C:1]([C:2]([C@@:3]1([C:4]([H:12])([H:13])[H:14])[C:5]([H:15])([H:16])[O:6]1)([H:10])[H:11])([H:7])([H:8])[H:9]>>[C:1]([C:2]([C@:3]([C:4]([H:12])([H:13])[H:14])([O+:6]=[C-:5][H:16])[H:15])([H:10])[H:11])([H:7])([H:8])[H:9]"
C        1.87766647       0.15278223       0.41647540
C        0.80799340       0.39324086      -0.64183794
C       -0.60760964       0.10969924      -0.16561767
C       -0.84497888      -1.33105507       0.23746467
C       -1.91443991       1.36781882      -0.36876328
O       -1.52927503       0.43168240      -1.23556722
H        1.95222550      -0.90287016       0.68389320
H        1.67213885       0.70439606       1.33681720
H        2.85764105       0.46932325       0.05777822
H        1.02398976      -0.21754210      -1.52389912
H        0.83321409       1.43640592      -0.96776446
H       -0.51190062      -2.02309191      -0.53936924
H       -0.29774074      -1.56857224       1.15070293
H       -1.90145787      -1.53442058       0.40989930
H       -0.82241529       1.31199274       0.67152586
H       -2.59505115       1.20021054       0.47826216
