14
Frame=0 idx=003989 GeodesicLength=0.0 rxn_smarts="[C:1]([C:2]([N:3]1[C:4]([H:11])([H:12])[C:5]1([H:13])[H:14])([H:9])[H:10])([H:6])([H:7])[H:8]>>[C:1]([C-:2]([N+:3]1=[C:5]([H:14])[C:4]1([H:11])[H:12])[H:10])([H:6])([H:7])[H:8].[H:9][H:13]"
C        1.74523366       0.47005005      -0.56211593
C        0.81963220      -0.44627090       0.16358815
N       -0.43146016      -0.60567454      -0.21742085
C       -1.47947817       0.32203935      -0.57424196
C       -1.59853963      -0.74850654       0.45603502
H        2.29652524      -0.05306356      -1.34951857
H        1.20177113       1.29893640      -1.01631113
H        2.47841519       0.87700747       0.13484060
H       -0.00052052       0.24993052       1.80650674
H        1.23919354      -1.27419665       0.72607291
H       -1.84327556       0.22979840      -1.59366045
H       -1.38002023       1.34352039      -0.20231268
H       -0.82081024      -0.03670744       1.74356273
H       -2.22666650      -1.62686301       0.48497544
14
Frame=1 idx=003989 GeodesicLength=0.08884300658348018 rxn_smarts="[C:1]([C:2]([N:3]1[C:4]([H:11])([H:12])[C:5]1([H:13])[H:14])([H:9])[H:10])([H:6])([H:7])[H:8]>>[C:1]([C-:2]([N+:3]1=[C:5]([H:14])[C:4]1([H:11])[H:12])[H:10])([H:6])([H:7])[H:8].[H:9][H:13]"
C        1.75152188       0.47371133      -0.54919858
C        0.82044892      -0.44334375       0.17010337
N       -0.43352009      -0.58142801      -0.21446608
C       -1.49585530       0.31618626      -0.59313281
C       -1.59972349      -0.72571960       0.46701742
H        2.27678532      -0.03643708      -1.36226816
H        1.21707326       1.32634827      -0.96895904
H        2.50702289       0.84608814       0.14353690
H        0.02433478       0.23544225       1.81234342
H        1.23747155      -1.29868831       0.69236743
H       -1.85161188       0.18404285      -1.61130099
H       -1.41593681       1.34887740      -0.24973815
H       -0.82603733      -0.02994986       1.75706255
H       -2.21197369      -1.61512988       0.50663272
14
Frame=2 idx=003989 GeodesicLength=0.17755578065891123 rxn_smarts="[C:1]([C:2]([N:3]1[C:4]([H:11])([H:12])[C:5]1([H:13])[H:14])([H:9])[H:10])([H:6])([H:7])[H:8]>>[C:1]([C-:2]([N+:3]1=[C:5]([H:14])[C:4]1([H:11])[H:12])[H:10])([H:6])([H:7])[H:8].[H:9][H:13]"
C        1.75762041       0.47763758      -0.53574515
C        0.82129546      -0.44119423       0.17613069
N       -0.43565168      -0.55611770      -0.21113039
C       -1.51204143       0.30947608      -0.61273992
C       -1.60116310      -0.70092208       0.47816373
H        2.25664675      -0.01697233      -1.37433063
H        1.23273740       1.35308433      -0.91923893
H        2.53461038       0.81446647       0.15168644
H        0.05039094       0.21855017       1.81882155
H        1.23459013      -1.32301916       0.65600028
H       -1.85892141       0.13582303      -1.62804224
H       -1.45180533       1.35286356      -0.30035092
H       -0.83089219      -0.02279089       1.77103567
H       -2.19741634      -1.60088483       0.52973981
14
Frame=3 idx=003989 GeodesicLength=0.266121142595906 rxn_smarts="[C:1]([C:2]([N:3]1[C:4]([H:11])([H:12])[C:5]1([H:13])[H:14])([H:9])[H:10])([H:6])([H:7])[H:8]>>[C:1]([C-:2]([N+:3]1=[C:5]([H:14])[C:4]1([H:11])[H:12])[H:10])([H:6])([H:7])[H:8].[H:9][H:13]"
C        1.76355201       0.48184355      -0.52173258
C        0.82212407      -0.43981313       0.18155197
N       -0.43785522      -0.52956346      -0.20743236
C       -1.52804147       0.30182585      -0.63302717
C       -1.60285041      -0.67390972       0.48947244
H        2.23627971       0.00540640      -1.38549157
H        1.24879556       1.37897013      -0.86719506
H        2.56109700       0.78227395       0.15928143
H        0.07767863       0.19885807       1.82588253
H        1.23039588      -1.34704184       0.61673830
H       -1.86518077       0.08498309      -1.64360698
H       -1.48764907       1.35523648      -0.35430162
H       -0.83532747      -0.01520898       1.78550370
H       -2.18301847      -1.58386040       0.55435698
14
Frame=4 idx=003989 GeodesicLength=0.35452297445456415 rxn_smarts="[C:1]([C:2]([N:3]1[C:4]([H:11])([H:12])[C:5]1([H:13])[H:14])([H:9])[H:10])([H:6])([H:7])[H:8]>>[C:1]([C-:2]([N+:3]1=[C:5]([H:14])[C:4]1([H:11])[H:12])[H:10])([H:6])([H:7])[H:8].[H:9][H:13]"
C        1.76936395       0.48633880      -0.50714628
C        0.82287763      -0.43917030       0.18622440
N       -0.44012743      -0.50154427      -0.20340596
C       -1.54387941       0.29315520      -0.65392074
C       -1.60477009      -0.64447422       0.50093718
H        2.21595792       0.03070328      -1.39548139
H        1.26529927       1.40380790      -0.81298359
H        2.58639243       0.74969280       0.16635347
H        0.10618998       0.17593035       1.83341452
H        1.22471395      -1.37056023       0.57434202
H       -1.87039248       0.03139831      -1.65765575
H       -1.52354039       1.35571420      -0.41168568
H       -0.83928532      -0.00721183       1.80048992
H       -2.16880000      -1.56377999       0.58051788
14
Frame=5 idx=003989 GeodesicLength=0.4428058213858475 rxn_smarts="[C:1]([C:2]([N:3]1[C:4]([H:11])([H:12])[C:5]1([H:13])[H:14])([H:9])[H:10])([H:6])([H:7])[H:8]>>[C:1]([C-:2]([N+:3]1=[C:5]([H:14])[C:4]1([H:11])[H:12])[H:10])([H:6])([H:7])[H:8].[H:9][H:13]"
C        1.77509271       0.49113156      -0.49193356
C        0.82347519      -0.43921249       0.19001402
N       -0.44245283      -0.47180955      -0.19907188
C       -1.55954227       0.28330711      -0.67537986
C       -1.60688440      -0.61235395       0.51253742
H        2.19569104       0.05908635      -1.40422475
H        1.28234638       1.42753708      -0.75641299
H        2.61055716       0.71663017       0.17289900
H        0.13586284       0.14936340       1.84125743
H        1.21730314      -1.39333590       0.52851556
H       -1.87440743      -0.02519778      -1.66982911
H       -1.55955497       1.35390631      -0.47269576
H       -0.84274748       0.00128592       1.81598687
H       -2.15473907      -1.54033824       0.60833760
14
Frame=6 idx=003989 GeodesicLength=0.5309013408956353 rxn_smarts="[C:1]([C:2]([N:3]1[C:4]([H:11])([H:12])[C:5]1([H:13])[H:14])([H:9])[H:10])([H:6])([H:7])[H:8]>>[C:1]([C-:2]([N+:3]1=[C:5]([H:14])[C:4]1([H:11])[H:12])[H:10])([H:6])([H:7])[H:8].[H:9][H:13]"
C        1.78083547       0.49620180      -0.47610183
C        0.82382581      -0.43985256       0.19270602
N       -0.44481877      -0.44004930      -0.19451764
C       -1.57507399       0.27220680      -0.69721097
C       -1.60914284      -0.57736374       0.52423776
H        2.17599908       0.09037000      -1.41132460
H        1.30003770       1.44988571      -0.69789846
H        2.63345515       0.68336004       0.17904358
H        0.16656533       0.11870238       1.84912469
H        1.20794661      -1.41501606       0.47905003
H       -1.87727457      -0.08481640      -1.67960452
H       -1.59589091       1.34941972      -0.53721807
H       -0.84564218       0.01021363       1.83198892
H       -2.14082188      -1.51326202       0.63772508
14
Frame=7 idx=003989 GeodesicLength=0.6187957991345416 rxn_smarts="[C:1]([C:2]([N:3]1[C:4]([H:11])([H:12])[C:5]1([H:13])[H:14])([H:9])[H:10])([H:6])([H:7])[H:8]>>[C:1]([C-:2]([N+:3]1=[C:5]([H:14])[C:4]1([H:11])[H:12])[H:10])([H:6])([H:7])[H:8].[H:9][H:13]"
C        1.78668825       0.50151254      -0.45962894
C        0.82380599      -0.44096045       0.19409532
N       -0.44719079      -0.40591284      -0.18982882
C       -1.59047916       0.25971568      -0.71921785
C       -1.61146561      -0.53930992       0.53597518
H        2.15715687       0.12448212      -1.41657754
H        1.31854344       1.47071923      -0.63753335
H        2.65510464       0.64985792       0.18487386
H        0.19807164       0.08361601       1.85662041
H        1.19636797      -1.43518283       0.42573764
H       -1.87889529      -0.14754959      -1.68642322
H       -1.63278409       1.34174454      -0.60514916
H       -0.84795978       0.01957221       1.84844537
H       -2.12696409      -1.48230462       0.66861110
14
Frame=8 idx=003989 GeodesicLength=0.7064773195131362 rxn_smarts="[C:1]([C:2]([N:3]1[C:4]([H:11])([H:12])[C:5]1([H:13])[H:14])([H:9])[H:10])([H:6])([H:7])[H:8]>>[C:1]([C-:2]([N+:3]1=[C:5]([H:14])[C:4]1([H:11])[H:12])[H:10])([H:6])([H:7])[H:8].[H:9][H:13]"
C        1.79278657       0.50699090      -0.44253085
C        0.82326744      -0.44234808       0.19394881
N       -0.44953022      -0.36900473      -0.18512474
C       -1.60576994       0.24572308      -0.74109791
C       -1.61376563      -0.49810360       0.54766084
H        2.13960290       0.16117346      -1.41973547
H        1.33808623       1.48986257      -0.57561920
H        2.67550529       0.61612592       0.19051855
H        0.23005387       0.04391011       1.86321231
H        1.18228722      -1.45331482       0.36848137
H       -1.87913946      -0.21330830      -1.68965821
H       -1.67059503       1.33031891      -0.67611807
H       -0.84974566       0.02931644       1.86528011
H       -2.11304359      -1.44734186       0.70078247
14
Frame=9 idx=003989 GeodesicLength=0.7940271483074691 rxn_smarts="[C:1]([C:2]([N:3]1[C:4]([H:11])([H:12])[C:5]1([H:13])[H:14])([H:9])[H:10])([H:6])([H:7])[H:8]>>[C:1]([C-:2]([N+:3]1=[C:5]([H:14])[C:4]1([H:11])[H:12])[H:10])([H:6])([H:7])[H:8].[H:9][H:13]"
C        1.79924238       0.51255156      -0.42479381
C        0.82201510      -0.44379567       0.19204684
N       -0.45179459      -0.32893689      -0.18051925
C       -1.62086632       0.23002148      -0.76256066
C       -1.61594109      -0.45366438       0.55916963
H        2.12343285       0.20049865      -1.42078326
H        1.35900272       1.50725691      -0.51194959
H        2.69480545       0.58176850       0.19596057
H        0.26208323      -0.00051289       1.86832538
H        1.16537113      -1.46884072       0.30710992
H       -1.87764733      -0.28212469      -1.68861854
H       -1.70961142       1.31442790      -0.74981258
H       -0.85118252       0.03964127       1.88230750
H       -2.09890958      -1.40829103       0.73411784
14
Frame=10 idx=003989 GeodesicLength=0.8813697105477207 rxn_smarts="[C:1]([C:2]([N:3]1[C:4]([H:11])([H:12])[C:5]1([H:13])[H:14])([H:9])[H:10])([H:6])([H:7])[H:8]>>[C:1]([C-:2]([N+:3]1=[C:5]([H:14])[C:4]1([H:11])[H:12])[H:10])([H:6])([H:7])[H:8].[H:9][H:13]"
C        1.80621403       0.51802640      -0.40652899
C        0.81983528      -0.44499293       0.18814843
N       -0.45393862      -0.28538384      -0.17621781
C       -1.63569249       0.21259039      -0.78307599
C       -1.61789692      -0.40628395       0.57033101
H        2.10923896       0.24188997      -1.41948452
H        1.38158916       1.52264546      -0.44711741
H        2.71295769       0.54674130       0.20129610
H        0.29358376      -0.04934582       1.87115995
H        1.14543863      -1.48104206       0.24193280
H       -1.87416155      -0.35338714      -1.68264163
H       -1.75028156       1.29346557      -0.82517450
H       -0.85252628       0.05054660       1.89931968
H       -2.08436008      -1.36546995       0.76805288
14
Frame=11 idx=003989 GeodesicLength=0.9684895460401253 rxn_smarts="[C:1]([C:2]([N:3]1[C:4]([H:11])([H:12])[C:5]1([H:13])[H:14])([H:9])[H:10])([H:6])([H:7])[H:8]>>[C:1]([C-:2]([N+:3]1=[C:5]([H:14])[C:4]1([H:11])[H:12])[H:10])([H:6])([H:7])[H:8].[H:9][H:13]"
C        1.81376346       0.52322900      -0.38785169
C        0.81648110      -0.44562480       0.18206831
N       -0.45591590      -0.23824492      -0.17244476
C       -1.65000857       0.19340397      -0.80211377
C       -1.61953411      -0.35642785       0.58093621
H        2.09725823       0.28496923      -1.41580984
H        1.40610072       1.53583432      -0.38134675
H        2.72995264       0.51073527       0.20644060
H        0.32391840      -0.10208102       1.87090587
H        1.12241257      -1.48923319       0.17338629
H       -1.86824010      -0.42638397      -1.67116815
H       -1.79280399       1.26683195      -0.90099728
H       -0.85418313       0.06238806       1.91596662
H       -2.06920133      -1.31939605       0.80202834
14
Frame=12 idx=003989 GeodesicLength=1.055448329670843 rxn_smarts="[C:1]([C:2]([N:3]1[C:4]([H:11])([H:12])[C:5]1([H:13])[H:14])([H:9])[H:10])([H:6])([H:7])[H:8]>>[C:1]([C-:2]([N+:3]1=[C:5]([H:14])[C:4]1([H:11])[H:12])[H:10])([H:6])([H:7])[H:8].[H:9][H:13]"
C        1.82185212       0.52798632      -0.36891685
C        0.81174894      -0.44544135       0.17369305
N       -0.45771995      -0.18788604      -0.16948933
C       -1.66345454       0.17251343      -0.81917225
C       -1.62080773      -0.30478800       0.59076447
H        2.08754439       0.32947492      -1.40984272
H        1.43260882       1.54659767      -0.31474350
H        2.74574353       0.47346958       0.21115732
H        0.35242838      -0.15811978       1.86683263
H        1.09653868      -1.49285870       0.10214266
H       -1.85947479      -0.50013543      -1.65386569
H       -1.83697861       1.23409868      -0.97590467
H       -0.85663712       0.07587707       1.93180718
H       -2.05339209      -1.27078838       0.83553769
14
Frame=13 idx=003989 GeodesicLength=1.1423676997492402 rxn_smarts="[C:1]([C:2]([N:3]1[C:4]([H:11])([H:12])[C:5]1([H:13])[H:14])([H:9])[H:10])([H:6])([H:7])[H:8]>>[C:1]([C-:2]([N+:3]1=[C:5]([H:14])[C:4]1([H:11])[H:12])[H:10])([H:6])([H:7])[H:8].[H:9][H:13]"
C        1.83020723       0.53215782      -0.34982758
C        0.80553754      -0.44435265       0.16300831
N       -0.45930613      -0.13535418      -0.16775368
C       -1.67552602       0.15000708      -0.83387280
C       -1.62161895      -0.25208429       0.59955893
H        2.07966478       0.37553101      -1.40170649
H        1.46082948       1.55457322      -0.24694022
H        2.76013254       0.43474665       0.21501415
H        0.37854349      -0.21693108       1.85831819
H        1.06844798      -1.49157798       0.02891426
H       -1.84779493      -0.57366621      -1.63058688
H       -1.88179710       1.19506567      -1.04868697
H       -0.86026117       0.09215047       1.94630591
H       -2.03705876      -1.22026552       0.86825486
14
Frame=14 idx=003989 GeodesicLength=1.2292364105806526 rxn_smarts="[C:1]([C:2]([N:3]1[C:4]([H:11])([H:12])[C:5]1([H:13])[H:14])([H:9])[H:10])([H:6])([H:7])[H:8]>>[C:1]([C-:2]([N+:3]1=[C:5]([H:14])[C:4]1([H:11])[H:12])[H:10])([H:6])([H:7])[H:8].[H:9][H:13]"
C        1.83853344       0.53566681      -0.33078749
C        0.79798336      -0.44250099       0.15013858
N       -0.46071601      -0.08240777      -0.16774267
C       -1.68587740       0.12632193      -0.84590752
C       -1.62192629      -0.19932208       0.60709910
H        2.07363020       0.42271745      -1.39138571
H        1.48988940       1.55936399      -0.17843545
H        2.77283003       0.39514975       0.21776922
H        0.40176930      -0.27787203       1.84491300
H        1.03945282      -1.48555267      -0.04498462
H       -1.83370802      -0.64538811      -1.60173668
H       -1.92609496       1.15026427      -1.11770953
H       -0.86528951       0.11226324       1.95899058
H       -2.02047637      -1.16870379       0.89977918
14
Frame=15 idx=003989 GeodesicLength=1.3161379027088425 rxn_smarts="[C:1]([C:2]([N:3]1[C:4]([H:11])([H:12])[C:5]1([H:13])[H:14])([H:9])[H:10])([H:6])([H:7])[H:8]>>[C:1]([C-:2]([N+:3]1=[C:5]([H:14])[C:4]1([H:11])[H:12])[H:10])([H:6])([H:7])[H:8].[H:9][H:13]"
C        1.84648190       0.53851811      -0.31181121
C        0.78939693      -0.44022314       0.13526877
N       -0.46193317      -0.03088199      -0.16997430
C       -1.69439459       0.10180646      -0.85526081
C       -1.62159046      -0.14710023       0.61318873
H        2.06914352       0.47106756      -1.37880029
H        1.51874362       1.56057057      -0.10914436
H        2.78364054       0.35527642       0.21923997
H        0.42184655      -0.34076412       1.82640521
H        1.01095321      -1.47527621      -0.11876922
H       -1.81819189      -0.71434310      -1.56783451
H       -1.96862570       1.10039797      -1.18209669
H       -0.87162145       0.13743812       1.96947241
H       -2.00384901      -1.11648643       0.93011630
14
Frame=16 idx=003989 GeodesicLength=1.40313622323366 rxn_smarts="[C:1]([C:2]([N:3]1[C:4]([H:11])([H:12])[C:5]1([H:13])[H:14])([H:9])[H:10])([H:6])([H:7])[H:8]>>[C:1]([C-:2]([N+:3]1=[C:5]([H:14])[C:4]1([H:11])[H:12])[H:10])([H:6])([H:7])[H:8].[H:9][H:13]"
C        1.85381050       0.54071363      -0.29283102
C        0.78016761      -0.43788102       0.11859023
N       -0.46289060       0.01784734      -0.17486687
C       -1.70123777       0.07683997      -0.86202605
C       -1.62042453      -0.09583046       0.61767374
H        2.06609524       0.52039566      -1.36370526
H        1.54637397       1.55787109      -0.03926400
H        2.79244845       0.31589474       0.21955073
H        0.43874210      -0.40549154       1.80267218
H        0.98415210      -1.46141378      -0.19189725
H       -1.80240714      -0.77991898      -1.52944365
H       -2.00865260       1.04639126      -1.24125920
H       -0.87905696       0.16850000       1.97753819
H       -1.98712038      -1.06391792       0.95926824
