13
Frame=0 idx=008308 GeodesicLength=0.0 rxn_smarts="[C:1]([O:2][c:3]1[c:4]([H:11])[n:5]([H:12])[c:6]([H:13])[n:7]1)([H:8])([H:9])[H:10]>>[C:1]([O:2][c:3]1[c-:4][n:5]([H:12])[c:6]#[n+:7]1)([H:8])([H:9])[H:10].[H:11][H:13]"
C        2.28386188       0.33789648      -0.38982647
O        1.28811193      -0.66250723      -0.16773791
C        0.11261274      -0.22081946       0.20642554
C       -1.03196163      -1.16335282       0.38801410
N       -1.85276535      -0.39446208       1.21311806
C       -1.62606268       0.72737772       0.42029113
N       -0.26859765       1.01049386       0.32291332
H        1.95876393       1.02076773      -1.17524973
H        3.17941857      -0.19733714      -0.69170334
H        2.46461214       0.90336443       0.52475439
H       -1.70090328      -0.74078899      -0.99012094
H       -2.80792660      -0.71398474       1.30070293
H       -1.99916405       0.09335225      -0.96158109
13
Frame=1 idx=008308 GeodesicLength=0.2674880132192122 rxn_smarts="[C:1]([O:2][c:3]1[c:4]([H:11])[n:5]([H:12])[c:6]([H:13])[n:7]1)([H:8])([H:9])[H:10]>>[C:1]([O:2][c:3]1[c-:4][n:5]([H:12])[c:6]#[n+:7]1)([H:8])([H:9])[H:10].[H:11][H:13]"
C        2.30911281       0.34225135      -0.37092304
O        1.30030014      -0.65650128      -0.20714847
C        0.11860929      -0.21808111       0.15075153
C       -1.00720731      -1.16476690       0.38445655
N       -1.82755549      -0.38904703       1.19523902
C       -1.61191752       0.74536546       0.41687933
N       -0.26099265       1.01548309       0.27323649
H        2.01404135       1.04525692      -1.15038908
H        3.21143791      -0.19209457      -0.65377675
H        2.46266322       0.88588913       0.56170940
H       -1.80863280      -0.81127778      -0.97265535
H       -2.78194336      -0.70518623       1.30200858
H       -2.11791560       0.10270894      -0.92938823
13
Frame=2 idx=008308 GeodesicLength=0.5342668155381256 rxn_smarts="[C:1]([O:2][c:3]1[c:4]([H:11])[n:5]([H:12])[c:6]([H:13])[n:7]1)([H:8])([H:9])[H:10]>>[C:1]([O:2][c:3]1[c-:4][n:5]([H:12])[c:6]#[n+:7]1)([H:8])([H:9])[H:10].[H:11][H:13]"
C        2.33373149       0.34647595      -0.35002994
O        1.31385242      -0.64956019      -0.24883908
C        0.12444818      -0.21557368       0.08855806
C       -0.98139244      -1.16532577       0.37414814
N       -1.79958200      -0.38347522       1.17305780
C       -1.59614261       0.76331381       0.40895608
N       -0.25346891       1.02030154       0.21770617
H        2.07064626       1.07005319      -1.12205646
H        3.24307003      -0.18695478      -0.61153086
H        2.45623417       0.86705251       0.60019597
H       -1.91892913      -0.89070604      -0.94563224
H       -2.75213620      -0.69603307       1.30404285
H       -2.24033126       0.12043175      -0.88857647
13
Frame=3 idx=008308 GeodesicLength=0.8000166267040487 rxn_smarts="[C:1]([O:2][c:3]1[c:4]([H:11])[n:5]([H:12])[c:6]([H:13])[n:7]1)([H:8])([H:9])[H:10]>>[C:1]([O:2][c:3]1[c-:4][n:5]([H:12])[c:6]#[n+:7]1)([H:8])([H:9])[H:10].[H:11][H:13]"
C        2.35695407       0.35043226      -0.32733355
O        1.32902726      -0.64188438      -0.29119974
C        0.13051131      -0.21356740       0.02086481
C       -0.95460661      -1.16527345       0.35621028
N       -1.76962562      -0.37840665       1.14528450
C       -1.57815536       0.78118796       0.39680701
N       -0.24578250       1.02464192       0.15652596
H        2.12732926       1.09368535      -1.09124209
H        3.27342698      -0.18218242      -0.56445635
H        2.44466047       0.84830636       0.63877414
H       -2.02743845      -0.98065686      -0.90909065
H       -2.71898942      -0.68690614       1.30500168
H       -2.36731140       0.15062344      -0.83614601
13
Frame=4 idx=008308 GeodesicLength=1.0644294077689864 rxn_smarts="[C:1]([O:2][c:3]1[c:4]([H:11])[n:5]([H:12])[c:6]([H:13])[n:7]1)([H:8])([H:9])[H:10]>>[C:1]([O:2][c:3]1[c-:4][n:5]([H:12])[c:6]#[n+:7]1)([H:8])([H:9])[H:10].[H:11][H:13]"
C        2.37813144       0.35437958      -0.30534718
O        1.34596020      -0.63400363      -0.32987876
C        0.13830471      -0.21232574      -0.04362869
C       -0.92751080      -1.16506361       0.33332050
N       -1.74317329      -0.37472793       1.10993086
C       -1.55801701       0.79910552       0.38173801
N       -0.23658636       1.02829716       0.09796989
H        2.17924769       1.11484691      -1.06085118
H        3.30095468      -0.17746400      -0.51846211
H        2.43153020       0.83164223       0.67360666
H       -2.12766204      -1.08676314      -0.86255906
H       -2.68876004      -0.67841944       1.29765773
H       -2.49241938       0.20049611      -0.77349667
13
Frame=5 idx=008308 GeodesicLength=1.3269847361130251 rxn_smarts="[C:1]([O:2][c:3]1[c:4]([H:11])[n:5]([H:12])[c:6]([H:13])[n:7]1)([H:8])([H:9])[H:10]>>[C:1]([O:2][c:3]1[c-:4][n:5]([H:12])[c:6]#[n+:7]1)([H:8])([H:9])[H:10].[H:11][H:13]"
C        2.39779145       0.35843810      -0.28506511
O        1.36441035      -0.62584020      -0.36452093
C        0.14826551      -0.21132729      -0.10256381
C       -0.90023912      -1.16465416       0.30708633
N       -1.72390705      -0.37280649       1.06471661
C       -1.53597500       0.81750665       0.36460997
N       -0.22525782       1.03171183       0.04493474
H        2.22605664       1.13391477      -1.03186388
H        3.32590146      -0.17272443      -0.47596589
H        2.41904719       0.81694357       0.70402419
H       -2.21457149      -1.21993634      -0.80410938
H       -2.66565999      -0.67097643       1.27734451
H       -2.61586212       0.27975040      -0.69862734
13
Frame=6 idx=008308 GeodesicLength=1.5867063103792753 rxn_smarts="[C:1]([O:2][c:3]1[c:4]([H:11])[n:5]([H:12])[c:6]([H:13])[n:7]1)([H:8])([H:9])[H:10]>>[C:1]([O:2][c:3]1[c-:4][n:5]([H:12])[c:6]#[n+:7]1)([H:8])([H:9])[H:10].[H:11][H:13]"
C        2.41705096       0.36285501      -0.26957809
O        1.38450394      -0.61825039      -0.38930900
C        0.16136260      -0.21017180      -0.14779606
C       -0.87353170      -1.16436228       0.28117973
N       -1.72058319      -0.37420785       1.00434191
C       -1.51262817       0.83710473       0.34854352
N       -0.21011089       1.03515942       0.00735944
H        2.26511175       1.14882036      -1.00966076
H        3.34884617      -0.16798236      -0.44312588
H        2.41357598       0.80786216       0.72593620
H       -2.27597366      -1.39773409      -0.73237913
H       -2.66043543      -0.66620268       1.23137218
H       -2.73718835       0.40710976      -0.60688406
13
Frame=7 idx=008308 GeodesicLength=1.8408609067681243 rxn_smarts="[C:1]([O:2][c:3]1[c:4]([H:11])[n:5]([H:12])[c:6]([H:13])[n:7]1)([H:8])([H:9])[H:10]>>[C:1]([O:2][c:3]1[c-:4][n:5]([H:12])[c:6]#[n+:7]1)([H:8])([H:9])[H:10].[H:11][H:13]"
C        2.43724402       0.36789727      -0.26621478
O        1.40490454      -0.61238645      -0.39341931
C        0.17903932      -0.20767351      -0.15887446
C       -0.84902830      -1.16418183       0.26706572
N       -1.75122631      -0.38039642       0.91570452
C       -1.49040439       0.85955938       0.33964125
N       -0.18727859       1.03931209       0.01236425
H        2.28840867       1.15730222      -1.00315897
H        3.36919895      -0.16314494      -0.43818073
H        2.43004606       0.80828413       0.73126008
H       -2.28696065      -1.65053279      -0.63918762
H       -2.69612970      -0.66567909       1.12760583
H       -2.84781361       0.61163995      -0.49460580
13
Frame=8 idx=008308 GeodesicLength=2.076858074386787 rxn_smarts="[C:1]([O:2][c:3]1[c:4]([H:11])[n:5]([H:12])[c:6]([H:13])[n:7]1)([H:8])([H:9])[H:10]>>[C:1]([O:2][c:3]1[c-:4][n:5]([H:12])[c:6]#[n+:7]1)([H:8])([H:9])[H:10].[H:11][H:13]"
C        2.45747142       0.37212152      -0.27459508
O        1.42168742      -0.60743196      -0.38618326
C        0.19697872      -0.20270392      -0.14186671
C       -0.82896209      -1.16311637       0.26673429
N       -1.82062824      -0.38831530       0.76823246
C       -1.47310135       0.88766688       0.33501033
N       -0.15892622       1.04480158       0.06391530
H        2.29765379       1.16452448      -1.00612323
H        3.38599051      -0.16028344      -0.46374352
H        2.46715740       0.80901873       0.72467518
H       -2.22168439      -2.00003884      -0.47888549
H       -2.77923845      -0.66634023       0.92048429
H       -2.94439851       0.91009687      -0.32765458
13
Frame=9 idx=008308 GeodesicLength=2.2628379216395915 rxn_smarts="[C:1]([O:2][c:3]1[c:4]([H:11])[n:5]([H:12])[c:6]([H:13])[n:7]1)([H:8])([H:9])[H:10]>>[C:1]([O:2][c:3]1[c-:4][n:5]([H:12])[c:6]#[n+:7]1)([H:8])([H:9])[H:10].[H:11][H:13]"
C        2.47314076       0.38291091      -0.30057677
O        1.44305574      -0.61316785      -0.33775401
C        0.22208367      -0.21229517      -0.05363144
C       -0.83106817      -1.17512415       0.26996745
N       -1.91408830      -0.40102902       0.50938228
C       -1.46225616       0.90653767       0.34690442
N       -0.12460740       1.03158622       0.21784080
H        2.25932711       1.17075541      -1.02388667
H        3.39757719      -0.13902744      -0.54796637
H        2.54090247       0.82732263       0.69507590
H       -2.13852654      -2.35521298      -0.18066390
H       -2.89010046      -0.66330171       0.51316013
H       -2.97543990       1.24004550      -0.10785181
13
Frame=10 idx=008308 GeodesicLength=2.348459227357074 rxn_smarts="[C:1]([O:2][c:3]1[c:4]([H:11])[n:5]([H:12])[c:6]([H:13])[n:7]1)([H:8])([H:9])[H:10]>>[C:1]([O:2][c:3]1[c-:4][n:5]([H:12])[c:6]#[n+:7]1)([H:8])([H:9])[H:10].[H:11][H:13]"
C        2.48505470       0.38477181      -0.27732299
O        1.45818211      -0.60874104      -0.36126977
C        0.23010469      -0.21004788      -0.12201048
C       -0.83670165      -1.17372179       0.13574372
N       -1.93643515      -0.39574489       0.19668245
C       -1.46314712       0.91388226       0.26886136
N       -0.12625263       1.02709531       0.17079334
H        2.29884548       1.18274479      -0.99706305
H        3.41404873      -0.13686237      -0.49867912
H        2.51759701       0.81309764       0.72561442
H       -2.11300134      -2.48904623       0.27113770
H       -2.90957916      -0.65625708       0.14232749
H       -3.01871567       1.34882949       0.34518492
13
Frame=11 idx=008308 GeodesicLength=2.439704516849086 rxn_smarts="[C:1]([O:2][c:3]1[c:4]([H:11])[n:5]([H:12])[c:6]([H:13])[n:7]1)([H:8])([H:9])[H:10]>>[C:1]([O:2][c:3]1[c-:4][n:5]([H:12])[c:6]#[n+:7]1)([H:8])([H:9])[H:10].[H:11][H:13]"
C        2.48407994       0.39143066      -0.26793518
O        1.47621351      -0.62101737      -0.31414911
C        0.24261377      -0.23020873      -0.10588520
C       -0.85462335      -1.18383582       0.01788753
N       -1.92962140      -0.37918978      -0.10092983
C       -1.46931115       0.90163525       0.21971533
N       -0.13225823       1.00617914       0.17352097
H        2.28389277       1.16336038      -1.01108011
H        3.41972651      -0.12019821      -0.47649341
H        2.51225403       0.84993285       0.72106074
H       -2.16496929      -2.36626322       0.63721191
H       -2.89676359      -0.62883614      -0.23275419
H       -2.97123353       1.21701101       0.73983054
13
Frame=12 idx=008308 GeodesicLength=2.5886888049241907 rxn_smarts="[C:1]([O:2][c:3]1[c:4]([H:11])[n:5]([H:12])[c:6]([H:13])[n:7]1)([H:8])([H:9])[H:10]>>[C:1]([O:2][c:3]1[c-:4][n:5]([H:12])[c:6]#[n+:7]1)([H:8])([H:9])[H:10].[H:11][H:13]"
C        2.47446980       0.39449461      -0.25839958
O        1.48067397      -0.63287229      -0.27982715
C        0.24116723      -0.25155597      -0.09241033
C       -0.87546934      -1.19322438      -0.08113513
N       -1.90339250      -0.35405082      -0.33113903
C       -1.48779454       0.88726823       0.18181297
N       -0.14931430       0.98816463       0.16967948
H        2.26537564       1.14843897      -1.01751623
H        3.41661958      -0.10902694      -0.45759059
H        2.49620725       0.87406758       0.72070347
H       -2.22013437      -2.10570959       0.92680755
H       -2.86348931      -0.59726106      -0.51469139
H       -2.87491910       0.95126701       1.03370596
13
Frame=13 idx=008308 GeodesicLength=2.766638457756537 rxn_smarts="[C:1]([O:2][c:3]1[c:4]([H:11])[n:5]([H:12])[c:6]([H:13])[n:7]1)([H:8])([H:9])[H:10]>>[C:1]([O:2][c:3]1[c-:4][n:5]([H:12])[c:6]#[n+:7]1)([H:8])([H:9])[H:10].[H:11][H:13]"
C        2.45769597       0.39373576      -0.24331958
O        1.47150238      -0.64064753      -0.26956426
C        0.22666568      -0.26576371      -0.10922338
C       -0.89847307      -1.20034437      -0.15172269
N       -1.88340858      -0.33307079      -0.47993628
C       -1.51449353       0.87457923       0.15663836
N       -0.17510211       0.97742807       0.14079210
H        2.25564604       1.14130275      -1.01035142
H        3.40547662      -0.10511544      -0.42707813
H        2.46183996       0.87981294       0.73269968
H       -2.22960761      -1.84906320       1.13210061
H       -2.83595707      -0.57359410      -0.70017934
H       -2.74178470       0.70074039       1.22914431
13
Frame=14 idx=008308 GeodesicLength=2.951339744778547 rxn_smarts="[C:1]([O:2][c:3]1[c:4]([H:11])[n:5]([H:12])[c:6]([H:13])[n:7]1)([H:8])([H:9])[H:10]>>[C:1]([O:2][c:3]1[c-:4][n:5]([H:12])[c:6]#[n+:7]1)([H:8])([H:9])[H:10].[H:11][H:13]"
C        2.43680312       0.38989083      -0.21594150
O        1.45307308      -0.64432444      -0.29381391
C        0.20319308      -0.27290796      -0.17247529
C       -0.92544544      -1.20756707      -0.21280029
N       -1.88498515      -0.32289188      -0.57779386
C       -1.54660943       0.86302850       0.13102604
N       -0.20770438       0.97242203       0.07602838
H        2.26318573       1.15012765      -0.97743805
H        3.39073073      -0.10601176      -0.37446430
H        2.40498232       0.85966548       0.76750777
H       -2.17491702      -1.63706450       1.29810414
H       -2.83241974      -0.56455527      -0.81760232
H       -2.57988689       0.52018838       1.36966320
13
Frame=15 idx=008308 GeodesicLength=3.1388980006431164 rxn_smarts="[C:1]([O:2][c:3]1[c:4]([H:11])[n:5]([H:12])[c:6]([H:13])[n:7]1)([H:8])([H:9])[H:10]>>[C:1]([O:2][c:3]1[c-:4][n:5]([H:12])[c:6]#[n+:7]1)([H:8])([H:9])[H:10].[H:11][H:13]"
C        2.41008059       0.38419390      -0.18345102
O        1.43042412      -0.64683300      -0.32775143
C        0.17651035      -0.27876608      -0.24754052
C       -0.95426860      -1.21576693      -0.26614888
N       -1.89721921      -0.31820551      -0.65002742
C       -1.57901313       0.85101949       0.10990503
N       -0.24282708       0.96829279       0.00311068
H        2.27013265       1.16296221      -0.93303588
H        3.36965395      -0.10909993      -0.31400581
H        2.33631082       0.82988636       0.80891286
H       -2.07771520      -1.46637135       1.43493373
H       -2.83889507      -0.56000003      -0.91039279
H       -2.40317418       0.39868808       1.47549146
13
Frame=16 idx=008308 GeodesicLength=3.328200381149209 rxn_smarts="[C:1]([O:2][c:3]1[c:4]([H:11])[n:5]([H:12])[c:6]([H:13])[n:7]1)([H:8])([H:9])[H:10]>>[C:1]([O:2][c:3]1[c-:4][n:5]([H:12])[c:6]#[n+:7]1)([H:8])([H:9])[H:10].[H:11][H:13]"
C        2.37800980       0.37735607      -0.15078420
O        1.40599036      -0.64944417      -0.36163989
C        0.14905439      -0.28653731      -0.31546028
C       -0.98411252      -1.22535564      -0.30978691
N       -1.91183612      -0.31596809      -0.70891523
C       -1.61038040       0.83711975       0.09565188
N       -0.27872554       0.96229867      -0.06250127
H        2.26827369       1.17597056      -0.88431656
H        3.34241146      -0.11250718      -0.25667892
H        2.26412971       0.79637762       0.84935936
H       -1.95449770      -1.32561646       1.55043545
H       -2.84450176      -0.55428076      -1.00111665
H       -2.22381538       0.32058694       1.55575323
