15
Frame=0 idx=008137 GeodesicLength=0.0 rxn_smarts="[C:1]1([H:8])([H:9])[O:2][C@@:3]2([H:10])[C:4]([H:11])([H:12])[C@:5]1([H:13])[C:6]([H:14])([H:15])[O:7]2>>[C:1]1([H:8])([H:9])[O+:2]=[C-:3][C:4]([H:11])([H:12])[C@:5]1([C:6]([O:7][H:10])([H:14])[H:15])[H:13]"
C       -1.28611745       0.60063341       0.38144892
O       -0.94789353       1.13901817      -0.94108965
C       -0.03445740       0.37819579      -1.49239169
C       -0.11356434      -0.97584675      -0.86719207
C       -0.21931660      -0.47368338       0.57562475
C        1.16705459       0.13830966       0.82331866
O        1.58111022       0.92678562      -0.25938602
H       -2.30497740       0.20882589       0.35744797
H       -1.22127953       1.43494273       1.07956056
H        1.12195739       0.82698644      -1.43216749
H        0.75525354      -1.59698326      -1.07061679
H       -1.02304927      -1.47843374      -1.21013096
H       -0.49333599      -1.21825713       1.32341978
H        1.14349894       0.77154245       1.72032777
H        1.87511677      -0.68203586       1.01182626
15
Frame=1 idx=008137 GeodesicLength=0.05140236168303372 rxn_smarts="[C:1]1([H:8])([H:9])[O:2][C@@:3]2([H:10])[C:4]([H:11])([H:12])[C@:5]1([H:13])[C:6]([H:14])([H:15])[O:7]2>>[C:1]1([H:8])([H:9])[O+:2]=[C-:3][C:4]([H:11])([H:12])[C@:5]1([C:6]([O:7][H:10])([H:14])[H:15])[H:13]"
C       -1.28560801       0.60160710       0.38286423
O       -0.95497146       1.13580314      -0.94258191
C       -0.03397056       0.37877350      -1.49174294
C       -0.11471983      -0.97686211      -0.86744299
C       -0.22071768      -0.47495507       0.57588431
C        1.16457093       0.13780401       0.82598629
O        1.57158094       0.93053168      -0.25787480
H       -2.30540394       0.21195280       0.36465175
H       -1.21570974       1.43665757       1.07969084
H        1.13934655       0.82757074      -1.44241698
H        0.75506358      -1.59699384      -1.07103579
H       -1.02183553      -1.48160734      -1.21279567
H       -0.49538513      -1.22018007       1.32254927
H        1.14103941       0.76940358       1.72368697
H        1.87672045      -0.67950569       1.01057741
15
Frame=2 idx=008137 GeodesicLength=0.10280034645410754 rxn_smarts="[C:1]1([H:8])([H:9])[O:2][C@@:3]2([H:10])[C:4]([H:11])([H:12])[C@:5]1([H:13])[C:6]([H:14])([H:15])[O:7]2>>[C:1]1([H:8])([H:9])[O+:2]=[C-:3][C:4]([H:11])([H:12])[C@:5]1([C:6]([O:7][H:10])([H:14])[H:15])[H:13]"
C       -1.28513811       0.60255098       0.38430321
O       -0.96219539       1.13249148      -0.94404911
C       -0.03351328       0.37944251      -1.49106977
C       -0.11591893      -0.97783815      -0.86772999
C       -0.22212326      -0.47622708       0.57613597
C        1.16208846       0.13732143       0.82860213
O        1.56207024       0.93410357      -0.25652881
H       -2.30582976       0.21504168       0.37195440
H       -1.21017401       1.43836262       1.07978006
H        1.15706733       0.82808238      -1.45228798
H        0.75481911      -1.59696917      -1.07152076
H       -1.02063670      -1.48474664      -1.21551606
H       -0.49740079      -1.22211816       1.32166525
H        1.13858956       0.76741462       1.72690130
H        1.87829554      -0.67691208       1.00936016
15
Frame=3 idx=008137 GeodesicLength=0.1539102771352659 rxn_smarts="[C:1]1([H:8])([H:9])[O:2][C@@:3]2([H:10])[C:4]([H:11])([H:12])[C@:5]1([H:13])[C:6]([H:14])([H:15])[O:7]2>>[C:1]1([H:8])([H:9])[O+:2]=[C-:3][C:4]([H:11])([H:12])[C@:5]1([C:6]([O:7][H:10])([H:14])[H:15])[H:13]"
C       -1.28467015       0.60346887       0.38575234
O       -0.96949496       1.12919277      -0.94550478
C       -0.03303194       0.38014127      -1.49040866
C       -0.11714520      -0.97880234      -0.86804155
C       -0.22353526      -0.47749593       0.57637220
C        1.15961529       0.13685621       0.83118297
O        1.55256784       0.93758023      -0.25525818
H       -2.30628135       0.21807770       0.37934902
H       -1.20467478       1.44004156       1.07983701
H        1.17497122       0.82856820      -1.46197492
H        0.75451055      -1.59695449      -1.07199243
H       -1.01945231      -1.48785153      -1.21827994
H       -0.49938015      -1.22405287       1.32076336
H        1.13614475       0.76549651       1.73004844
H        1.87985644      -0.67426617       1.00815513
15
Frame=4 idx=008137 GeodesicLength=0.20556157669629752 rxn_smarts="[C:1]1([H:8])([H:9])[O:2][C@@:3]2([H:10])[C:4]([H:11])([H:12])[C@:5]1([H:13])[C:6]([H:14])([H:15])[O:7]2>>[C:1]1([H:8])([H:9])[O+:2]=[C-:3][C:4]([H:11])([H:12])[C@:5]1([C:6]([O:7][H:10])([H:14])[H:15])[H:13]"
C       -1.28431081       0.60435166       0.38724807
O       -0.97705114       1.12558479      -0.94689345
C       -0.03274365       0.38102349      -1.48967896
C       -0.11845072      -0.97968262      -0.86840799
C       -0.22494804      -0.47877066       0.57660955
C        1.15712166       0.13642400       0.83366400
O        1.54310889       0.94073426      -0.25433489
H       -2.30667131       0.22111615       0.38684924
H       -1.19919690       1.44173972       1.07983069
H        1.19351880       0.82894098      -1.47085783
H        0.75417067      -1.59680685      -1.07269244
H       -1.01828358      -1.49095212      -1.22109149
H       -0.50133098      -1.22603186       1.31985812
H        1.13371985       0.76387073       1.73288706
H        1.88134725      -0.67154164       1.00701032
15
Frame=5 idx=008137 GeodesicLength=0.2568251086216603 rxn_smarts="[C:1]1([H:8])([H:9])[O:2][C@@:3]2([H:10])[C:4]([H:11])([H:12])[C@:5]1([H:13])[C:6]([H:14])([H:15])[O:7]2>>[C:1]1([H:8])([H:9])[O+:2]=[C-:3][C:4]([H:11])([H:12])[C@:5]1([C:6]([O:7][H:10])([H:14])[H:15])[H:13]"
C       -1.28393211       0.60521635       0.38874789
O       -0.98463996       1.12202968      -0.94827020
C       -0.03241586       0.38190137      -1.48896980
C       -0.11976036      -0.98057219      -0.86877334
C       -0.22636729      -0.48004735       0.57683881
C        1.15464473       0.13598747       0.83613071
O        1.53362227       0.94384048      -0.25345179
H       -2.30708928       0.22409877       0.39440227
H       -1.19374112       1.44340245       1.07981202
H        1.21219475       0.82935091      -1.47973067
H        0.75375184      -1.59668982      -1.07336042
H       -1.01714058      -1.49402217      -1.22393440
H       -0.50325821      -1.22800489       1.31894250
H        1.13129056       0.76228963       1.73572789
H        1.88284062      -0.66878068       1.00588854
15
Frame=6 idx=008137 GeodesicLength=0.3083112374554262 rxn_smarts="[C:1]1([H:8])([H:9])[O:2][C@@:3]2([H:10])[C:4]([H:11])([H:12])[C@:5]1([H:13])[C:6]([H:14])([H:15])[O:7]2>>[C:1]1([H:8])([H:9])[O+:2]=[C-:3][C:4]([H:11])([H:12])[C@:5]1([C:6]([O:7][H:10])([H:14])[H:15])[H:13]"
C       -1.28364475       0.60603971       0.39028837
O       -0.99245881       1.11831203      -0.94959395
C       -0.03225667       0.38290370      -1.48825701
C       -0.12117193      -0.98139334      -0.86922886
C       -0.22779306      -0.48130953       0.57703761
C        1.15215133       0.13562516       0.83848636
O        1.52423669       0.94670402      -0.25281179
H       -2.30750461       0.22705675       0.40212945
H       -1.18835898       1.44507323       1.07972202
H        1.23144086       0.82957756      -1.48784684
H        0.75331575      -1.59647894      -1.07415480
H       -1.01599972      -1.49709305      -1.22682380
H       -0.50512161      -1.22998899       1.31799981
H        1.12889329       0.76089780       1.73829139
H        1.88427222      -0.66592609       1.00476204
15
Frame=7 idx=008137 GeodesicLength=0.35968205112194046 rxn_smarts="[C:1]1([H:8])([H:9])[O:2][C@@:3]2([H:10])[C:4]([H:11])([H:12])[C@:5]1([H:13])[C:6]([H:14])([H:15])[O:7]2>>[C:1]1([H:8])([H:9])[O+:2]=[C-:3][C:4]([H:11])([H:12])[C@:5]1([C:6]([O:7][H:10])([H:14])[H:15])[H:13]"
C       -1.28337230       0.60684119       0.39184442
O       -1.00037298       1.11454144      -0.95088071
C       -0.03215038       0.38394767      -1.48753960
C       -0.12260752      -0.98220184      -0.86969201
C       -0.22922459      -0.48257680       0.57722995
C        1.14966106       0.13526540       0.84080078
O        1.51484539       0.94944410      -0.25230497
H       -2.30791310       0.22997712       0.40991828
H       -1.18299256       1.44672204       1.07960674
H        1.25099142       0.82982051      -1.49573921
H        0.75281072      -1.59624581      -1.07499920
H       -1.01488549      -1.50015021      -1.22973593
H       -0.50696399      -1.23198311       1.31704709
H        1.12649279       0.75962498       1.74077260
H        1.88568151      -0.66302667       1.00367177
15
Frame=8 idx=008137 GeodesicLength=0.4110575130623177 rxn_smarts="[C:1]1([H:8])([H:9])[O:2][C@@:3]2([H:10])[C:4]([H:11])([H:12])[C@:5]1([H:13])[C:6]([H:14])([H:15])[O:7]2>>[C:1]1([H:8])([H:9])[O+:2]=[C-:3][C:4]([H:11])([H:12])[C@:5]1([C:6]([O:7][H:10])([H:14])[H:15])[H:13]"
C       -1.28314145       0.60761601       0.39342499
O       -1.00842377       1.11068208      -0.95212338
C       -0.03215260       0.38505079      -1.48682957
C       -0.12409517      -0.98298383      -0.87019123
C       -0.23066196      -0.48384203       0.57740770
C        1.14716853       0.13493185       0.84304695
O        1.50547641       0.95202598      -0.25197068
H       -2.30831903       0.23286803       0.41780672
H       -1.17766144       1.44836060       1.07945180
H        1.27095575       0.83002694      -1.50321374
H        0.75225582      -1.59596662      -1.07592430
H       -1.01379321      -1.50320786      -1.23267326
H       -0.50877048      -1.23398450       1.31608277
H        1.12410498       0.75849093       1.74310591
H        1.88705760      -0.66006838       1.00259932
15
Frame=9 idx=008137 GeodesicLength=0.4624299359416759 rxn_smarts="[C:1]1([H:8])([H:9])[O:2][C@@:3]2([H:10])[C:4]([H:11])([H:12])[C@:5]1([H:13])[C:6]([H:14])([H:15])[O:7]2>>[C:1]1([H:8])([H:9])[O+:2]=[C-:3][C:4]([H:11])([H:12])[C@:5]1([C:6]([O:7][H:10])([H:14])[H:15])[H:13]"
C       -1.28295243       0.60836402       0.39503009
O       -1.01661062       1.10673574      -0.95331791
C       -0.03227371       0.38620925      -1.48612917
C       -0.12563688      -0.98374100      -0.87072571
C       -0.23210574      -0.48510501       0.57756955
C        1.14467234       0.13462580       0.84522158
O        1.49612903       0.95445298      -0.25181067
H       -2.30872036       0.23572957       0.42579480
H       -1.17236663       1.44998774       1.07925723
H        1.29135053       0.83019876      -1.51026318
H        0.75164969      -1.59563994      -1.07693116
H       -1.01272453      -1.50626971      -1.23563065
H       -0.51054000      -1.23599235       1.31510632
H        1.12172952       0.75749444       1.74529006
H        1.88839980      -0.65705029       1.00153882
15
Frame=10 idx=008137 GeodesicLength=0.5138018332837223 rxn_smarts="[C:1]1([H:8])([H:9])[O:2][C@@:3]2([H:10])[C:4]([H:11])([H:12])[C@:5]1([H:13])[C:6]([H:14])([H:15])[O:7]2>>[C:1]1([H:8])([H:9])[O+:2]=[C-:3][C:4]([H:11])([H:12])[C@:5]1([C:6]([O:7][H:10])([H:14])[H:15])[H:13]"
C       -1.28280589       0.60908529       0.39665963
O       -1.02493502       1.10270336      -0.95446135
C       -0.03252741       0.38741736      -1.48544380
C       -0.12723521      -0.98447598      -0.87129558
C       -0.23355646      -0.48636555       0.57771395
C        1.14217190       0.13434781       0.84732074
O        1.48680379       0.95672739      -0.25182849
H       -2.30911642       0.23856258       0.43388385
H       -1.16710793       1.45160340       1.07902263
H        1.31219546       0.83034326      -1.51687255
H        0.75099182      -1.59526435      -1.07802248
H       -1.01168197      -1.50934175      -1.23860276
H       -0.51227178      -1.23800557       1.31411775
H        1.11936753       0.75663569       1.74732189
H        1.88970760      -0.65397294       1.00048657
15
Frame=11 idx=008137 GeodesicLength=0.5651721950254931 rxn_smarts="[C:1]1([H:8])([H:9])[O:2][C@@:3]2([H:10])[C:4]([H:11])([H:12])[C@:5]1([H:13])[C:6]([H:14])([H:15])[O:7]2>>[C:1]1([H:8])([H:9])[O+:2]=[C-:3][C:4]([H:11])([H:12])[C@:5]1([C:6]([O:7][H:10])([H:14])[H:15])[H:13]"
C       -1.28270272       0.60977977       0.39831428
O       -1.03339800       1.09858638      -0.95555008
C       -0.03292507       0.38867063      -1.48477779
C       -0.12889288      -0.98519085      -0.87190091
C       -0.23501440      -0.48762339       0.57783989
C        1.13966682       0.13409904       0.84934064
O        1.47749785       0.95885242      -0.25202754
H       -2.30950689       0.24136708       0.44207484
H       -1.16188658       1.45320681       1.07874855
H        1.33351235       0.83046297      -1.52302953
H        0.75028090      -1.59483883      -1.07920088
H       -1.01066840      -1.51242810      -1.24158556
H       -0.51396436      -1.24002308       1.31311763
H        1.11702010       0.75591476       1.74919878
H        1.89098126      -0.65083561       0.99943768
15
Frame=12 idx=008137 GeodesicLength=0.6165427282682607 rxn_smarts="[C:1]1([H:8])([H:9])[O:2][C@@:3]2([H:10])[C:4]([H:11])([H:12])[C@:5]1([H:13])[C:6]([H:14])([H:15])[O:7]2>>[C:1]1([H:8])([H:9])[O+:2]=[C-:3][C:4]([H:11])([H:12])[C@:5]1([C:6]([O:7][H:10])([H:14])[H:15])[H:13]"
C       -1.28264389       0.61044719       0.39999453
O       -1.04200171       1.09438541      -0.95658108
C       -0.03347944       0.38996423      -1.48413595
C       -0.13061309      -0.98588809      -0.87254197
C       -0.23647985      -0.48887843       0.57794608
C        1.13715669       0.13388099       0.85127647
O        1.46820893       0.96082947      -0.25241334
H       -2.30989130       0.24414324       0.45036941
H       -1.15670318       1.45479750       1.07843507
H        1.35532562       0.83056319      -1.52871517
H        0.74951512      -1.59436246      -1.08046955
H       -1.00968739      -1.51553359      -1.24457462
H       -0.51561601      -1.24204389       1.31210653
H        1.11468869       0.75533277       1.75091641
H        1.89222081      -0.64763754       0.99838717
15
Frame=13 idx=008137 GeodesicLength=0.6679134248724075 rxn_smarts="[C:1]1([H:8])([H:9])[O:2][C@@:3]2([H:10])[C:4]([H:11])([H:12])[C@:5]1([H:13])[C:6]([H:14])([H:15])[O:7]2>>[C:1]1([H:8])([H:9])[O+:2]=[C-:3][C:4]([H:11])([H:12])[C@:5]1([C:6]([O:7][H:10])([H:14])[H:15])[H:13]"
C       -1.28263035       0.61108731       0.40170095
O       -1.05074897       1.09010097      -0.95755138
C       -0.03420327       0.39129309      -1.48352337
C       -0.13239927      -0.98657026      -0.87321912
C       -0.23795320      -0.49013058       0.57803115
C        1.13464110       0.13369476       0.85312341
O        1.45893475       0.96265980      -0.25299279
H       -2.31026934       0.24689081       0.45876992
H       -1.15155803       1.45637514       1.07808191
H        1.37766056       0.83065006      -1.53390795
H        0.74869244      -1.59383437      -1.08183181
H       -1.00874276      -1.51866311      -1.24756551
H       -0.51722499      -1.24406705       1.31108488
H        1.11237502       0.75489173       1.75246952
H        1.89342628      -0.64437830       0.99733021
15
Frame=14 idx=008137 GeodesicLength=0.7192830006373518 rxn_smarts="[C:1]1([H:8])([H:9])[O:2][C@@:3]2([H:10])[C:4]([H:11])([H:12])[C@:5]1([H:13])[C:6]([H:14])([H:15])[O:7]2>>[C:1]1([H:8])([H:9])[O+:2]=[C-:3][C:4]([H:11])([H:12])[C@:5]1([C:6]([O:7][H:10])([H:14])[H:15])[H:13]"
C       -1.28266323       0.61169962       0.40343433
O       -1.05964332       1.08573333      -0.95845775
C       -0.03510906       0.39265258      -1.48294487
C       -0.13425510      -0.98723980      -0.87393286
C       -0.23943467      -0.49137979       0.57809371
C        1.13211978       0.13354190       0.85487611
O        1.44967198       0.96434474      -0.25377265
H       -2.31064031       0.24960960       0.46727886
H       -1.14645171       1.45793927       1.07768896
H        1.40054433       0.83072795      -1.53858519
H        0.74781036      -1.59325376      -1.08329131
H       -1.00783865      -1.52182108      -1.25055424
H       -0.51878911      -1.24609168       1.31005320
H        1.11008088       0.75459389       1.75385238
H        1.89459782      -0.64105678       0.99626131
15
Frame=15 idx=008137 GeodesicLength=0.7706500438304277 rxn_smarts="[C:1]1([H:8])([H:9])[O:2][C@@:3]2([H:10])[C:4]([H:11])([H:12])[C@:5]1([H:13])[C:6]([H:14])([H:15])[O:7]2>>[C:1]1([H:8])([H:9])[O+:2]=[C-:3][C:4]([H:11])([H:12])[C@:5]1([C:6]([O:7][H:10])([H:14])[H:15])[H:13]"
C       -1.28274367       0.61228361       0.40519547
O       -1.06868899       1.08128249      -0.95929708
C       -0.03620973       0.39403791      -1.48240555
C       -0.13618468      -0.98789927      -0.87468380
C       -0.24092450      -0.49262600       0.57813224
C        1.12959246       0.13342416       0.85652868
O        1.44041724       0.96588494      -0.25476097
H       -2.31100361       0.25229897       0.47589938
H       -1.14138460       1.45948960       1.07725579
H        1.42400591       0.83080206      -1.54272049
H        0.74686586      -1.59261997      -1.08485200
H       -1.00697977      -1.52501207      -1.25353665
H       -0.52030589      -1.24811688       1.30901200
H        1.10780830       0.75444217       1.75505841
H        1.89573567      -0.63767173       0.99517458
15
Frame=16 idx=008137 GeodesicLength=0.8220118414933824 rxn_smarts="[C:1]1([H:8])([H:9])[O:2][C@@:3]2([H:10])[C:4]([H:11])([H:12])[C@:5]1([H:13])[C:6]([H:14])([H:15])[O:7]2>>[C:1]1([H:8])([H:9])[O+:2]=[C-:3][C:4]([H:11])([H:12])[C@:5]1([C:6]([O:7][H:10])([H:14])[H:15])[H:13]"
C       -1.28287278       0.61283868       0.40698521
O       -1.07789101       1.07674798      -0.96006635
C       -0.03751862       0.39544411      -1.48191075
C       -0.13819248      -0.98855147      -0.87547268
C       -0.24242283      -0.49386920       0.57814506
C        1.12705899       0.13334332       0.85807470
O        1.43116719       0.96728040      -0.25596687
H       -2.31135852       0.25495834       0.48463502
H       -1.13635676       1.46102595       1.07678158
H        1.44807547       0.83087870      -1.54628399
H        0.74585551      -1.59193245      -1.08651819
H       -1.00617122      -1.52824084      -1.25650854
H       -0.52177258      -1.25014173       1.30796180
H        1.10555964       0.75444016       1.75607993
H        1.89684000      -0.63422195       0.99406405
