9
Frame=0 idx=004607 GeodesicLength=0.0 rxn_smarts="[O:1]([c:2]1[c:3]([H:8])[n:4]([H:9])[n:5][n:6]1)[H:7]>>[O-:1][c:2]1[c:3]([H:8])[n+:4]([H:9])[n:5][n:6]1[H:7]"
O        2.13777073       0.29443395      -0.12499432
C        0.85742194       0.25404779      -0.04142626
C       -0.33645867       0.94028289       0.08239592
N       -1.27080347      -0.06606597       0.08119473
N       -0.77408693      -1.27154823      -0.02898206
N        0.50531620      -1.05277470      -0.10080406
H        1.75532748      -1.10257118      -0.18833048
H       -0.60427917       1.97678732       0.16683154
H       -2.27020812       0.02740814       0.15411498
9
Frame=1 idx=004607 GeodesicLength=0.03311693688190455 rxn_smarts="[O:1]([c:2]1[c:3]([H:8])[n:4]([H:9])[n:5][n:6]1)[H:7]>>[O-:1][c:2]1[c:3]([H:8])[n+:4]([H:9])[n:5][n:6]1[H:7]"
O        2.13395065       0.29711668      -0.13836992
C        0.85870626       0.25162970       0.00405666
C       -0.33880266       0.94015328       0.07092852
N       -1.27254740      -0.06482646       0.07682619
N       -0.77630829      -1.26974874      -0.04086107
N        0.50570279      -1.05579899      -0.08527658
H        1.76334306      -1.10428515      -0.20595194
H       -0.60284943       1.97729303       0.15935812
H       -2.27119499       0.02846664       0.15929002
9
Frame=2 idx=004607 GeodesicLength=0.06649037400141852 rxn_smarts="[O:1]([c:2]1[c:3]([H:8])[n:4]([H:9])[n:5][n:6]1)[H:7]>>[O-:1][c:2]1[c:3]([H:8])[n+:4]([H:9])[n:5][n:6]1[H:7]"
O        2.12893407       0.30014334      -0.14907472
C        0.85903524       0.24970876       0.03692298
C       -0.34000959       0.93928661       0.06650924
N       -1.27401238      -0.06355707       0.07171420
N       -0.77795428      -1.26823105      -0.04872334
N        0.50602492      -1.05907995      -0.06912648
H        1.77075854      -1.10552090      -0.22227787
H       -0.60072949       1.97741022       0.15331521
H       -2.27204704       0.02984005       0.16074078
9
Frame=3 idx=004607 GeodesicLength=0.09995113780836568 rxn_smarts="[O:1]([c:2]1[c:3]([H:8])[n:4]([H:9])[n:5][n:6]1)[H:7]>>[O-:1][c:2]1[c:3]([H:8])[n+:4]([H:9])[n:5][n:6]1[H:7]"
O        2.12376259       0.30301786      -0.15752518
C        0.85888607       0.24831837       0.06192021
C       -0.34098487       0.93828078       0.06373027
N       -1.27524110      -0.06242873       0.06840930
N       -0.77926819      -1.26687883      -0.05413249
N        0.50619173      -1.06226347      -0.05489057
H        1.77801272      -1.10674261      -0.23647020
H       -0.59838669       1.97736858       0.14898486
H       -2.27297225       0.03132805       0.15997381
9
Frame=4 idx=004607 GeodesicLength=0.13346101809194819 rxn_smarts="[O:1]([c:2]1[c:3]([H:8])[n:4]([H:9])[n:5][n:6]1)[H:7]>>[O-:1][c:2]1[c:3]([H:8])[n+:4]([H:9])[n:5][n:6]1[H:7]"
O        2.11856371       0.30573164      -0.16437924
C        0.85852440       0.24719519       0.08312914
C       -0.34183948       0.93719488       0.06224791
N       -1.27635347      -0.06137236       0.06591645
N       -0.78039231      -1.26560724      -0.05831974
N        0.50625281      -1.06536722      -0.04200204
H        1.78512664      -1.10790440      -0.24986825
H       -0.59596887       1.97731032       0.14481940
H       -2.27391345       0.03281918       0.15845637
9
Frame=5 idx=004607 GeodesicLength=0.16701302110132504 rxn_smarts="[O:1]([c:2]1[c:3]([H:8])[n:4]([H:9])[n:5][n:6]1)[H:7]>>[O-:1][c:2]1[c:3]([H:8])[n+:4]([H:9])[n:5][n:6]1[H:7]"
O        2.11334745       0.30833273      -0.17011260
C        0.85807701       0.24620697       0.10224140
C       -0.34259857       0.93602333       0.06198724
N       -1.27735021      -0.06041130       0.06447412
N       -0.78135802      -1.26443838      -0.06118375
N        0.50626980      -1.06843519      -0.02994099
H        1.79202402      -1.10889430      -0.26352987
H       -0.59346836       1.97724732       0.14046607
H       -2.27494312       0.03436882       0.15559838
9
Frame=6 idx=004607 GeodesicLength=0.2005963124124801 rxn_smarts="[O:1]([c:2]1[c:3]([H:8])[n:4]([H:9])[n:5][n:6]1)[H:7]>>[O-:1][c:2]1[c:3]([H:8])[n+:4]([H:9])[n:5][n:6]1[H:7]"
O        2.10814147       0.31082831      -0.17485638
C        0.85758622       0.24530251       0.11999416
C       -0.34328948       0.93478404       0.06264547
N       -1.27826028      -0.05953109       0.06381151
N       -0.78219881      -1.26336224      -0.06300864
N        0.50627169      -1.07148828      -0.01839857
H        1.79866552      -1.10966848      -0.27772330
H       -0.59088433       1.97717718       0.13580525
H       -2.27603201       0.03595804       0.15173050
9
Frame=7 idx=004607 GeodesicLength=0.23417657483226156 rxn_smarts="[O:1]([c:2]1[c:3]([H:8])[n:4]([H:9])[n:5][n:6]1)[H:7]>>[O-:1][c:2]1[c:3]([H:8])[n+:4]([H:9])[n:5][n:6]1[H:7]"
O        2.10309999       0.31315957      -0.17766629
C        0.85695065       0.24442002       0.13681756
C       -0.34396602       0.93352133       0.06338799
N       -1.27917587      -0.05864966       0.06288652
N       -0.78301474      -1.26227258      -0.06506580
N        0.50618100      -1.07450874      -0.00775766
H        1.80513189      -1.11020147      -0.29211771
H       -0.58823499       1.97712353       0.13010095
H       -2.27697191       0.03740799       0.14941445
9
Frame=8 idx=004607 GeodesicLength=0.2677759831638366 rxn_smarts="[O:1]([c:2]1[c:3]([H:8])[n:4]([H:9])[n:5][n:6]1)[H:7]>>[O-:1][c:2]1[c:3]([H:8])[n+:4]([H:9])[n:5][n:6]1[H:7]"
O        2.09796708       0.31541372      -0.18053670
C        0.85626947       0.24364210       0.15254103
C       -0.34463280       0.93225427       0.06437145
N       -1.28005028      -0.05779252       0.06220661
N       -0.78375632      -1.26121810      -0.06661883
N        0.50605953      -1.07750020       0.00253987
H        1.81159321      -1.11069481      -0.30593637
H       -0.58551823       1.97700889       0.12491179
H       -2.27793166       0.03888664       0.14652115
9
Frame=9 idx=004607 GeodesicLength=0.30139522239734184 rxn_smarts="[O:1]([c:2]1[c:3]([H:8])[n:4]([H:9])[n:5][n:6]1)[H:7]>>[O-:1][c:2]1[c:3]([H:8])[n+:4]([H:9])[n:5][n:6]1[H:7]"
O        2.09289480       0.31753727      -0.18264321
C        0.85545958       0.24293922       0.16737193
C       -0.34532610       0.93101838       0.06500715
N       -1.28095737      -0.05690141       0.06105824
N       -0.78449565      -1.26012851      -0.06854256
N        0.50584069      -1.08045220       0.01223373
H        1.81814152      -1.11115165      -0.31905178
H       -0.58276761       1.97687764       0.11966994
H       -2.27878986       0.04026127       0.14489655
9
Frame=10 idx=004607 GeodesicLength=0.33502587491750335 rxn_smarts="[O:1]([c:2]1[c:3]([H:8])[n:4]([H:9])[n:5][n:6]1)[H:7]>>[O-:1][c:2]1[c:3]([H:8])[n+:4]([H:9])[n:5][n:6]1[H:7]"
O        2.08784892       0.31954332      -0.18427763
C        0.85456000       0.24230847       0.18148679
C       -0.34602981       0.92979709       0.06547590
N       -1.28186672      -0.05600160       0.05975086
N       -0.78520695      -1.25903911      -0.07042878
N        0.50555952      -1.08337679       0.02158585
H        1.82471986      -1.11154005      -0.33183507
H       -0.57997969       1.97671418       0.11453103
H       -2.27960513       0.04159450       0.14371104
9
Frame=11 idx=004607 GeodesicLength=0.368670849792432 rxn_smarts="[O:1]([c:2]1[c:3]([H:8])[n:4]([H:9])[n:5][n:6]1)[H:7]>>[O-:1][c:2]1[c:3]([H:8])[n+:4]([H:9])[n:5][n:6]1[H:7]"
O        2.08280636       0.32144037      -0.18559530
C        0.85359070       0.24174368       0.19502343
C       -0.34673835       0.92858484       0.06588256
N       -1.28277046      -0.05510012       0.05836798
N       -0.78588348      -1.25795631      -0.07220480
N        0.50522825      -1.08628099       0.03072600
H        1.83131527      -1.11185412      -0.34441299
H       -0.57715253       1.97651991       0.10950547
H       -2.28039577       0.04290274       0.14270766
9
Frame=12 idx=004607 GeodesicLength=0.40233254994921996 rxn_smarts="[O:1]([c:2]1[c:3]([H:8])[n:4]([H:9])[n:5][n:6]1)[H:7]>>[O-:1][c:2]1[c:3]([H:8])[n+:4]([H:9])[n:5][n:6]1[H:7]"
O        2.07777874       0.32323061      -0.18654797
C        0.85256424       0.24122733       0.20813526
C       -0.34744253       0.92736945       0.06628898
N       -1.28366078      -0.05420769       0.05699870
N       -0.78652501      -1.25689900      -0.07373381
N        0.50486041      -1.08917516       0.03972182
H        1.83787593      -1.11204034      -0.35705890
H       -0.57427623       1.97629048       0.10450373
H       -2.28117477       0.04420435       0.14169219
9
Frame=13 idx=004607 GeodesicLength=0.4360134834539064 rxn_smarts="[O:1]([c:2]1[c:3]([H:8])[n:4]([H:9])[n:5][n:6]1)[H:7]>>[O-:1][c:2]1[c:3]([H:8])[n+:4]([H:9])[n:5][n:6]1[H:7]"
O        2.07276057       0.32492048      -0.18719591
C        0.85150538       0.24074736       0.22093502
C       -0.34813434       0.92613781       0.06683295
N       -1.28452481      -0.05334205       0.05583913
N       -0.78712631      -1.25588198      -0.07487513
N        0.50447629      -1.09206847       0.04865268
H        1.84435226      -1.11205729      -0.36998475
H       -0.57133886       1.97601905       0.09947472
H       -2.28197018       0.04552509       0.14032130
9
Frame=14 idx=004607 GeodesicLength=0.46971610255818225 rxn_smarts="[O:1]([c:2]1[c:3]([H:8])[n:4]([H:9])[n:5][n:6]1)[H:7]>>[O-:1][c:2]1[c:3]([H:8])[n+:4]([H:9])[n:5][n:6]1[H:7]"
O        2.06775820       0.32651482      -0.18744689
C        0.85041550       0.24027506       0.23355683
C       -0.34881150       0.92488046       0.06763195
N       -1.28536562      -0.05250517       0.05488298
N       -0.78769563      -1.25490323      -0.07568833
N        0.50407550      -1.09497170       0.05750156
H        1.85071687      -1.11185400      -0.38331451
H       -0.56831570       1.97570542       0.09419720
H       -2.28277761       0.04685836       0.13867921
9
Frame=15 idx=004607 GeodesicLength=0.5034427906713388 rxn_smarts="[O:1]([c:2]1[c:3]([H:8])[n:4]([H:9])[n:5][n:6]1)[H:7]>>[O-:1][c:2]1[c:3]([H:8])[n+:4]([H:9])[n:5][n:6]1[H:7]"
O        2.06278366       0.32801480      -0.18723586
C        0.84929919       0.23979193       0.24609427
C       -0.34946986       0.92358788       0.06873042
N       -1.28618092      -0.05170418       0.05417728
N       -0.78823804      -1.25397400      -0.07611423
N        0.50366699      -1.09789500       0.06628321
H        1.85692416      -1.11137120      -0.39720434
H       -0.56518346       1.97533696       0.08857312
H       -2.28360173       0.04821280       0.13669614
9
Frame=16 idx=004607 GeodesicLength=0.5371850366877716 rxn_smarts="[O:1]([c:2]1[c:3]([H:8])[n:4]([H:9])[n:5][n:6]1)[H:7]>>[O-:1][c:2]1[c:3]([H:8])[n+:4]([H:9])[n:5][n:6]1[H:7]"
O        2.05784299       0.32940832      -0.18663204
C        0.84814408       0.23931444       0.25847933
C       -0.35011938       0.92227396       0.06996659
N       -1.28698163      -0.05092695       0.05362684
N       -0.78876593      -1.25308310      -0.07624777
N        0.50323920      -1.10082908       0.07497577
H        1.86303516      -1.11064846      -0.41144684
H       -0.56196210       1.97490965       0.08274463
H       -2.28443240       0.04958121       0.13453350
