8
Frame=0 idx=005335 GeodesicLength=0.0 rxn_smarts="[N:1]([c:2]1[n:3][o:4][n:5][n:6]1)([H:7])[H:8]>>[N:1](=[c:2]1[n-:3][o+:4][n:5][n:6]1[H:8])[H:7]"
N        1.49272425       0.00494070      -0.01991092
C        0.22416274      -0.04483914      -0.35186376
N       -0.69227443      -0.17238959      -1.28516550
O       -1.88913598      -0.07940473      -0.54152133
N       -1.66187647       0.09131966       0.74417076
N       -0.42138636       0.11301932       0.86793720
H        2.22370803      -0.08563246      -0.70354091
H        0.72407824       0.17298624       1.28989443
8
Frame=1 idx=005335 GeodesicLength=0.0548671743053244 rxn_smarts="[N:1]([c:2]1[n:3][o:4][n:5][n:6]1)([H:7])[H:8]>>[N:1](=[c:2]1[n-:3][o+:4][n:5][n:6]1[H:8])[H:7]"
N        1.49066285       0.04587609      -0.02674605
C        0.22387194      -0.08428200      -0.34539778
N       -0.69191594      -0.14185180      -1.28705961
O       -1.88883388      -0.07339938      -0.54662265
N       -1.66554221       0.08437059       0.74129079
N       -0.42477603       0.07908669       0.87360647
H        2.21934507      -0.11620367      -0.69959046
H        0.73718820       0.20640347       1.29051928
8
Frame=2 idx=005335 GeodesicLength=0.11007029695288857 rxn_smarts="[N:1]([c:2]1[n:3][o:4][n:5][n:6]1)([H:7])[H:8]>>[N:1](=[c:2]1[n-:3][o+:4][n:5][n:6]1[H:8])[H:7]"
N        1.48689098       0.08272840      -0.03705124
C        0.22342435      -0.10446998      -0.34333569
N       -0.69239757      -0.11067208      -1.28780301
O       -1.88864782      -0.06949026      -0.55011440
N       -1.66787712       0.06481103       0.74062417
N       -0.42667194       0.05216507       0.87729204
H        2.21516449      -0.15591446      -0.68726706
H        0.75011463       0.24084227       1.28765519
8
Frame=3 idx=005335 GeodesicLength=0.16570618033300666 rxn_smarts="[N:1]([c:2]1[n:3][o:4][n:5][n:6]1)([H:7])[H:8]>>[N:1](=[c:2]1[n-:3][o+:4][n:5][n:6]1[H:8])[H:7]"
N        1.48284309       0.11121736      -0.04865233
C        0.22279915      -0.11829611      -0.34356060
N       -0.69385790      -0.07920569      -1.28769191
O       -1.88882221      -0.06513419      -0.55262790
N       -1.66948934       0.03916515       0.74095407
N       -0.42746371       0.02954631       0.87968159
H        2.21122725      -0.19454600      -0.67019431
H        0.76276366       0.27725318       1.28209139
8
Frame=4 idx=005335 GeodesicLength=0.2214820235096798 rxn_smarts="[N:1]([c:2]1[n:3][o:4][n:5][n:6]1)([H:7])[H:8]>>[N:1](=[c:2]1[n-:3][o+:4][n:5][n:6]1[H:8])[H:7]"
N        1.47927617       0.13154268      -0.05932078
C        0.22218558      -0.12930073      -0.34446993
N       -0.69536993      -0.05013492      -1.28647869
O       -1.88892967      -0.06042673      -0.55477804
N       -1.67076585       0.01351743       0.74090937
N       -0.42789188       0.00965131       0.88152898
H        2.20671982      -0.22759110      -0.65304726
H        0.77477577       0.31274207       1.27565635
8
Frame=5 idx=005335 GeodesicLength=0.27739852520406416 rxn_smarts="[N:1]([c:2]1[n:3][o:4][n:5][n:6]1)([H:7])[H:8]>>[N:1](=[c:2]1[n-:3][o+:4][n:5][n:6]1[H:8])[H:7]"
N        1.47562908       0.14935855      -0.07079727
C        0.22144868      -0.13857221      -0.34637294
N       -0.69749256      -0.02316572      -1.28457504
O       -1.88926352      -0.05396459      -0.55624933
N       -1.67148722      -0.01325693       0.74079343
N       -0.42773476      -0.00910787       0.88276785
H        2.20226754      -0.25859526      -0.63339377
H        0.78663275       0.34730403       1.26782709
8
Frame=6 idx=005335 GeodesicLength=0.33348486014200457 rxn_smarts="[N:1]([c:2]1[n:3][o:4][n:5][n:6]1)([H:7])[H:8]>>[N:1](=[c:2]1[n-:3][o+:4][n:5][n:6]1[H:8])[H:7]"
N        1.47239850       0.16361797      -0.08193465
C        0.22069774      -0.14640947      -0.34877305
N       -0.69976439       0.00330842      -1.28194389
O       -1.88961545      -0.04720422      -0.55723556
N       -1.67184319      -0.04086029       0.74027833
N       -0.42726892      -0.02674366       0.88367561
H        2.19733067      -0.28769959      -0.61305604
H        0.79806505       0.38199084       1.25898925
8
Frame=7 idx=005335 GeodesicLength=0.38969519024174926 rxn_smarts="[N:1]([c:2]1[n:3][o:4][n:5][n:6]1)([H:7])[H:8]>>[N:1](=[c:2]1[n-:3][o+:4][n:5][n:6]1[H:8])[H:7]"
N        1.46927853       0.17585808      -0.09318000
C        0.21990106      -0.15363587      -0.35165410
N       -0.70228119       0.02837839      -1.27871677
O       -1.89004958      -0.03963248      -0.55765794
N       -1.67182758      -0.06801669       0.73934891
N       -0.42649914      -0.04419614       0.88426603
H        2.19222281      -0.31460160      -0.59164538
H        0.80925510       0.41584630       1.24923924
8
Frame=8 idx=005335 GeodesicLength=0.4459678683874032 rxn_smarts="[N:1]([c:2]1[n:3][o:4][n:5][n:6]1)([H:7])[H:8]>>[N:1](=[c:2]1[n-:3][o+:4][n:5][n:6]1[H:8])[H:7]"
N        1.46629532       0.18630531      -0.10413435
C        0.21907901      -0.16046229      -0.35469081
N       -0.70479478       0.05192408      -1.27494665
O       -1.89047534      -0.03249074      -0.55780323
N       -1.67171767      -0.09301922       0.73788014
N       -0.42569596      -0.06130167       0.88464778
H        2.18682034      -0.33871409      -0.57023135
H        0.82048907       0.44775862       1.23927847
8
Frame=9 idx=005335 GeodesicLength=0.5023146098556016 rxn_smarts="[N:1]([c:2]1[n:3][o:4][n:5][n:6]1)([H:7])[H:8]>>[N:1](=[c:2]1[n-:3][o+:4][n:5][n:6]1[H:8])[H:7]"
N        1.46343724       0.19532235      -0.11493495
C        0.21821616      -0.16690177      -0.35792959
N       -0.70735159       0.07447727      -1.27068969
O       -1.89091872      -0.02553351      -0.55766226
N       -1.67151344      -0.11671788       0.73599383
N       -0.42483096      -0.07826736       0.88481184
H        2.18116304      -0.36084926      -0.54851348
H        0.83179828       0.47847016       1.22892431
8
Frame=10 idx=005335 GeodesicLength=0.5587323108361333 rxn_smarts="[N:1]([c:2]1[n:3][o:4][n:5][n:6]1)([H:7])[H:8]>>[N:1](=[c:2]1[n-:3][o+:4][n:5][n:6]1[H:8])[H:7]"
N        1.46063229       0.20320538      -0.12574226
C        0.21729776      -0.17314192      -0.36140369
N       -0.70998433       0.09608188      -1.26600350
O       -1.89140114      -0.01825833      -0.55716573
N       -1.67120977      -0.13956769       0.73376221
N       -0.42387896      -0.09537852       0.88474086
H        2.17535607      -0.38129801      -0.52620857
H        0.84318808       0.50835721       1.21802068
8
Frame=11 idx=005335 GeodesicLength=0.6152265453883202 rxn_smarts="[N:1]([c:2]1[n:3][o:4][n:5][n:6]1)([H:7])[H:8]>>[N:1](=[c:2]1[n-:3][o+:4][n:5][n:6]1[H:8])[H:7]"
N        1.45803549       0.20973555      -0.13623363
C        0.21635277      -0.17906156      -0.36500668
N       -0.71256687       0.11742126      -1.26078643
O       -1.89185184      -0.01113076      -0.55642142
N       -1.67085150      -0.16189585       0.73114896
N       -0.42289828      -0.11254808       0.88449530
H        2.16920793      -0.40052622      -0.50376402
H        0.85457230       0.53800566       1.20656792
8
Frame=12 idx=005335 GeodesicLength=0.6718066556995926 rxn_smarts="[N:1]([c:2]1[n:3][o:4][n:5][n:6]1)([H:7])[H:8]>>[N:1](=[c:2]1[n-:3][o+:4][n:5][n:6]1[H:8])[H:7]"
N        1.45553117       0.21527613      -0.14667079
C        0.21535628      -0.18484654      -0.36880504
N       -0.71517045       0.13825278      -1.25511326
O       -1.89231588      -0.00359955      -0.55531208
N       -1.67042455      -0.18390219       0.72819523
N       -0.42185693      -0.13001692       0.88402703
H        2.16285586      -0.41857325      -0.48075333
H        0.86602451       0.56740956       1.19443225
8
Frame=13 idx=005335 GeodesicLength=0.7284842795602008 rxn_smarts="[N:1]([c:2]1[n:3][o:4][n:5][n:6]1)([H:7])[H:8]>>[N:1](=[c:2]1[n-:3][o+:4][n:5][n:6]1[H:8])[H:7]"
N        1.45317492       0.21980752      -0.15695260
C        0.21431577      -0.19045111      -0.37276684
N       -0.71775233       0.15886167      -1.24893275
O       -1.89276863       0.00417340      -0.55385917
N       -1.66994660      -0.20574698       0.72487609
N       -0.42077683      -0.14779007       0.88334553
H        2.15621453      -0.43567180      -0.45728258
H        0.87753917       0.59681736       1.18157231
8
Frame=14 idx=005335 GeodesicLength=0.7852607815110522 rxn_smarts="[N:1]([c:2]1[n:3][o:4][n:5][n:6]1)([H:7])[H:8]>>[N:1](=[c:2]1[n-:3][o+:4][n:5][n:6]1[H:8])[H:7]"
N        1.45099236       0.22333046      -0.16697806
C        0.21324047      -0.19589989      -0.37684549
N       -0.72025854       0.17936356      -1.24219884
O       -1.89318312       0.01216242      -0.55207437
N       -1.66944363      -0.22751168       0.72116461
N       -0.41968825      -0.16591803       0.88246429
H        2.14924330      -0.45192932      -0.43348621
H        0.88909740       0.62640246       1.16795406
8
Frame=15 idx=005335 GeodesicLength=0.8421265565998984 rxn_smarts="[N:1]([c:2]1[n:3][o:4][n:5][n:6]1)([H:7])[H:8]>>[N:1](=[c:2]1[n-:3][o+:4][n:5][n:6]1[H:8])[H:7]"
N        1.44892950       0.22601082      -0.17681590
C        0.21211888      -0.20126817      -0.38103118
N       -0.72269082       0.19959986      -1.23494931
O       -1.89357099       0.02046882      -0.54993866
N       -1.66896322      -0.24907783       0.71706874
N       -0.41862336      -0.18449739       0.88136232
H        2.14199693      -0.46725377      -0.40929209
H        0.90080309       0.65601766       1.15359609
8
Frame=16 idx=005335 GeodesicLength=0.8990558282084921 rxn_smarts="[N:1]([c:2]1[n:3][o:4][n:5][n:6]1)([H:7])[H:8]>>[N:1](=[c:2]1[n-:3][o+:4][n:5][n:6]1[H:8])[H:7]"
N        1.44696297       0.22794595      -0.18643417
C        0.21095053      -0.20658844      -0.38527171
N       -0.72501392       0.21946736      -1.22720879
O       -1.89392395       0.02904253      -0.54748755
N       -1.66857741      -0.27026878       0.71259819
N       -0.41764108      -0.20358311       0.88003754
H        2.13449132      -0.48156409      -0.38481127
H        0.91275154       0.68554859       1.13857776
