13
Frame=0 idx=010421 GeodesicLength=0.0 rxn_smarts="[O:1]([C:2]([C@@:3]([C:4](=[O:5])[H:12])([C:6]#[C:7][H:13])[H:11])([H:9])[H:10])[H:8]>>[C:3](=[C:4](/[O:5][H:8])[H:12])(\[C:6]#[C:7][H:13])[H:11].[O:1]=[C:2]([H:9])[H:10]"
O       -2.25188284      -0.27777257       0.27701669
C       -1.15234502      -0.88586438       0.43642478
C        0.23476826       0.24559719      -0.58521185
C       -0.08439700       1.36795520       0.17121523
O       -1.25898441       1.86838426       0.18341132
C        1.53860381      -0.33312837      -0.50460894
C        2.61508106      -0.85343127      -0.41500456
H       -1.94485530       0.97925503       0.17516250
H       -0.66841041      -0.90895383       1.42212103
H       -0.92330109      -1.75021176      -0.19453758
H       -0.32351818       0.08153294      -1.49935320
H        0.64257362       1.77133633       0.88104844
H        3.57666744      -1.30469877      -0.34768388
13
Frame=1 idx=010421 GeodesicLength=0.07073042067974689 rxn_smarts="[O:1]([C:2]([C@@:3]([C:4](=[O:5])[H:12])([C:6]#[C:7][H:13])[H:11])([H:9])[H:10])[H:8]>>[C:3](=[C:4](/[O:5][H:8])[H:12])(\[C:6]#[C:7][H:13])[H:11].[O:1]=[C:2]([H:9])[H:10]"
O       -2.26784510      -0.27577964       0.26296710
C       -1.17486531      -0.89721810       0.43258869
C        0.23701233       0.23366814      -0.57155316
C       -0.07223450       1.36758807       0.17582324
O       -1.24473097       1.87139012       0.19665944
C        1.54141014      -0.34535639      -0.49051801
C        2.63017839      -0.84221775      -0.41797246
H       -1.94837252       0.97972044       0.17950332
H       -0.70267096      -0.91886472       1.42409736
H       -0.95934126      -1.77314830      -0.18698553
H       -0.31156738       0.08052114      -1.49400122
H        0.67134424       1.79352154       0.85463969
H        3.60168289      -1.27382455      -0.36524845
13
Frame=2 idx=010421 GeodesicLength=0.1404268642104774 rxn_smarts="[O:1]([C:2]([C@@:3]([C:4](=[O:5])[H:12])([C:6]#[C:7][H:13])[H:11])([H:9])[H:10])[H:8]>>[C:3](=[C:4](/[O:5][H:8])[H:12])(\[C:6]#[C:7][H:13])[H:11].[O:1]=[C:2]([H:9])[H:10]"
O       -2.28231120      -0.27535690       0.24870079
C       -1.19529261      -0.90867168       0.42843009
C        0.23973931       0.22353073      -0.55780582
C       -0.06083101       1.36865574       0.18025342
O       -1.23200571       1.87385762       0.21042321
C        1.54564400      -0.35384426      -0.47649772
C        2.64449697      -0.82993619      -0.41776663
H       -1.95243377       0.97875939       0.18367599
H       -0.73483160      -0.92795328       1.42560015
H       -0.99307910      -1.79598769      -0.17924746
H       -0.29871766       0.08038082      -1.48838138
H        0.69780853       1.81675885       0.82743207
H        3.62181386      -1.25019314      -0.38481671
13
Frame=3 idx=010421 GeodesicLength=0.20952654264261544 rxn_smarts="[O:1]([C:2]([C@@:3]([C:4](=[O:5])[H:12])([C:6]#[C:7][H:13])[H:11])([H:9])[H:10])[H:8]>>[C:3](=[C:4](/[O:5][H:8])[H:12])(\[C:6]#[C:7][H:13])[H:11].[O:1]=[C:2]([H:9])[H:10]"
O       -2.29612197      -0.27500622       0.23499916
C       -1.21513004      -0.92021548       0.42383376
C        0.24231018       0.21376514      -0.54457344
C       -0.04893630       1.36990216       0.18445398
O       -1.21888073       1.87600391       0.22568409
C        1.54996920      -0.36169641      -0.46416710
C        2.65713880      -0.81967622      -0.41833450
H       -1.95629443       0.97750320       0.18872894
H       -0.76579649      -0.93717852       1.42622993
H       -1.02755141      -1.81878680      -0.17182568
H       -0.28640824       0.08070855      -1.48281681
H        0.72440648       1.83928889       0.79836462
H        3.64129494      -1.22461219      -0.40057697
13
Frame=4 idx=010421 GeodesicLength=0.2780996210925628 rxn_smarts="[O:1]([C:2]([C@@:3]([C:4](=[O:5])[H:12])([C:6]#[C:7][H:13])[H:11])([H:9])[H:10])[H:8]>>[C:3](=[C:4](/[O:5][H:8])[H:12])(\[C:6]#[C:7][H:13])[H:11].[O:1]=[C:2]([H:9])[H:10]"
O       -2.30919204      -0.27510470       0.22137462
C       -1.23413982      -0.93185740       0.41883718
C        0.24500953       0.20470580      -0.53141320
C       -0.03696699       1.37168745       0.18854375
O       -1.20592661       1.87776721       0.24211196
C        1.55481670      -0.36812463      -0.45246360
C        2.66895815      -0.81001991      -0.41806632
H       -1.96024407       0.97567108       0.19409472
H       -0.79572213      -0.94625551       1.42622641
H       -1.06202307      -1.84157099      -0.16440957
H       -0.27395596       0.08151172      -1.47705952
H        0.75019594       1.86186419       0.76775155
H        3.65919039      -1.20027431      -0.41552800
13
Frame=5 idx=010421 GeodesicLength=0.3462165344476666 rxn_smarts="[O:1]([C:2]([C@@:3]([C:4](=[O:5])[H:12])([C:6]#[C:7][H:13])[H:11])([H:9])[H:10])[H:8]>>[C:3](=[C:4](/[O:5][H:8])[H:12])(\[C:6]#[C:7][H:13])[H:11].[O:1]=[C:2]([H:9])[H:10]"
O       -2.32145066      -0.27588584       0.20759191
C       -1.25213950      -0.94361707       0.41345445
C        0.24798117       0.19657926      -0.51812921
C       -0.02517232       1.37426599       0.19253276
O       -1.19347995       1.87912585       0.25957280
C        1.56041846      -0.37262787      -0.44088687
C        2.68057861      -0.79984829      -0.41642219
H       -1.96445338       0.97310560       0.19947874
H       -0.82460980      -0.95503716       1.42569338
H       -1.09606685      -1.86437442      -0.15681090
H       -0.26104615       0.08282193      -1.47099573
H        0.77456474       1.88486566       0.73586515
H        3.67487563      -1.17937361      -0.43094426
13
Frame=6 idx=010421 GeodesicLength=0.4139825128984065 rxn_smarts="[O:1]([C:2]([C@@:3]([C:4](=[O:5])[H:12])([C:6]#[C:7][H:13])[H:11])([H:9])[H:10])[H:8]>>[C:3](=[C:4](/[O:5][H:8])[H:12])(\[C:6]#[C:7][H:13])[H:11].[O:1]=[C:2]([H:9])[H:10]"
O       -2.33322531      -0.27669924       0.19389243
C       -1.26975165      -0.95543006       0.40767375
C        0.25102780       0.18876827      -0.50491980
C       -0.01303456       1.37713207       0.19631625
O       -1.18071836       1.88011759       0.27835817
C        1.56628664      -0.37650240      -0.42989860
C        2.69160002      -0.79053755      -0.41463373
H       -1.96860447       0.97027957       0.20513799
H       -0.85289976      -0.96375478       1.42454161
H       -1.13093990      -1.88716426      -0.14906556
H       -0.24813622       0.08433561      -1.46473372
H        0.79830393       1.90737819       0.70247817
H        3.69009184      -1.15792302      -0.44514693
13
Frame=7 idx=010421 GeodesicLength=0.48142042019577364 rxn_smarts="[O:1]([C:2]([C@@:3]([C:4](=[O:5])[H:12])([C:6]#[C:7][H:13])[H:11])([H:9])[H:10])[H:8]>>[C:3](=[C:4](/[O:5][H:8])[H:12])(\[C:6]#[C:7][H:13])[H:11].[O:1]=[C:2]([H:9])[H:10]"
O       -2.34428914      -0.27804606       0.17995046
C       -1.28651241      -0.96734787       0.40149215
C        0.25436922       0.18176878      -0.49155094
C       -0.00101852       1.38076991       0.19988537
O       -1.16829388       1.88067991       0.29828636
C        1.57284799      -0.37869574      -0.41886732
C        2.70276531      -0.78037620      -0.41182497
H       -1.97298888       0.96684775       0.21068624
H       -0.88036147      -0.97216420       1.42287478
H       -1.16572179      -1.90997557      -0.14095658
H       -0.23476128       0.08621072      -1.45814491
H        0.82046188       1.93012515       0.66803820
H        3.70350298      -1.13979659      -0.45986885
13
Frame=8 idx=010421 GeodesicLength=0.5486625815021932 rxn_smarts="[O:1]([C:2]([C@@:3]([C:4](=[O:5])[H:12])([C:6]#[C:7][H:13])[H:11])([H:9])[H:10])[H:8]>>[C:3](=[C:4](/[O:5][H:8])[H:12])(\[C:6]#[C:7][H:13])[H:11].[O:1]=[C:2]([H:9])[H:10]"
O       -2.35538338      -0.27834843       0.16632589
C       -1.30391978      -0.97912882       0.39495358
C        0.25755711       0.17402363      -0.47852973
C        0.01217271       1.38389658       0.20288756
O       -1.15419783       1.88087310       0.31973272
C        1.57898895      -0.38238992      -0.40888422
C        2.71262726      -0.77366193      -0.40999005
H       -1.97680034       0.96393465       0.21664063
H       -0.90805465      -0.98059610       1.42057041
H       -1.20337183      -1.93263125      -0.13248365
H       -0.22190981       0.08753531      -1.45154385
H        0.84308595       1.95059400       0.63231349
H        3.71920564      -1.11410082      -0.47199280
13
Frame=9 idx=010421 GeodesicLength=0.6159122772909342 rxn_smarts="[O:1]([C:2]([C@@:3]([C:4](=[O:5])[H:12])([C:6]#[C:7][H:13])[H:11])([H:9])[H:10])[H:8]>>[C:3](=[C:4](/[O:5][H:8])[H:12])(\[C:6]#[C:7][H:13])[H:11].[O:1]=[C:2]([H:9])[H:10]"
O       -2.36564858      -0.27958201       0.15231211
C       -1.32018610      -0.99116665       0.38791717
C        0.26117120       0.16748311      -0.46528092
C        0.02493566       1.38815916       0.20566484
O       -1.14077931       1.88047918       0.34265178
C        1.58610256      -0.38361154      -0.39862285
C        2.72330967      -0.76448530      -0.40719488
H       -1.98104011       0.96015595       0.22244285
H       -0.93469745      -0.98876574       1.41773355
H       -1.24050463      -1.95535426      -0.12360044
H       -0.20839407       0.08942328      -1.44463351
H        0.86356736       1.97215413       0.59541006
H        3.73216379      -1.09488932      -0.48479977
13
Frame=10 idx=010421 GeodesicLength=0.6824003866231781 rxn_smarts="[O:1]([C:2]([C@@:3]([C:4](=[O:5])[H:12])([C:6]#[C:7][H:13])[H:11])([H:9])[H:10])[H:8]>>[C:3](=[C:4](/[O:5][H:8])[H:12])(\[C:6]#[C:7][H:13])[H:11].[O:1]=[C:2]([H:9])[H:10]"
O       -2.37507157      -0.28125297       0.13806818
C       -1.33541535      -1.00317837       0.38053187
C        0.26507975       0.16177147      -0.45215178
C        0.03735286       1.39341833       0.20738698
O       -1.12772372       1.87960295       0.36625815
C        1.59390165      -0.38303158      -0.38844369
C        2.73440083      -0.75386029      -0.40357639
H       -1.98552193       0.95587421       0.22801403
H       -0.96021513      -0.99621280       1.41432734
H       -1.27746939      -1.97783844      -0.11390020
H       -0.19451078       0.09129098      -1.43755214
H        0.88184659       1.99314669       0.55935453
H        3.74334620      -1.07973018      -0.49831689
13
Frame=11 idx=010421 GeodesicLength=0.7487287534698208 rxn_smarts="[O:1]([C:2]([C@@:3]([C:4](=[O:5])[H:12])([C:6]#[C:7][H:13])[H:11])([H:9])[H:10])[H:8]>>[C:3](=[C:4](/[O:5][H:8])[H:12])(\[C:6]#[C:7][H:13])[H:11].[O:1]=[C:2]([H:9])[H:10]"
O       -2.38456651      -0.28182408       0.12381474
C       -1.35144877      -1.01513287       0.37254468
C        0.26898970       0.15523789      -0.43896960
C        0.05084817       1.39799009       0.20879775
O       -1.11279519       1.87785937       0.39228402
C        1.60142342      -0.38400305      -0.37854652
C        2.74470724      -0.74594191      -0.40086160
H       -1.98943522       0.95206788       0.23397107
H       -0.98632507      -1.00389857       1.41010576
H       -1.31766984      -1.99996719      -0.10375039
H       -0.18079784       0.09253387      -1.43017179
H        0.90036713       2.01258524       0.52051466
H        3.75670277      -1.05750668      -0.50973277
13
Frame=12 idx=010421 GeodesicLength=0.8150944340584491 rxn_smarts="[O:1]([C:2]([C@@:3]([C:4](=[O:5])[H:12])([C:6]#[C:7][H:13])[H:11])([H:9])[H:10])[H:8]>>[C:3](=[C:4](/[O:5][H:8])[H:12])(\[C:6]#[C:7][H:13])[H:11].[O:1]=[C:2]([H:9])[H:10]"
O       -2.39349904      -0.28259403       0.10926684
C       -1.36697968      -1.02724249       0.36401135
C        0.27322991       0.14921818      -0.42576719
C        0.06427713       1.40326802       0.20940881
O       -1.09757278       1.87534218       0.41986016
C        1.60954983      -0.38376049      -0.36848990
C        2.75549425      -0.73685967      -0.39773910
H       -1.99342940       0.94792409       0.23998635
H       -1.01185411      -1.01135891       1.40524150
H       -1.35877047      -2.02187057      -0.09292565
H       -0.16666958       0.09360975      -1.42264736
H        0.91716113       2.03200708       0.48104690
H        3.76906282      -1.03768315      -0.52125271
13
Frame=13 idx=010421 GeodesicLength=0.8813396176754196 rxn_smarts="[O:1]([C:2]([C@@:3]([C:4](=[O:5])[H:12])([C:6]#[C:7][H:13])[H:11])([H:9])[H:10])[H:8]>>[C:3](=[C:4](/[O:5][H:8])[H:12])(\[C:6]#[C:7][H:13])[H:11].[O:1]=[C:2]([H:9])[H:10]"
O       -2.40201727      -0.28312868       0.09451524
C       -1.38237742      -1.03943887       0.35486363
C        0.27772723       0.14330317      -0.41257593
C        0.07785224       1.40885507       0.20913429
O       -1.08151057       1.87188616       0.44914333
C        1.61806530      -0.38305290      -0.35833344
C        2.76647627      -0.72759066      -0.39441337
H       -1.99730381       0.94368750       0.24631670
H       -1.03706693      -1.01871401       1.39960036
H       -1.40153057      -2.04329955      -0.08143750
H       -0.15226763       0.09420696      -1.41496600
H        0.93261487       2.05091427       0.44056120
H        3.78133830      -1.01762845      -0.53240851
13
Frame=14 idx=010421 GeodesicLength=0.9474537364540845 rxn_smarts="[O:1]([C:2]([C@@:3]([C:4](=[O:5])[H:12])([C:6]#[C:7][H:13])[H:11])([H:9])[H:10])[H:8]>>[C:3](=[C:4](/[O:5][H:8])[H:12])(\[C:6]#[C:7][H:13])[H:11].[O:1]=[C:2]([H:9])[H:10]"
O       -2.41023780      -0.28310186       0.07973572
C       -1.39792979      -1.05168361       0.34506348
C        0.28241760       0.13717907      -0.39952003
C        0.09171908       1.41446043       0.20780165
O       -1.06413221       1.86737668       0.48009702
C        1.62681086      -0.38242400      -0.34826181
C        2.77744052      -0.71888229      -0.39110503
H       -2.00089360       0.93953815       0.25327760
H       -1.06208302      -1.02608021       1.39309390
H       -1.44657815      -2.06400089      -0.06929868
H       -0.13774536       0.09402409      -1.40722161
H        0.94700309       2.06886834       0.39897750
H        3.79420877      -0.99527391      -0.54263971
13
Frame=15 idx=010421 GeodesicLength=1.0134242025482518 rxn_smarts="[O:1]([C:2]([C@@:3]([C:4](=[O:5])[H:12])([C:6]#[C:7][H:13])[H:11])([H:9])[H:10])[H:8]>>[C:3](=[C:4](/[O:5][H:8])[H:12])(\[C:6]#[C:7][H:13])[H:11].[O:1]=[C:2]([H:9])[H:10]"
O       -2.41772731      -0.28334420       0.06456691
C       -1.41276755      -1.06414371       0.33450897
C        0.28758290       0.13177953      -0.38634167
C        0.10497835       1.42093478       0.20542938
O       -1.04650510       1.86187189       0.51228617
C        1.63642289      -0.37995434      -0.33753837
C        2.78930060      -0.70796882      -0.38665089
H       -2.00466293       0.93489474       0.26066167
H       -1.08625410      -1.03333831       1.38570110
H       -1.49229403      -2.08402584      -0.05644561
H       -0.12252772       0.09351532      -1.39927846
H        0.95894124       2.08719797       0.35703215
H        3.80551277      -0.97741902      -0.55393135
13
Frame=16 idx=010421 GeodesicLength=1.0792739349166987 rxn_smarts="[O:1]([C:2]([C@@:3]([C:4](=[O:5])[H:12])([C:6]#[C:7][H:13])[H:11])([H:9])[H:10])[H:8]>>[C:3](=[C:4](/[O:5][H:8])[H:12])(\[C:6]#[C:7][H:13])[H:11].[O:1]=[C:2]([H:9])[H:10]"
O       -2.42519792      -0.28235048       0.04996606
C       -1.42837262      -1.07657874       0.32327795
C        0.29273533       0.12550354      -0.37372525
C        0.11883911       1.42674372       0.20162639
O       -1.02651596       1.85520316       0.54572750
C        1.64585896      -0.37873401      -0.32767753
C        2.80062128      -0.69921396      -0.38316012
H       -2.00779770       0.93066425       0.26953411
H       -1.11031864      -1.04092140       1.37729011
H       -1.54158495      -2.10270353      -0.04297736
H       -0.10771138       0.09163979      -1.39159759
H        0.97053384       2.10343966       0.31403340
H        3.81891065      -0.95269198      -0.56231766
