15
Frame=0 idx=008449 GeodesicLength=0.0 rxn_smarts="[C:1]1([H:8])([H:9])[C@@:2]2([H:10])[C@@:3]3([H:11])[O:4][C:5]([H:12])([H:13])[C@:6]1([H:14])[C@@:7]23[H:15]>>[C:1]([C@:6]1([H:14])[C:5]([H:12])([H:13])[O:4][C@:3]2([H:11])[C:2]([H:8])([H:10])[C@@:7]21[H:15])[H:9]"
C        0.43283099       1.58011931       0.29331252
C        1.42163181      -0.25076819       0.07208191
C        0.33710838      -1.28800387       0.26404734
O       -0.67935720      -1.02143542       1.17601631
C       -1.51086260       0.00710901       0.61841689
C       -0.63227272       0.71881030      -0.40324651
C        0.26757096      -0.39838745      -0.90794866
H        1.26065268       0.62935804       0.86385976
H        1.03968342       2.03916666      -0.50162503
H        2.45755249      -0.46796040      -0.14689073
H        0.62057672      -2.32918742       0.18186223
H       -1.81277822       0.67067061       1.42931328
H       -2.39509005      -0.45117197       0.15932892
H       -1.19313322       1.26486303      -1.16085210
H        0.38588656      -0.70318218      -1.93767612
15
Frame=1 idx=008449 GeodesicLength=0.06022973421816662 rxn_smarts="[C:1]1([H:8])([H:9])[C@@:2]2([H:10])[C@@:3]3([H:11])[O:4][C:5]([H:12])([H:13])[C@:6]1([H:14])[C@@:7]23[H:15]>>[C:1]([C@:6]1([H:14])[C:5]([H:12])([H:13])[O:4][C@:3]2([H:11])[C:2]([H:8])([H:10])[C@@:7]21[H:15])[H:9]"
C        0.43534473       1.57671946       0.27639699
C        1.41867734      -0.25081143       0.08170668
C        0.33651772      -1.29112665       0.25927997
O       -0.68708509      -1.03496252       1.16569621
C       -1.50748114       0.00815671       0.62202889
C       -0.63556284       0.71720097      -0.40630477
C        0.27313659      -0.39538666      -0.90953314
H        1.25543072       0.63349894       0.88932508
H        1.03106920       2.04665219      -0.52001396
H        2.45462295      -0.47219786      -0.13379517
H        0.62042635      -2.33169889       0.17098829
H       -1.79061937       0.67055359       1.44091229
H       -2.40318742      -0.43607564       0.17189644
H       -1.20029445       1.25293596      -1.16839115
H        0.39900470      -0.69345816      -1.94019264
15
Frame=2 idx=008449 GeodesicLength=0.12045859833580563 rxn_smarts="[C:1]1([H:8])([H:9])[C@@:2]2([H:10])[C@@:3]3([H:11])[O:4][C:5]([H:12])([H:13])[C@:6]1([H:14])[C@@:7]23[H:15]>>[C:1]([C@:6]1([H:14])[C:5]([H:12])([H:13])[O:4][C@:3]2([H:11])[C:2]([H:8])([H:10])[C@@:7]21[H:15])[H:9]"
C        0.43811000       1.57299445       0.25959183
C        1.41561100      -0.25095767       0.09131122
C        0.33592746      -1.29425120       0.25453260
O       -0.69505447      -1.04847596       1.15493992
C       -1.50398270       0.00922703       0.62558662
C       -0.63872799       0.71558953      -0.40938652
C        0.27872171      -0.39248039      -0.91112581
H        1.24963954       0.63800216       0.91458002
H        1.02198866       2.05428483      -0.53827331
H        2.45159092      -0.47643702      -0.12063252
H        0.62035739      -2.33416099       0.16021953
H       -1.76797284       0.67011753       1.45233420
H       -2.41108712      -0.42053930       0.18477727
H       -1.20725228       1.24096198      -1.17585111
H        0.41213071      -0.68387496      -1.94260395
15
Frame=3 idx=008449 GeodesicLength=0.18069627159341156 rxn_smarts="[C:1]1([H:8])([H:9])[C@@:2]2([H:10])[C@@:3]3([H:11])[O:4][C:5]([H:12])([H:13])[C@:6]1([H:14])[C@@:7]23[H:15]>>[C:1]([C@:6]1([H:14])[C:5]([H:12])([H:13])[O:4][C@:3]2([H:11])[C:2]([H:8])([H:10])[C@@:7]21[H:15])[H:9]"
C        0.44111500       1.56895816       0.24289760
C        1.41243699      -0.25121338       0.10087954
C        0.33533353      -1.29737377       0.24981234
O       -0.70325661      -1.06194109       1.14374987
C       -1.50036758       0.01031900       0.62908492
C       -0.64176332       0.71398137      -0.41249093
C        0.28432377      -0.38967148      -0.91272797
H        1.24330343       0.64288659       0.93961608
H        1.01243667       2.06206988      -0.55634285
H        2.44845659      -0.48069564      -0.10742667
H        0.62035321      -2.33657526       0.14957155
H       -1.74485580       0.66934643       1.46355840
H       -2.41875688      -0.40458002       0.19796649
H       -1.21400626       1.22893594      -1.18323693
H        0.42524725      -0.67444672      -1.94491145
15
Frame=4 idx=008449 GeodesicLength=0.24094917582644185 rxn_smarts="[C:1]1([H:8])([H:9])[C@@:2]2([H:10])[C@@:3]3([H:11])[O:4][C:5]([H:12])([H:13])[C@:6]1([H:14])[C@@:7]23[H:15]>>[C:1]([C@:6]1([H:14])[C:5]([H:12])([H:13])[O:4][C@:3]2([H:11])[C:2]([H:8])([H:10])[C@@:7]21[H:15])[H:9]"
C        0.44434959       1.56462307       0.22631609
C        1.40916055      -0.25158471       0.11039511
C        0.33473153      -1.30049049       0.24512683
O       -0.71167965      -1.07532267       1.13213193
C       -1.49663711       0.01143108       0.63251782
C       -0.64466414       0.71238229      -0.41561655
C        0.28993991      -0.38696299      -0.91434098
H        1.23644831       0.64817265       0.96442323
H        1.00240827       2.07001311      -0.57416057
H        2.44522090      -0.48499205      -0.09420284
H        0.62039709      -2.33894347       0.13906029
H       -1.72129117       0.66822807       1.47456352
H       -2.42616330      -0.38821946       0.21145469
H       -1.22055491       1.21685488      -1.19055198
H        0.43833414      -0.66518929      -1.94711658
15
Frame=5 idx=008449 GeodesicLength=0.30122556282880253 rxn_smarts="[C:1]1([H:8])([H:9])[C@@:2]2([H:10])[C@@:3]3([H:11])[O:4][C:5]([H:12])([H:13])[C@:6]1([H:14])[C@@:7]23[H:15]>>[C:1]([C@:6]1([H:14])[C:5]([H:12])([H:13])[O:4][C@:3]2([H:11])[C:2]([H:8])([H:10])[C@@:7]21[H:15])[H:9]"
C        0.44780084       1.56000242       0.20984935
C        1.40578734      -0.25207753       0.11984144
C        0.33411712      -1.30359832       0.24048298
O       -0.72031098      -1.08858484       1.12009282
C       -1.49279278       0.01256105       0.63587878
C       -0.64742572       0.71079789      -0.41876230
C        0.29556716      -0.38435849      -0.91596674
H        1.22910163       0.65388096       0.98899221
H        0.99190139       2.07812056      -0.59166621
H        2.44188537      -0.48934433      -0.08098518
H        0.62047089      -2.34126831       0.12870100
H       -1.69730627       0.66674852       1.48532534
H       -2.43327374      -0.37147659       0.22523851
H       -1.22689743       1.20471420      -1.19779926
H        0.45137519      -0.65611719      -1.94922273
15
Frame=6 idx=008449 GeodesicLength=0.36153405888726015 rxn_smarts="[C:1]1([H:8])([H:9])[C@@:2]2([H:10])[C@@:3]3([H:11])[O:4][C:5]([H:12])([H:13])[C@:6]1([H:14])[C@@:7]23[H:15]>>[C:1]([C@:6]1([H:14])[C:5]([H:12])([H:13])[O:4][C@:3]2([H:11])[C:2]([H:8])([H:10])[C@@:7]21[H:15])[H:9]"
C        0.45146447       1.55510733       0.19349558
C        1.40232259      -0.25269559       0.12920285
C        0.33348615      -1.30669321       0.23588804
O       -0.72913698      -1.10169353       1.10764559
C       -1.48883534       0.01370945       0.63916546
C       -0.65004577       0.70923337      -0.42192733
C        0.30120166      -0.38186052      -0.91760645
H        1.22129149       0.66003231       1.01331683
H        0.98091544       2.08639929      -0.60879896
H        2.43845069      -0.49376806      -0.06779690
H        0.62055653      -2.34355296       0.11850769
H       -1.67292798       0.66489559       1.49581781
H       -2.44005949      -0.35437930       0.23930551
H       -1.23303383       1.19251286      -1.20498072
H        0.46435036      -0.64724702      -1.95123498
15
Frame=7 idx=008449 GeodesicLength=0.42186933847815755 rxn_smarts="[C:1]1([H:8])([H:9])[C@@:2]2([H:10])[C@@:3]3([H:11])[O:4][C:5]([H:12])([H:13])[C@:6]1([H:14])[C@@:7]23[H:15]>>[C:1]([C@:6]1([H:14])[C:5]([H:12])([H:13])[O:4][C@:3]2([H:11])[C:2]([H:8])([H:10])[C@@:7]21[H:15])[H:9]"
C        0.45533629       1.54994655       0.17725908
C        1.39877348      -0.25344437       0.13846065
C        0.33283302      -1.30977235       0.23134965
O       -0.73814013      -1.11461000       1.09480473
C       -1.48476763       0.01487537       0.64237245
C       -0.65252060       0.70769346      -0.42511103
C        0.30683855      -0.37947410      -0.91926261
H        1.21304646       0.66665091       1.03738264
H        0.96944653       2.09485590      -0.62548965
H        2.43491913      -0.49828264      -0.05466696
H        0.62063595      -2.34579927       0.10849641
H       -1.64819759       0.66266779       1.50601675
H       -2.44647989      -0.33696243       0.25363944
H       -1.23896104       1.18025226      -1.21209574
H        0.47723749      -0.63859708      -1.95315582
15
Frame=8 idx=008449 GeodesicLength=0.4822342059806447 rxn_smarts="[C:1]1([H:8])([H:9])[C@@:2]2([H:10])[C@@:3]3([H:11])[O:4][C:5]([H:12])([H:13])[C@:6]1([H:14])[C@@:7]23[H:15]>>[C:1]([C@:6]1([H:14])[C:5]([H:12])([H:13])[O:4][C@:3]2([H:11])[C:2]([H:8])([H:10])[C@@:7]21[H:15])[H:9]"
C        0.45940868       1.54453150       0.16113544
C        1.39514830      -0.25432761       0.14759680
C        0.33215411      -1.31283266       0.22687423
O       -0.74730367      -1.12729694       1.08158859
C       -1.48059024       0.01605712       0.64549487
C       -0.65484626       0.70618301      -0.42831260
C        0.31247464      -0.37720362      -0.92093804
H        1.20439679       0.67375834       1.06117838
H        0.95749578       2.10349787      -0.64166583
H        2.43129383      -0.50290470      -0.04162279
H        0.62068923      -2.34801194       0.09868174
H       -1.62315653       0.66006358       1.51589743
H       -2.45250360      -0.31925926       0.26822627
H       -1.24467793       1.16793072      -1.21914406
H        0.49001685      -0.63018541      -1.95499042
15
Frame=9 idx=008449 GeodesicLength=0.5426259673562946 rxn_smarts="[C:1]1([H:8])([H:9])[C@@:2]2([H:10])[C@@:3]3([H:11])[O:4][C:5]([H:12])([H:13])[C@:6]1([H:14])[C@@:7]23[H:15]>>[C:1]([C@:6]1([H:14])[C:5]([H:12])([H:13])[O:4][C@:3]2([H:11])[C:2]([H:8])([H:10])[C@@:7]21[H:15])[H:9]"
C        0.46366475       1.53887330       0.14512749
C        1.39145543      -0.25534948       0.15659717
C        0.33144536      -1.31587340       0.22246674
O       -0.75660800      -1.13972065       1.06801396
C       -1.47630467       0.01725072       0.64852685
C       -0.65701856       0.70470671      -0.43153042
C        0.31810849      -0.37505232      -0.92263466
H        1.19537951       0.68137765       1.08469146
H        0.94506507       2.11232823      -0.65727347
H        2.42757834      -0.50765200      -0.02868382
H        0.62069666      -2.35019695       0.08907437
H       -1.59785452       0.65707447       1.52543290
H       -2.45810252      -0.30129065       0.28306557
H       -1.25018428       1.15554950      -1.22612652
H        0.50267892      -0.62202513      -1.95674763
15
Frame=10 idx=008449 GeodesicLength=0.6030460597000409 rxn_smarts="[C:1]1([H:8])([H:9])[C@@:2]2([H:10])[C@@:3]3([H:11])[O:4][C:5]([H:12])([H:13])[C@:6]1([H:14])[C@@:7]23[H:15]>>[C:1]([C@:6]1([H:14])[C:5]([H:12])([H:13])[O:4][C@:3]2([H:11])[C:2]([H:8])([H:10])[C@@:7]21[H:15])[H:9]"
C        0.46811655       1.53297620       0.12923172
C        1.38770143      -0.25651134       0.16544124
C        0.33070134      -1.31889088       0.21813474
O       -0.76603080      -1.15184565       1.05411190
C       -1.47191480       0.01845757       0.65146539
C       -0.65903778       0.70326787      -0.43476569
C        0.32373144      -0.37302653      -0.92435632
H        1.18601634       0.68953566       1.10791526
H        0.93215809       2.12135465      -0.67223331
H        2.42377478      -0.51253734      -0.01588232
H        0.62064134      -2.35235659       0.07968868
H       -1.57233001       0.65371379       1.53460234
H       -2.46324310      -0.28311264       0.29811789
H       -1.25547708       1.14311474      -1.23303905
H        0.51519226      -0.61413950      -1.95843246
15
Frame=11 idx=008449 GeodesicLength=0.663495119662219 rxn_smarts="[C:1]1([H:8])([H:9])[C@@:2]2([H:10])[C@@:3]3([H:11])[O:4][C:5]([H:12])([H:13])[C@:6]1([H:14])[C@@:7]23[H:15]>>[C:1]([C@:6]1([H:14])[C:5]([H:12])([H:13])[O:4][C@:3]2([H:11])[C:2]([H:8])([H:10])[C@@:7]21[H:15])[H:9]"
C        0.47275913       1.52684739       0.11344255
C        1.38389480      -0.25781459       0.17411159
C        0.32991816      -1.32188377       0.21388294
O       -0.77554852      -1.16363813       1.03991062
C       -1.46742328       0.01967454       0.65430437
C       -0.66090213       0.70186963      -0.43801933
C        0.32933881      -0.37113179      -0.92610729
H        1.17633777       0.69825637       1.13084014
H        0.91878225       2.13058212      -0.68647106
H        2.41988632      -0.51757436      -0.00324392
H        0.62050464      -2.35449648       0.07053557
H       -1.54663257       0.64999007       1.54337934
H       -2.46789988      -0.26476322       0.31336980
H       -1.26055656       1.13062809      -1.23988073
H        0.52754105      -0.60654587      -1.96005461
15
Frame=12 idx=008449 GeodesicLength=0.7239724009488027 rxn_smarts="[C:1]1([H:8])([H:9])[C@@:2]2([H:10])[C@@:3]3([H:11])[O:4][C:5]([H:12])([H:13])[C@:6]1([H:14])[C@@:7]23[H:15]>>[C:1]([C@:6]1([H:14])[C:5]([H:12])([H:13])[O:4][C@:3]2([H:11])[C:2]([H:8])([H:10])[C@@:7]21[H:15])[H:9]"
C        0.47759326       1.52049268       0.09775818
C        1.38004397      -0.25925846       0.18259243
C        0.32909398      -1.32485025       0.20971643
O       -0.78513875      -1.17506958       1.02544578
C       -1.46283176       0.02090140       0.65704406
C       -0.66261186       0.70051457      -0.44128976
C        0.33492453      -0.36937289      -0.92789046
H        1.16637425       0.70756203       1.15346238
H        0.90495093       2.14001222      -0.69992979
H        2.41591680      -0.52277204       0.00920457
H        0.62027025      -2.35662246       0.06162470
H       -1.52081407       0.64591167       1.55174111
H       -2.47205475      -0.24628726       0.32879140
H       -1.26542322       1.11809875      -1.24664614
H        0.53970645      -0.59926037      -1.96162488
15
Frame=13 idx=008449 GeodesicLength=0.7844697847757625 rxn_smarts="[C:1]1([H:8])([H:9])[C@@:2]2([H:10])[C@@:3]3([H:11])[O:4][C:5]([H:12])([H:13])[C@:6]1([H:14])[C@@:7]23[H:15]>>[C:1]([C@:6]1([H:14])[C:5]([H:12])([H:13])[O:4][C@:3]2([H:11])[C:2]([H:8])([H:10])[C@@:7]21[H:15])[H:9]"
C        0.48261536       1.51391796       0.08217565
C        1.37615966      -0.26084504       0.19086418
C        0.32822484      -1.32778945       0.20563988
O       -0.79477313      -1.18610809       1.01075380
C       -1.45814261       0.02213568       0.65968027
C       -0.66416472       0.69920608      -0.44457620
C        0.34048286      -0.36775553      -0.92970981
H        1.15615196       0.71748002       1.17576853
H        0.89067541       2.14964391      -0.71253598
H        2.41187194      -0.52814430       0.02143430
H        0.61992018      -2.35873959       0.05296506
H       -1.49493700       0.64149807       1.55966810
H       -2.47567875      -0.22773414       0.34435556
H       -1.27007465       1.10553536      -1.25333106
H        0.55166866      -0.59230094      -1.96315229
15
Frame=14 idx=008449 GeodesicLength=0.8449837202610151 rxn_smarts="[C:1]1([H:8])([H:9])[C@@:2]2([H:10])[C@@:3]3([H:11])[O:4][C:5]([H:12])([H:13])[C@:6]1([H:14])[C@@:7]23[H:15]>>[C:1]([C@:6]1([H:14])[C:5]([H:12])([H:13])[O:4][C@:3]2([H:11])[C:2]([H:8])([H:10])[C@@:7]21[H:15])[H:9]"
C        0.48782421       1.50712829       0.06668952
C        1.37225132      -0.26257348       0.19891059
C        0.32730947      -1.33070157       0.20165588
O       -0.80442677      -1.19672979       0.99587372
C       -1.45335844       0.02337548       0.66220886
C       -0.66556019       0.69794496      -0.44788012
C        0.34600851      -0.36628609      -0.93157049
H        1.14569384       0.72803724       1.19775134
H        0.87597255       2.15947441      -0.72422094
H        2.40775738      -0.53369829       0.03341933
H        0.61944120      -2.36085427       0.04456288
H       -1.46905831       0.63676534       1.56713892
H       -2.47875491      -0.20914351       0.36004166
H       -1.27450991       1.09294572      -1.25993228
H        0.56341004      -0.58568445      -1.96464887
15
Frame=15 idx=008449 GeodesicLength=0.9055101223236439 rxn_smarts="[C:1]1([H:8])([H:9])[C@@:2]2([H:10])[C@@:3]3([H:11])[O:4][C:5]([H:12])([H:13])[C@:6]1([H:14])[C@@:7]23[H:15]>>[C:1]([C@:6]1([H:14])[C:5]([H:12])([H:13])[O:4][C@:3]2([H:11])[C:2]([H:8])([H:10])[C@@:7]21[H:15])[H:9]"
C        0.49321738       1.50012819       0.05129249
C        1.36832917      -0.26444256       0.20671505
C        0.32634762      -1.33358690       0.19776664
O       -0.81407204      -1.20691400       0.98084759
C       -1.44848161       0.02461811       0.66462651
C       -0.66679829       0.69673123      -0.45120239
C        0.35149569      -0.36497121      -0.93347789
H        1.13502030       0.73926097       1.21940319
H        0.86086348       2.16949776      -0.73491554
H        2.40357949      -0.53944007       0.04513421
H        0.61882116      -2.36297305       0.03642326
H       -1.44323665       0.63173399       1.57413501
H       -2.48127040      -0.19055615       0.37582649
H       -1.27872937       1.08034104      -1.26644676
H        0.57491408      -0.57942734      -1.96612787
15
Frame=16 idx=008449 GeodesicLength=0.9660451266907184 rxn_smarts="[C:1]1([H:8])([H:9])[C@@:2]2([H:10])[C@@:3]3([H:11])[O:4][C:5]([H:12])([H:13])[C@:6]1([H:14])[C@@:7]23[H:15]>>[C:1]([C@:6]1([H:14])[C:5]([H:12])([H:13])[O:4][C@:3]2([H:11])[C:2]([H:8])([H:10])[C@@:7]21[H:15])[H:9]"
C        0.49879032       1.49292142       0.03597723
C        1.36440375      -0.26645073       0.21426147
C        0.32533942      -1.33644655       0.19397372
O       -0.82368353      -1.21664208       0.96571842
C       -1.44351404       0.02586030       0.66693125
C       -0.66787952       0.69556446      -0.45454333
C        0.35693870      -0.36381769      -0.93543751
H        1.12414955       0.75117869       1.24071695
H        0.84537238       2.17970576      -0.74455355
H        2.39934526      -0.54537443       0.05655349
H        0.61804860      -2.36510301       0.02855032
H       -1.41752722       0.62643050       1.58064443
H       -2.48321573      -0.17201525       0.39168090
H       -1.28273502       1.06773252      -1.27287026
H        0.58616707      -0.57354391      -1.96760353
