14
Frame=0 idx=010159 GeodesicLength=0.0 rxn_smarts="[N:1]([C:2](=[O:3])[C:4]([C@@:5]1([H:12])[C:6]([H:13])([H:14])[O:7]1)([H:10])[H:11])([H:8])[H:9]>>[C:2](=[O:3])=[C:4]([H:10])[H:11].[N:1]([C:6]([C:5](=[O:7])[H:12])([H:13])[H:14])([H:8])[H:9]"
N        0.65035660       1.16894040       0.48141672
C        0.49671488      -0.08264610       1.25772592
O        0.41021161      -0.02129026       2.44559166
C        0.23688591      -1.22288062       0.33516161
C       -0.90486948      -0.63406478      -0.57470848
C       -0.39669572       0.66851594      -1.03793482
O       -1.13517269      -1.10085986      -1.79422001
H        0.45817825       1.96381334       1.08400544
H        1.58617999       1.25804034       0.10150800
H       -0.03225147      -2.11618117       0.89229195
H        1.09194302      -1.42697380      -0.31552002
H       -1.79762225      -0.52177861       0.07889141
H        0.42858936       0.58715753      -1.73278564
H       -1.09244806       1.48020763      -1.22142374
14
Frame=1 idx=010159 GeodesicLength=0.13757539973734526 rxn_smarts="[N:1]([C:2](=[O:3])[C:4]([C@@:5]1([H:12])[C:6]([H:13])([H:14])[O:7]1)([H:10])[H:11])([H:8])[H:9]>>[C:2](=[O:3])=[C:4]([H:10])[H:11].[N:1]([C:6]([C:5](=[O:7])[H:12])([H:13])[H:14])([H:8])[H:9]"
N        0.66492146       1.17168267       0.48175987
C        0.50667597      -0.09710863       1.27314595
O        0.37342878      -0.01947200       2.45547326
C        0.24897850      -1.23178431       0.34977906
C       -0.91303170      -0.63084284      -0.58025699
C       -0.40531063       0.66978212      -1.05077982
O       -1.15566021      -1.07729155      -1.80285200
H        0.47092815       1.96760579       1.08164610
H        1.60051064       1.26131860       0.10236329
H       -0.00971381      -2.13291477       0.89900170
H        1.10118323      -1.42698196      -0.30691714
H       -1.79766008      -0.52603568       0.08384081
H        0.41913287       0.59378489      -1.74814492
H       -1.10438315       1.47825767      -1.23805918
14
Frame=2 idx=010159 GeodesicLength=0.2750863322012459 rxn_smarts="[N:1]([C:2](=[O:3])[C:4]([C@@:5]1([H:12])[C:6]([H:13])([H:14])[O:7]1)([H:10])[H:11])([H:8])[H:9]>>[C:2](=[O:3])=[C:4]([H:10])[H:11].[N:1]([C:6]([C:5](=[O:7])[H:12])([H:13])[H:14])([H:8])[H:9]"
N        0.67974169       1.17434506       0.48214452
C        0.51589632      -0.11179122       1.28941846
O        0.33672664      -0.01767896       2.46428216
C        0.26136688      -1.24086147       0.36489482
C       -0.92142533      -0.62742610      -0.58622074
C       -0.41419877       0.67124301      -1.06390022
O       -1.17665690      -1.05362863      -1.81136458
H        0.48394748       1.97133586       1.07929349
H        1.61523872       1.26421865       0.10353509
H        0.01347861      -2.14979712       0.90599796
H        1.11066847      -1.42658642      -0.29786012
H       -1.79767101      -0.53044936       0.08842611
H        0.40941753       0.60054683      -1.76370671
H       -1.11653033       1.47652987      -1.25494024
14
Frame=3 idx=010159 GeodesicLength=0.4125479516294063 rxn_smarts="[N:1]([C:2](=[O:3])[C:4]([C@@:5]1([H:12])[C:6]([H:13])([H:14])[O:7]1)([H:10])[H:11])([H:8])[H:9]>>[C:2](=[O:3])=[C:4]([H:10])[H:11].[N:1]([C:6]([C:5](=[O:7])[H:12])([H:13])[H:14])([H:8])[H:9]"
N        0.69481453       1.17692476       0.48256424
C        0.52438755      -0.12671622       1.30653657
O        0.30015495      -0.01591636       2.47207543
C        0.27406274      -1.25013850       0.38053201
C       -0.93007286      -0.62379983      -0.59262219
C       -0.42336823       0.67290581      -1.07732978
O       -1.19819498      -1.02984900      -1.81977975
H        0.49719570       1.97497738       1.07695520
H        1.63036076       1.26678023       0.10503152
H        0.03735329      -2.16683443       0.91331631
H        1.12037775      -1.42579883      -0.28833962
H       -1.79763827      -0.53501346       0.09264390
H        0.39944494       0.60742591      -1.77949225
H       -1.12887785       1.47505255      -1.27209158
14
Frame=4 idx=010159 GeodesicLength=0.5499724227766454 rxn_smarts="[N:1]([C:2](=[O:3])[C:4]([C@@:5]1([H:12])[C:6]([H:13])([H:14])[O:7]1)([H:10])[H:11])([H:8])[H:9]>>[C:2](=[O:3])=[C:4]([H:10])[H:11].[N:1]([C:6]([C:5](=[O:7])[H:12])([H:13])[H:14])([H:8])[H:9]"
N        0.71013847       1.17941551       0.48301297
C        0.53215625      -0.14190628       1.32450471
O        0.26376113      -0.01419891       2.47884609
C        0.28707836      -1.25964059       0.39672406
C       -0.93899500      -0.61994716      -0.59948402
C       -0.43282603       0.67477904      -1.09109998
O       -1.22031324      -1.00592281      -1.82811619
H        0.51063215       1.97850073       1.07464193
H        1.64587337       1.26903994       0.10686663
H        0.06195282      -2.18402523       0.92100775
H        1.13028554      -1.42463043      -0.27833271
H       -1.79754632      -0.53972582       0.09648559
H        0.38921540       0.61440543      -1.79552412
H       -1.14141288       1.47385658      -1.28953272
14
Frame=5 idx=010159 GeodesicLength=0.6873753591108742 rxn_smarts="[N:1]([C:2](=[O:3])[C:4]([C@@:5]1([H:12])[C:6]([H:13])([H:14])[O:7]1)([H:10])[H:11])([H:8])[H:9]>>[C:2](=[O:3])=[C:4]([H:10])[H:11].[N:1]([C:6]([C:5](=[O:7])[H:12])([H:13])[H:14])([H:8])[H:9]"
N        0.72570961       1.18181297       0.48348620
C        0.53920049      -0.15738252       1.34333665
O        0.22760773      -0.01254921       2.48459199
C        0.30042505      -1.26939047       0.41350913
C       -0.94821424      -0.61584898      -0.60683032
C       -0.44258253       0.67687245      -1.10524712
O       -1.24303959      -0.98182522      -1.83639669
H        0.52421935       1.98188395       1.07236074
H        1.66177203       1.27102853       0.10905031
H        0.08731264      -2.20137746       0.92911955
H        1.14036774      -1.42308609      -0.26781344
H       -1.79738130      -0.54458238       0.09994474
H        0.37872864       0.62146960      -1.81182908
H       -1.15412561       1.47297481      -1.30728266
14
Frame=6 idx=010159 GeodesicLength=0.8247728379311043 rxn_smarts="[N:1]([C:2](=[O:3])[C:4]([C@@:5]1([H:12])[C:6]([H:13])([H:14])[O:7]1)([H:10])[H:11])([H:8])[H:9]>>[C:2](=[O:3])=[C:4]([H:10])[H:11].[N:1]([C:6]([C:5](=[O:7])[H:12])([H:13])[H:14])([H:8])[H:9]"
N        0.74153182       1.18410683       0.48397041
C        0.54553725      -0.17316924       1.36303094
O        0.19169696      -0.01098720       2.48936513
C        0.31412530      -1.27941473       0.43092160
C       -0.95775494      -0.61148682      -0.61468627
C       -0.45264970       0.67919651      -1.11980803
O       -1.26642189      -0.95751751      -1.84463396
H        0.53792568       1.98509871       1.07010928
H        1.67806169       1.27277844       0.11158657
H        0.11349832      -2.21888934       0.93770504
H        1.15059615      -1.42118135      -0.25676984
H       -1.79711914      -0.54958367       0.10300754
H        0.36797754       0.62860304      -1.82843861
H       -1.16700503       1.47244633      -1.32535979
14
Frame=7 idx=010159 GeodesicLength=0.9621773275386022 rxn_smarts="[N:1]([C:2](=[O:3])[C:4]([C@@:5]1([H:12])[C:6]([H:13])([H:14])[O:7]1)([H:10])[H:11])([H:8])[H:9]>>[C:2](=[O:3])=[C:4]([H:10])[H:11].[N:1]([C:6]([C:5](=[O:7])[H:12])([H:13])[H:14])([H:8])[H:9]"
N        0.75760488       1.18628953       0.48445527
C        0.55117303      -0.18929027       1.38359525
O        0.15605182      -0.00954448       2.49320332
C        0.32820307      -1.28973819       0.44899942
C       -0.96764515      -0.60683445      -0.62307501
C       -0.46304226       0.68176501      -1.13482371
O       -1.29048763      -0.93297595      -1.85284135
H        0.55172179       1.98812389       1.06788548
H        1.69474249       1.27431698       0.11447512
H        0.14055720      -2.23656730       0.94681143
H        1.16094629      -1.41892401      -0.24518075
H       -1.79673667      -0.55472560       0.10566672
H        0.35695281       0.63579167      -1.84538937
H       -1.18004169       1.47231316      -1.34378182
14
Frame=8 idx=010159 GeodesicLength=1.0996048133131247 rxn_smarts="[N:1]([C:2](=[O:3])[C:4]([C@@:5]1([H:12])[C:6]([H:13])([H:14])[O:7]1)([H:10])[H:11])([H:8])[H:9]>>[C:2](=[O:3])=[C:4]([H:10])[H:11].[N:1]([C:6]([C:5](=[O:7])[H:12])([H:13])[H:14])([H:8])[H:9]"
N        0.77393345       1.18835230       0.48492899
C        0.55609566      -0.20577417       1.40503814
O        0.12070435      -0.00824966       2.49610888
C        0.34267905      -1.30039152       0.46779470
C       -0.97790513      -0.60186386      -0.63202499
C       -0.47377233       0.68459565      -1.15033469
O       -1.31527687      -0.90815706      -1.86104167
H        0.56558355       1.99093945       1.06568419
H        1.71181391       1.27566387       0.11772426
H        0.16855797      -2.25441716       0.95651063
H        1.17138452      -1.41632503      -0.23301207
H       -1.79621005      -0.56002046       0.10790591
H        0.34564589       0.64303033      -1.86272570
H       -1.19323397       1.47261732      -1.36255659
14
Frame=9 idx=010159 GeodesicLength=1.237301734722747 rxn_smarts="[N:1]([C:2](=[O:3])[C:4]([C@@:5]1([H:12])[C:6]([H:13])([H:14])[O:7]1)([H:10])[H:11])([H:8])[H:9]>>[C:2](=[O:3])=[C:4]([H:10])[H:11].[N:1]([C:6]([C:5](=[O:7])[H:12])([H:13])[H:14])([H:8])[H:9]"
N        0.79052776       1.19024755       0.48534784
C        0.56040530      -0.22268290       1.42736214
O        0.08545717      -0.00712839       2.49825428
C        0.35767257      -1.31142880       0.48737448
C       -0.98861851      -0.59650749      -0.64156811
C       -0.48487507       0.68771749      -1.16641443
O       -1.34086910      -0.88296889      -1.86921704
H        0.57945190       1.99346505       1.06348082
H        1.72930147       1.27686821       0.12130689
H        0.19767177      -2.27244263       0.96691072
H        1.18186576      -1.41343091      -0.22031894
H       -1.79547169      -0.56544018       0.10972649
H        0.33402841       0.65028507      -1.88049383
H       -1.20654775       1.47344683      -1.38175133
14
Frame=10 idx=010159 GeodesicLength=1.3750157368076248 rxn_smarts="[N:1]([C:2](=[O:3])[C:4]([C@@:5]1([H:12])[C:6]([H:13])([H:14])[O:7]1)([H:10])[H:11])([H:8])[H:9]>>[C:2](=[O:3])=[C:4]([H:10])[H:11].[N:1]([C:6]([C:5](=[O:7])[H:12])([H:13])[H:14])([H:8])[H:9]"
N        0.80739465       1.19199150       0.48572916
C        0.56399175      -0.24000889       1.45060262
O        0.05049737      -0.00621031       2.49947520
C        0.37312796      -1.32284585       0.50777845
C       -0.99975338      -0.59078086      -0.65172989
C       -0.49635462       0.69113706      -1.18307049
O       -1.36726750      -0.85740530      -1.87741457
H        0.59336314       1.99572809       1.06128213
H        1.74719398       1.27790524       0.12525236
H        0.22789634      -2.29063675       0.97804743
H        1.19236888      -1.41022157      -0.20698543
H       -1.79452882      -0.57104499       0.11107985
H        0.32208662       0.65757911      -1.89873840
H       -1.22001636       1.47481353      -1.40130844
14
Frame=11 idx=010159 GeodesicLength=1.5127476196233596 rxn_smarts="[N:1]([C:2](=[O:3])[C:4]([C@@:5]1([H:12])[C:6]([H:13])([H:14])[O:7]1)([H:10])[H:11])([H:8])[H:9]>>[C:2](=[O:3])=[C:4]([H:10])[H:11].[N:1]([C:6]([C:5](=[O:7])[H:12])([H:13])[H:14])([H:8])[H:9]"
N        0.82454472       1.19356251       0.48605318
C        0.56686621      -0.25777738       1.47479045
O        0.01578395      -0.00551464       2.49980174
C        0.38909054      -1.33466437       0.52906139
C       -1.01134826      -0.58465590      -0.66253786
C       -0.50823659       0.69487290      -1.20034116
O       -1.39450257      -0.83142165      -1.88563976
H        0.60731132       1.99769641       1.05907328
H        1.76550652       1.27877999       0.12955403
H        0.25932337      -2.30900041       0.98997803
H        1.20285956      -1.40671257      -0.19299585
H       -1.79334847      -0.57684654       0.11194027
H        0.30979112       0.66490858      -1.91749936
H       -1.23364142       1.47677307      -1.42123839
14
Frame=12 idx=010159 GeodesicLength=1.6504869639427278 rxn_smarts="[N:1]([C:2](=[O:3])[C:4]([C@@:5]1([H:12])[C:6]([H:13])([H:14])[O:7]1)([H:10])[H:11])([H:8])[H:9]>>[C:2](=[O:3])=[C:4]([H:10])[H:11].[N:1]([C:6]([C:5](=[O:7])[H:12])([H:13])[H:14])([H:8])[H:9]"
N        0.84198976       1.19494125       0.48630377
C        0.56901832      -0.27602113       1.49995112
O       -0.01869779      -0.00506908       2.49922227
C        0.40559992      -1.34691084       0.55128898
C       -1.02342887      -0.57810337      -0.67402526
C       -0.52054298       0.69894707      -1.21826854
O       -1.42262221      -0.80495362      -1.89390437
H        0.62129025       1.99933935       1.05684424
H        1.78424952       1.27949667       0.13420952
H        0.29205176      -2.32752689       1.00278670
H        1.21329973      -1.40292160      -0.17830995
H       -1.79189217      -0.58287220       0.11227488
H        0.29711378       0.67227452      -1.93683041
H       -1.24742901       1.47937986      -1.44154296
14
Frame=13 idx=010159 GeodesicLength=1.7882157998407564 rxn_smarts="[N:1]([C:2](=[O:3])[C:4]([C@@:5]1([H:12])[C:6]([H:13])([H:14])[O:7]1)([H:10])[H:11])([H:8])[H:9]>>[C:2](=[O:3])=[C:4]([H:10])[H:11].[N:1]([C:6]([C:5](=[O:7])[H:12])([H:13])[H:14])([H:8])[H:9]"
N        0.85973802       1.19610392       0.48645800
C        0.57043504      -0.29476917       1.52611384
O       -0.05296460      -0.00490275       2.49776192
C        0.42270335      -1.35961208       0.57452721
C       -1.03602861      -0.57108890      -0.68622682
C       -0.53329837       0.70338429      -1.23689791
O       -1.45167518      -0.77793266      -1.90221643
H        0.63529125       2.00062416       1.05457584
H        1.80343236       1.28005275       0.13921628
H        0.32618716      -2.34621365       1.01655609
H        1.22365494      -1.39886808      -0.16289302
H       -1.79011654      -0.58914861       0.11204300
H        0.28402112       0.67967804      -1.95678633
H       -1.26137992       1.48269273      -1.46223168
14
Frame=14 idx=010159 GeodesicLength=1.9259301624299163 rxn_smarts="[N:1]([C:2](=[O:3])[C:4]([C@@:5]1([H:12])[C:6]([H:13])([H:14])[O:7]1)([H:10])[H:11])([H:8])[H:9]>>[C:2](=[O:3])=[C:4]([H:10])[H:11].[N:1]([C:6]([C:5](=[O:7])[H:12])([H:13])[H:14])([H:8])[H:9]"
N        0.87780250       1.19702573       0.48649879
C        0.57109477      -0.31405889       1.55330834
O       -0.08703574      -0.00506629       2.49538432
C        0.44044904      -1.37279638       0.59886229
C       -1.04918097      -0.56357270      -0.69918398
C       -0.54653018       0.70821597      -1.25627857
O       -1.48171991      -0.75027557      -1.91059007
H        0.64931625       2.00151397       1.05225803
H        1.82306494       1.28044093       0.14456854
H        0.36187152      -2.36503216       1.03141392
H        1.23386467      -1.39458324      -0.14669685
H       -1.78797073      -0.59571820       0.11119320
H        0.27047977       0.68712599      -1.97743193
H       -1.27550594       1.48678083      -1.48330604
14
Frame=15 idx=010159 GeodesicLength=2.063604877835293 rxn_smarts="[N:1]([C:2](=[O:3])[C:4]([C@@:5]1([H:12])[C:6]([H:13])([H:14])[O:7]1)([H:10])[H:11])([H:8])[H:9]>>[C:2](=[O:3])=[C:4]([H:10])[H:11].[N:1]([C:6]([C:5](=[O:7])[H:12])([H:13])[H:14])([H:8])[H:9]"
N        0.89619371       1.19767666       0.48640089
C        0.57096174      -0.33392489       1.58157125
O       -0.12091520      -0.00560249       2.49209848
C        0.45888985      -1.38648850       0.62437722
C       -1.06292020      -0.55551666      -0.71294127
C       -0.56026926       0.71347320      -1.27646376
O       -1.51281423      -0.72189483      -1.91902886
H        0.66336118       2.00196753       1.04987072
H        1.84315898       1.28064696       0.15026528
H        0.39923950      -2.38396125       1.04747348
H        1.24388036      -1.39009406      -0.12967639
H       -1.78540005      -0.60262126       0.10966255
H        0.25644821       0.69462701      -1.99883350
H       -1.28981459       1.49171258      -1.50477609
14
Frame=16 idx=010159 GeodesicLength=2.2012267222873927 rxn_smarts="[N:1]([C:2](=[O:3])[C:4]([C@@:5]1([H:12])[C:6]([H:13])([H:14])[O:7]1)([H:10])[H:11])([H:8])[H:9]>>[C:2](=[O:3])=[C:4]([H:10])[H:11].[N:1]([C:6]([C:5](=[O:7])[H:12])([H:13])[H:14])([H:8])[H:9]"
N        0.91492584       1.19802434       0.48613700
C        0.56998987      -0.35440611       1.61094116
O       -0.15461681      -0.00657344       2.48787703
C        0.47808805      -1.40071293       0.65117515
C       -1.07728063      -0.54687701      -0.72755036
C       -0.57454601       0.71919398      -1.29750874
O       -1.54503264      -0.69268193      -1.92753582
H        0.67743045       2.00194043       1.04739377
H        1.86372654       1.28064905       0.15630148
H        0.43845680      -2.40296245       1.06488233
H        1.25363670      -1.38543863      -0.11177333
H       -1.78233838      -0.60991593       0.10737291
H        0.24187931       0.70219388      -2.02106924
H       -1.30431909       1.49756674      -1.52664335
