8
Frame=0 idx=003319 GeodesicLength=0.0 rxn_smarts="[O:1]=[C:2]([C:3]([C:4]#[N:5])([H:7])[H:8])[H:6]>>[O:1]([C:2][C:3]([C:4]#[N:5])([H:7])[H:8])[H:6]"
O       -1.99277888       0.28041353      -0.15467073
C       -0.79962667       0.60998743       0.19738003
C        0.23728331      -0.47948392       0.07398635
C        1.56552129       0.01756394      -0.25917101
N        2.60930209       0.40227460      -0.53402470
H       -1.79901946       1.35707805       0.27521096
H       -0.09780141      -1.22423791      -0.65555075
H        0.27711973      -0.96359572       1.05683986
8
Frame=1 idx=003319 GeodesicLength=0.03025411632840929 rxn_smarts="[O:1]=[C:2]([C:3]([C:4]#[N:5])([H:7])[H:8])[H:6]>>[O:1]([C:2][C:3]([C:4]#[N:5])([H:7])[H:8])[H:6]"
O       -1.99172900       0.27672306      -0.14088805
C       -0.80270287       0.60020329       0.22068857
C        0.23644852      -0.48456523       0.07578092
C        1.56084003       0.02172696      -0.25901735
N        2.60297317       0.41126592      -0.53352768
H       -1.79040412       1.37739385       0.24285115
H       -0.09880960      -1.22373336      -0.65909132
H        0.28338387      -0.97901447       1.05320378
8
Frame=2 idx=003319 GeodesicLength=0.06040408724065974 rxn_smarts="[O:1]=[C:2]([C:3]([C:4]#[N:5])([H:7])[H:8])[H:6]>>[O:1]([C:2][C:3]([C:4]#[N:5])([H:7])[H:8])[H:6]"
O       -1.99071926       0.27357678      -0.12734881
C       -0.80585588       0.59067480       0.24350178
C        0.23531896      -0.48921240       0.07757484
C        1.55584442       0.02602800      -0.25872475
N        2.59628792       0.42017662      -0.53300650
H       -1.77998196       1.39534991       0.21087704
H       -0.10012688      -1.22285995      -0.66241594
H        0.28923269      -0.99373376       1.04954234
8
Frame=3 idx=003319 GeodesicLength=0.090607951653359 rxn_smarts="[O:1]=[C:2]([C:3]([C:4]#[N:5])([H:7])[H:8])[H:6]>>[O:1]([C:2][C:3]([C:4]#[N:5])([H:7])[H:8])[H:6]"
O       -1.98971824       0.27119616      -0.11561889
C       -0.80899486       0.58185611       0.26430025
C        0.23402651      -0.49331667       0.07920655
C        1.55096651       0.03021687      -0.25850791
N        2.58996887       0.42840821      -0.53254652
H       -1.76918565       1.41057860       0.18214626
H       -0.10147522      -1.22220573      -0.66515300
H        0.29441209      -1.00673355       1.04617327
8
Frame=4 idx=003319 GeodesicLength=0.12090744507472527 rxn_smarts="[O:1]=[C:2]([C:3]([C:4]#[N:5])([H:7])[H:8])[H:6]>>[O:1]([C:2][C:3]([C:4]#[N:5])([H:7])[H:8])[H:6]"
O       -1.98867255       0.26933773      -0.10546484
C       -0.81210475       0.57370420       0.28315443
C        0.23264214      -0.49696231       0.08063910
C        1.54615420       0.03430196      -0.25842867
N        2.58397972       0.43590860      -0.53202896
H       -1.75835178       1.42371910       0.15648348
H       -0.10271903      -1.22185907      -0.66741375
H        0.29907204      -1.01815022       1.04305922
8
Frame=5 idx=003319 GeodesicLength=0.15111918170271055 rxn_smarts="[O:1]=[C:2]([C:3]([C:4]#[N:5])([H:7])[H:8])[H:6]>>[O:1]([C:2][C:3]([C:4]#[N:5])([H:7])[H:8])[H:6]"
O       -1.98750336       0.26787592      -0.09655634
C       -0.81513443       0.56597616       0.30046594
C        0.23116609      -0.50028460       0.08193891
C        1.54135020       0.03828449      -0.25842739
N        2.57810302       0.44298249      -0.53151702
H       -1.74734720       1.43528455       0.13317534
H       -0.10391686      -1.22171231      -0.66930028
H        0.30328254      -1.02840669       1.04022084
8
Frame=6 idx=003319 GeodesicLength=0.18131267398190032 rxn_smarts="[O:1]=[C:2]([C:3]([C:4]#[N:5])([H:7])[H:8])[H:6]>>[O:1]([C:2][C:3]([C:4]#[N:5])([H:7])[H:8])[H:6]"
O       -1.98627231       0.26667890      -0.08880829
C       -0.81814182       0.55864719       0.31636419
C        0.22964567      -0.50330950       0.08311248
C        1.53665166       0.04219246      -0.25846962
N        2.57251363       0.44952474      -0.53107320
H       -1.73649678       1.44562736       0.11212840
H       -0.10497212      -1.22178421      -0.67084516
H        0.30707207      -1.03757695       1.03759120
8
Frame=7 idx=003319 GeodesicLength=0.21157129415447984 rxn_smarts="[O:1]=[C:2]([C:3]([C:4]#[N:5])([H:7])[H:8])[H:6]>>[O:1]([C:2][C:3]([C:4]#[N:5])([H:7])[H:8])[H:6]"
O       -1.98504076       0.26567945      -0.08184309
C       -0.82113455       0.55161354       0.33119116
C        0.22809359      -0.50614647       0.08418529
C        1.53200990       0.04602436      -0.25854742
N        2.56707344       0.45576645      -0.53063407
H       -1.72565917       1.45512376       0.09268328
H       -0.10595051      -1.22207222      -0.67217456
H        0.31060805      -1.04598886       1.03513941
8
Frame=8 idx=003319 GeodesicLength=0.2418721421423946 rxn_smarts="[O:1]=[C:2]([C:3]([C:4]#[N:5])([H:7])[H:8])[H:6]>>[O:1]([C:2][C:3]([C:4]#[N:5])([H:7])[H:8])[H:6]"
O       -1.98381961       0.26481840      -0.07545686
C       -0.82412528       0.54479907       0.34516310
C        0.22650801      -0.50883329       0.08517848
C        1.52741584       0.04979042      -0.25864230
N        2.56174580       0.46179605      -0.53020724
H       -1.71477497       1.46394845       0.07448160
H       -0.10686441      -1.22252134      -0.67332955
H        0.31391462      -1.05379775       1.03281279
8
Frame=9 idx=003319 GeodesicLength=0.2721580779448378 rxn_smarts="[O:1]=[C:2]([C:3]([C:4]#[N:5])([H:7])[H:8])[H:6]>>[O:1]([C:2][C:3]([C:4]#[N:5])([H:7])[H:8])[H:6]"
O       -1.98257547       0.26404345      -0.06948372
C       -0.82710469       0.53814976       0.35843880
C        0.22488373      -0.51138341       0.08611246
C        1.52283504       0.05351104      -0.25870743
N        2.55644677       0.46765891      -0.52981730
H       -1.70376551       1.47218941       0.05723619
H       -0.10771137      -1.22304864      -0.67435956
H        0.31699150      -1.06112052       1.03058055
8
Frame=10 idx=003319 GeodesicLength=0.3024334582570164 rxn_smarts="[O:1]=[C:2]([C:3]([C:4]#[N:5])([H:7])[H:8])[H:6]>>[O:1]([C:2][C:3]([C:4]#[N:5])([H:7])[H:8])[H:6]"
O       -1.98129036       0.26335699      -0.06415209
C       -0.83007386       0.53167353       0.37090587
C        0.22325367      -0.51381091       0.08697028
C        1.51828690       0.05717600      -0.25882132
N        2.55125897       0.47326190      -0.52944333
H       -1.69288290       1.47997684       0.04125639
H       -0.10845234      -1.22376626      -0.67521371
H        0.31989992      -1.06786807       1.02849790
8
Frame=11 idx=003319 GeodesicLength=0.33270510615296867 rxn_smarts="[O:1]=[C:2]([C:3]([C:4]#[N:5])([H:7])[H:8])[H:6]>>[O:1]([C:2][C:3]([C:4]#[N:5])([H:7])[H:8])[H:6]"
O       -1.97997788       0.26271445      -0.05948199
C       -0.83305304       0.52537222       0.38256700
C        0.22163643      -0.51611593       0.08774361
C        1.51379060       0.06082276      -0.25901813
N        2.54628137       0.47851383      -0.52908007
H       -1.68229057       1.48742931       0.02659012
H       -0.10905117      -1.22470116      -0.67589186
H        0.32266425      -1.07403549       1.02657131
8
Frame=12 idx=003319 GeodesicLength=0.36295553450381157 rxn_smarts="[O:1]=[C:2]([C:3]([C:4]#[N:5])([H:7])[H:8])[H:6]>>[O:1]([C:2][C:3]([C:4]#[N:5])([H:7])[H:8])[H:6]"
O       -1.97864306       0.26209053      -0.05531485
C       -0.83603836       0.51919992       0.39356336
C        0.22002507      -0.51832267       0.08844329
C        1.50931974       0.06444724      -0.25929288
N        2.54144982       0.48349873      -0.52870393
H       -1.67188828       1.49462132       0.01296750
H       -0.10953974      -1.22581112      -0.67642966
H        0.32531480      -1.07972396       1.02476717
8
Frame=13 idx=003319 GeodesicLength=0.3931968976441777 rxn_smarts="[O:1]=[C:2]([C:3]([C:4]#[N:5])([H:7])[H:8])[H:6]>>[O:1]([C:2][C:3]([C:4]#[N:5])([H:7])[H:8])[H:6]"
O       -1.97729307       0.26147458      -0.05155481
C       -0.83903355       0.51312477       0.40400160
C        0.21841699      -0.52045564       0.08908549
C        1.50486897       0.06804421      -0.25961448
N        2.53671554       0.48828883      -0.52833369
H       -1.66160897       1.50161913       0.00020051
H       -0.10992923      -1.22707217      -0.67685473
H        0.32786332      -1.08502370       1.02307011
8
Frame=14 idx=003319 GeodesicLength=0.4234321016071284 rxn_smarts="[O:1]=[C:2]([C:3]([C:4]#[N:5])([H:7])[H:8])[H:6]>>[O:1]([C:2][C:3]([C:4]#[N:5])([H:7])[H:8])[H:6]"
O       -1.97593496       0.26085495      -0.04813159
C       -0.84204384       0.50712265       0.41396303
C        0.21680989      -0.52252743       0.08968156
C        1.50043121       0.07161878      -0.25996481
N        2.53205132       0.49292232      -0.52797854
H       -1.65140679       1.50846606      -0.01184861
H       -0.11022957      -1.22846121      -0.67718653
H        0.33032274      -1.08999613       1.02146549
8
Frame=15 idx=003319 GeodesicLength=0.45366175252118646 rxn_smarts="[O:1]=[C:2]([C:3]([C:4]#[N:5])([H:7])[H:8])[H:6]>>[O:1]([C:2][C:3]([C:4]#[N:5])([H:7])[H:8])[H:6]"
O       -1.97457545       0.26022026      -0.04498493
C       -0.84507223       0.50117799       0.42350796
C        0.21520243      -0.52454624       0.09023905
C        1.49600232       0.07517604      -0.26032796
N        2.52744005       0.49742228      -0.52764542
H       -1.64125171       1.51519240      -0.02328699
H       -0.11044651      -1.22995656      -0.67744292
H        0.33270109      -1.09468617       1.01994120
8
Frame=16 idx=003319 GeodesicLength=0.48389026538372126 rxn_smarts="[O:1]=[C:2]([C:3]([C:4]#[N:5])([H:7])[H:8])[H:6]>>[O:1]([C:2][C:3]([C:4]#[N:5])([H:7])[H:8])[H:6]"
O       -1.97321847       0.25956806      -0.04206865
C       -0.84812001       0.49527498       0.43269001
C        0.21359266      -0.52652384       0.09076674
C        1.49158042       0.07871253      -0.26068411
N        2.52285348       0.50182970      -0.52734743
H       -1.63110238       1.52182469      -0.03420908
H       -0.11058742      -1.23154583      -0.67763559
H        0.33500172      -1.09914029       1.01848811
