17
Frame=0 idx=010870 GeodesicLength=0.0 rxn_smarts="[C:1]([C@@:2]1([H:11])[O:3][C@@:4]2([H:12])[C:5]([H:13])([H:14])[C@@:6]12[C:7]([H:15])([H:16])[H:17])([H:8])([H:9])[H:10]>>[C:1]([C:6]1([C:7]([H:15])([H:16])[H:17])[C:2]([H:11])=[O+:3][C-:4]([H:12])[C:5]1([H:13])[H:14])([H:8])([H:9])[H:10]"
C       -1.56007844       0.12451736       0.18363436
C       -0.14254769      -0.18293125       1.23627744
O        0.17724365      -1.42959642       1.42793411
C        1.14395134      -1.75772060       0.36056397
C        0.72856781      -0.93269905      -0.81901208
C        0.34563824       0.29170426      -0.01133932
C        0.60477307       1.70008315      -0.40092341
H       -2.00700297       1.03316661       0.57565923
H       -1.55899528       0.13403192      -0.91089280
H       -2.10468857      -0.76457913       0.48987851
H       -0.35205847       0.42610326       2.10800229
H        1.18359915      -2.83938512       0.26260056
H        1.56968039      -0.72393144      -1.48433044
H       -0.11987906      -1.25058545      -1.48664430
H        0.15893239       1.93352795      -1.37199683
H        0.24774109       2.41409029       0.34197303
H        1.68512337       1.82420368      -0.50138438
17
Frame=1 idx=010870 GeodesicLength=0.060218218037617066 rxn_smarts="[C:1]([C@@:2]1([H:11])[O:3][C@@:4]2([H:12])[C:5]([H:13])([H:14])[C@@:6]12[C:7]([H:15])([H:16])[H:17])([H:8])([H:9])[H:10]>>[C:1]([C:6]1([C:7]([H:15])([H:16])[H:17])[C:2]([H:11])=[O+:3][C-:4]([H:12])[C:5]1([H:13])[H:14])([H:8])([H:9])[H:10]"
C       -1.57079937       0.12453127       0.18073886
C       -0.15220679      -0.18369685       1.23889092
O        0.17139978      -1.43481437       1.42208537
C        1.14072148      -1.73659070       0.36076246
C        0.71978393      -0.93342585      -0.82899538
C        0.33868636       0.28543378      -0.01393879
C        0.61615656       1.69352890      -0.39692942
H       -2.01448316       1.03686889       0.56881665
H       -1.58269101       0.12970286      -0.91363377
H       -2.12113254      -0.76020089       0.49088415
H       -0.35116396       0.42411344       2.11359875
H        1.23358030      -2.81550593       0.27436981
H        1.56210379      -0.72206676      -1.49218759
H       -0.12627026      -1.26315172      -1.48930144
H        0.16702816       1.93945566      -1.36335912
H        0.27207166       2.40936088       0.35045273
H        1.69721509       1.80645737      -0.50225419
17
Frame=2 idx=010870 GeodesicLength=0.12041462273622056 rxn_smarts="[C:1]([C@@:2]1([H:11])[O:3][C@@:4]2([H:12])[C:5]([H:13])([H:14])[C@@:6]12[C:7]([H:15])([H:16])[H:17])([H:8])([H:9])[H:10]>>[C:1]([C:6]1([C:7]([H:15])([H:16])[H:17])[C:2]([H:11])=[O+:3][C-:4]([H:12])[C:5]1([H:13])[H:14])([H:8])([H:9])[H:10]"
C       -1.58148145       0.12434194       0.17782752
C       -0.16170515      -0.18442281       1.24148499
O        0.16588820      -1.43991597       1.41623704
C        1.13653675      -1.71618103       0.36049958
C        0.71114152      -0.93412663      -0.83890210
C        0.33173684       0.27924508      -0.01661522
C        0.62755125       1.68681963      -0.39295328
H       -2.02195147       1.04034600       0.56188245
H       -1.60669266       0.12496503      -0.91621730
H       -2.13742491      -0.75593526       0.49213513
H       -0.34997555       0.42205780       2.11915074
H        1.28266633      -2.78961583       0.28622517
H        1.55493448      -0.72026286      -1.49964435
H       -0.13216436      -1.27544626      -1.49222591
H        0.17525608       1.94528010      -1.35458772
H        0.29652191       2.40422241       0.35894963
H        1.70916218       1.78862868      -0.50324637
17
Frame=3 idx=010870 GeodesicLength=0.18059451244497673 rxn_smarts="[C:1]([C@@:2]1([H:11])[O:3][C@@:4]2([H:12])[C:5]([H:13])([H:14])[C@@:6]12[C:7]([H:15])([H:16])[H:17])([H:8])([H:9])[H:10]>>[C:1]([C:6]1([C:7]([H:15])([H:16])[H:17])[C:2]([H:11])=[O+:3][C-:4]([H:12])[C:5]1([H:13])[H:14])([H:8])([H:9])[H:10]"
C       -1.59213143       0.12395863       0.17489371
C       -0.17105152      -0.18511893       1.24405331
O        0.16066350      -1.44491951       1.41038237
C        1.13144518      -1.69650503       0.35978977
C        0.70262484      -0.93480394      -0.84874751
C        0.32478940       0.27313068      -0.01937047
C        0.63897160       1.67994630      -0.38898767
H       -2.02940351       1.04361295       0.55484832
H       -1.63101301       0.11982662      -0.91863474
H       -2.15358969      -0.75175578       0.49363421
H       -0.34849605       0.41992262       2.12465110
H        1.33092057      -2.76165810       0.29819314
H        1.54814026      -0.71852719      -1.50673462
H       -0.13759697      -1.28747966      -1.49542039
H        0.18363663       1.95100421      -1.34567172
H        0.32110934       2.39866237       0.36747102
H        1.72098086       1.77070375      -0.50434983
17
Frame=4 idx=010870 GeodesicLength=0.24076248850386997 rxn_smarts="[C:1]([C@@:2]1([H:11])[O:3][C@@:4]2([H:12])[C:5]([H:13])([H:14])[C@@:6]12[C:7]([H:15])([H:16])[H:17])([H:8])([H:9])[H:10]>>[C:1]([C:6]1([C:7]([H:15])([H:16])[H:17])[C:2]([H:11])=[O+:3][C-:4]([H:12])[C:5]1([H:13])[H:14])([H:8])([H:9])[H:10]"
C       -1.60275567       0.12338937       0.17193096
C       -0.18025393      -0.18579679       1.24658922
O        0.15568252      -1.44984550       1.40451204
C        1.12548962      -1.67757730       0.35864384
C        0.69421766      -0.93546195      -0.85854764
C        0.31784430       0.26708156      -0.02220682
C        0.65043265       1.67289750      -0.38502525
H       -2.03683403       1.04668334       0.54770683
H       -1.65566473       0.11429606      -0.92087635
H       -2.16964938      -0.74763691       0.49538409
H       -0.34672752       0.41769081       2.13009293
H        1.37840042      -2.73154963       0.31030574
H        1.54168988      -0.71686928      -1.51349125
H       -0.14260307      -1.29926170      -1.49888946
H        0.19219110       1.95662913      -1.33659936
H        0.34585240       2.39266515       0.37602469
H        1.73268778       1.75266616      -0.50555421
17
Frame=5 idx=010870 GeodesicLength=0.3009240114666248 rxn_smarts="[C:1]([C@@:2]1([H:11])[O:3][C@@:4]2([H:12])[C:5]([H:13])([H:14])[C@@:6]12[C:7]([H:15])([H:16])[H:17])([H:8])([H:9])[H:10]>>[C:1]([C:6]1([C:7]([H:15])([H:16])[H:17])[C:2]([H:11])=[O+:3][C-:4]([H:12])[C:5]1([H:13])[H:14])([H:8])([H:9])[H:10]"
C       -1.61336045       0.12264149       0.16893271
C       -0.18932053      -0.18647042       1.24908568
O        0.15090323      -1.45471718       1.39861399
C        1.11870821      -1.65941324       0.35706989
C        0.68590207      -0.93610700      -0.86831900
C        0.31090156       0.26108660      -0.02512690
C        0.66195066       1.66565836      -0.38105820
H       -2.04423631       1.04957017       0.54045089
H       -1.68066058       0.10838326      -0.92293161
H       -2.18562607      -0.74355279       0.49738706
H       -0.34467206       0.41534118       2.13546955
H        1.42516278      -2.69917470       0.32259883
H        1.53555082      -0.71530154      -1.51994699
H       -0.14721865      -1.31080261      -1.50263836
H        0.20094300       1.96215316      -1.32735785
H        0.37077174       2.38621070       0.38461957
H        1.74430056       1.73449454      -0.50684925
17
Frame=6 idx=010870 GeodesicLength=0.36108239269350906 rxn_smarts="[C:1]([C@@:2]1([H:11])[O:3][C@@:4]2([H:12])[C:5]([H:13])([H:14])[C@@:6]12[C:7]([H:15])([H:16])[H:17])([H:8])([H:9])[H:10]>>[C:1]([C:6]1([C:7]([H:15])([H:16])[H:17])[C:2]([H:11])=[O+:3][C-:4]([H:12])[C:5]1([H:13])[H:14])([H:8])([H:9])[H:10]"
C       -1.62394905       0.12171891       0.16589328
C       -0.19825602      -0.18715453       1.25153637
O        0.14628910      -1.45955783       1.39267605
C        1.11113601      -1.64203124       0.35507292
C        0.67766326      -0.93674536      -0.87807810
C        0.30396378       0.25513376      -0.02813287
C        0.67354115       1.65821217      -0.37707947
H       -2.05160177       1.05228207       0.53307432
H       -1.70601064       0.10209502      -0.92478824
H       -2.20153608      -0.73948109       0.49964688
H       -0.34232866       0.41285072       2.14077517
H        1.47123130      -2.66439273       0.33510824
H        1.52969621      -0.71383650      -1.52613108
H       -0.15147443      -1.32210944      -1.50667571
H        0.20991506       1.96757123      -1.31793481
H        0.39588546       2.37927642       0.39326318
H        1.75583533       1.71616844      -0.50822615
17
Frame=7 idx=010870 GeodesicLength=0.4212437083175819 rxn_smarts="[C:1]([C@@:2]1([H:11])[O:3][C@@:4]2([H:12])[C:5]([H:13])([H:14])[C@@:6]12[C:7]([H:15])([H:16])[H:17])([H:8])([H:9])[H:10]>>[C:1]([C:6]1([C:7]([H:15])([H:16])[H:17])[C:2]([H:11])=[O+:3][C-:4]([H:12])[C:5]1([H:13])[H:14])([H:8])([H:9])[H:10]"
C       -1.63452467       0.12062431       0.16280715
C       -0.20706524      -0.18786654       1.25393464
O        0.14180497      -1.46439356       1.38668371
C        1.10280680      -1.62545035       0.35265687
C        0.66948536      -0.93738556      -0.88784078
C        0.29703372       0.24920884      -0.03122694
C        0.68522163       1.65053866      -0.37308156
H       -2.05892042       1.05482676       0.52557095
H       -1.73172479       0.09543953      -0.92643258
H       -2.21739564      -0.73539946       0.50216753
H       -0.33969691       0.41019207       2.14600388
H        1.51662170      -2.62702621       0.34786818
H        1.52409780      -0.71248940      -1.53207292
H       -0.15540201      -1.33319121      -1.51100871
H        0.21913375       1.97287440      -1.30831716
H        0.42121371       2.37183532       0.40196351
H        1.76731022       1.69766240      -0.50967577
17
Frame=8 idx=010870 GeodesicLength=0.4814169133685823 rxn_smarts="[C:1]([C@@:2]1([H:11])[O:3][C@@:4]2([H:12])[C:5]([H:13])([H:14])[C@@:6]12[C:7]([H:15])([H:16])[H:17])([H:8])([H:9])[H:10]>>[C:1]([C:6]1([C:7]([H:15])([H:16])[H:17])[C:2]([H:11])=[O+:3][C-:4]([H:12])[C:5]1([H:13])[H:14])([H:8])([H:9])[H:10]"
C       -1.64508960       0.11935894       0.15966856
C       -0.21575146      -0.18862665       1.25627332
O        0.13741903      -1.46925337       1.38061901
C        1.09375547      -1.60969116       0.34982253
C        0.66135265      -0.93803850      -0.89762412
C        0.29011466       0.24329567      -0.03441214
C        0.69701072       1.64261464      -0.36905651
H       -2.06618072       1.05721030       0.51793597
H       -1.75781257       0.08842579      -0.92785059
H       -2.23321869      -0.73128689       0.50495194
H       -0.33677357       0.40733343       2.15115042
H        1.56133028      -2.58686269       0.36092108
H        1.51872654      -0.71127748      -1.53780407
H       -0.15903259      -1.34405840      -1.51564652
H        0.22862661       1.97805263      -1.29849038
H        0.44677902       2.36385651       0.41073031
H        1.77874422       1.67894725      -0.51118882
17
Frame=9 idx=010870 GeodesicLength=0.5416193465292025 rxn_smarts="[C:1]([C@@:2]1([H:11])[O:3][C@@:4]2([H:12])[C:5]([H:13])([H:14])[C@@:6]12[C:7]([H:15])([H:16])[H:17])([H:8])([H:9])[H:10]>>[C:1]([C:6]1([C:7]([H:15])([H:16])[H:17])[C:2]([H:11])=[O+:3][C-:4]([H:12])[C:5]1([H:13])[H:14])([H:8])([H:9])[H:10]"
C       -1.65564705       0.11792419       0.15647119
C       -0.22431994      -0.18946129       1.25854341
O        0.13309768      -1.47417312       1.37445804
C        1.08401530      -1.59477831       0.34656740
C        0.65324512      -0.93872004      -0.90744641
C        0.28320855       0.23737351      -0.03769286
C        0.70893147       1.63440964      -0.36499457
H       -2.07336817       1.05943969       0.51016494
H       -1.78428417       0.08106688      -0.92902770
H       -2.24902155      -0.72711969       0.50800214
H       -0.33355604       0.40423369       2.15620893
H        1.60535517      -2.54361965       0.37431863
H        1.51354685      -0.71022285      -1.54336059
H       -0.16240259      -1.35472585      -1.52059775
H        0.23842640       1.98309215      -1.28843574
H        0.47261292       2.35529912       0.41957785
H        1.79016002       1.65998195      -0.51275692
17
Frame=10 idx=010870 GeodesicLength=0.6018650053732891 rxn_smarts="[C:1]([C@@:2]1([H:11])[O:3][C@@:4]2([H:12])[C:5]([H:13])([H:14])[C@@:6]12[C:7]([H:15])([H:16])[H:17])([H:8])([H:9])[H:10]>>[C:1]([C:6]1([C:7]([H:15])([H:16])[H:17])[C:2]([H:11])=[O+:3][C-:4]([H:12])[C:5]1([H:13])[H:14])([H:8])([H:9])[H:10]"
C       -1.66619063       0.11630917       0.15321139
C       -0.23276289      -0.19038920       1.26074070
O        0.12883089      -1.47917699       1.36818484
C        1.07364489      -1.58072526       0.34289876
C        0.64516262      -0.93943955      -0.91731697
C        0.27632696       0.23142788      -0.04106968
C        0.72100101       1.62590150      -0.36089014
H       -2.08046870       1.06150673       0.50225232
H       -1.81114012       0.07335973      -0.92994547
H       -2.26480165      -0.72289075       0.51132533
H       -0.33003417       0.40086135       2.16117577
H        1.64854703      -2.49705473       0.38807019
H        1.50854442      -0.70933805      -1.54876704
H       -0.16552335      -1.36520668      -1.52586575
H        0.24855933       1.98797628      -1.27814168
H        0.49872975       2.34613264       0.42851042
H        1.80157459       1.64074593      -0.51437298
17
Frame=11 idx=010870 GeodesicLength=0.6621769023378354 rxn_smarts="[C:1]([C@@:2]1([H:11])[O:3][C@@:4]2([H:12])[C:5]([H:13])([H:14])[C@@:6]12[C:7]([H:15])([H:16])[H:17])([H:8])([H:9])[H:10]>>[C:1]([C:6]1([C:7]([H:15])([H:16])[H:17])[C:2]([H:11])=[O+:3][C-:4]([H:12])[C:5]1([H:13])[H:14])([H:8])([H:9])[H:10]"
C       -1.67670889       0.11449694       0.14988572
C       -0.24106782      -0.19142639       1.26286313
O        0.12462208      -1.48428361       1.36178518
C        1.06272543      -1.56753074       0.33883374
C        0.63711478      -0.94020450      -0.92723801
C        0.26948491       0.22544754      -0.04454175
C        0.73323474       1.61707100      -0.35673879
H       -2.08746709       1.06339599       0.49419013
H       -1.83837404       0.06529449      -0.93058446
H       -2.28054700      -0.71859941       0.51493071
H       -0.32619690       0.39718740       2.16604871
H        1.69067104      -2.44693928       0.40215526
H        1.50371064      -0.70863042      -1.55404552
H       -0.16839320      -1.37551937      -1.53144413
H        0.25904957       1.99268663      -1.26759878
H        0.52513907       2.33632922       0.43753019
H        1.81300268       1.62122452      -0.51603134
17
Frame=12 idx=010870 GeodesicLength=0.7225880733515264 rxn_smarts="[C:1]([C@@:2]1([H:11])[O:3][C@@:4]2([H:12])[C:5]([H:13])([H:14])[C@@:6]12[C:7]([H:15])([H:16])[H:17])([H:8])([H:9])[H:10]>>[C:1]([C:6]1([C:7]([H:15])([H:16])[H:17])[C:2]([H:11])=[O+:3][C-:4]([H:12])[C:5]1([H:13])[H:14])([H:8])([H:9])[H:10]"
C       -1.68718404       0.11246284       0.14649001
C       -0.24921330      -0.19257902       1.26491278
O        0.12049821      -1.48949854       1.35524881
C        1.05137857      -1.55516474       0.33440672
C        0.62912995      -0.94101758      -0.93720118
C        0.26270264       0.21943091      -0.04810599
C        0.74564102       1.60791141      -0.35253855
H       -2.09435096       1.06508292       0.48596586
H       -1.86597179       0.05684759      -0.93092613
H       -2.29623094      -0.71425583       0.51882873
H       -0.32202901       0.39319517       2.17082916
H        1.73136512      -2.39313449       0.41650948
H        1.49904962      -0.70809649      -1.55921315
H       -0.17098672      -1.38569184      -1.53731305
H        0.26990868       1.99721092      -1.25680090
H        0.55184088       2.32587448       0.44663732
H        1.82445208       1.60142226      -0.51772993
17
Frame=13 idx=010870 GeodesicLength=0.7831424888042017 rxn_smarts="[C:1]([C@@:2]1([H:11])[O:3][C@@:4]2([H:12])[C:5]([H:13])([H:14])[C@@:6]12[C:7]([H:15])([H:16])[H:17])([H:8])([H:9])[H:10]>>[C:1]([C:6]1([C:7]([H:15])([H:16])[H:17])[C:2]([H:11])=[O+:3][C-:4]([H:12])[C:5]1([H:13])[H:14])([H:8])([H:9])[H:10]"
C       -1.69758855       0.11016534       0.14302429
C       -0.25716983      -0.19383389       1.26689625
O        0.11651820      -1.49479740       1.34858055
C        1.03977976      -1.54353883       0.32968679
C        0.62126678      -0.94186199      -0.94716985
C        0.25600939       0.21339735      -0.05175356
C        0.75821978       1.59844176      -0.34829655
H       -2.10111348       1.06652019       0.47755763
H       -1.89390102       0.04797204      -0.93094211
H       -2.31180763      -0.70989244       0.52304134
H       -0.31752540       0.38889133       2.17551274
H        1.77008455      -2.33571512       0.43095672
H        1.49459207      -0.70770193      -1.56426570
H       -0.17323806      -1.39575603      -1.54341075
H        0.28114279       2.00154097      -1.24575670
H        0.57880630       2.31478279       0.45580906
H        1.83592438       1.58138585      -0.51947013
17
Frame=14 idx=010870 GeodesicLength=0.8438776598192899 rxn_smarts="[C:1]([C@@:2]1([H:11])[O:3][C@@:4]2([H:12])[C:5]([H:13])([H:14])[C@@:6]12[C:7]([H:15])([H:16])[H:17])([H:8])([H:9])[H:10]>>[C:1]([C:6]1([C:7]([H:15])([H:16])[H:17])[C:2]([H:11])=[O+:3][C-:4]([H:12])[C:5]1([H:13])[H:14])([H:8])([H:9])[H:10]"
C       -1.70787912       0.10755343       0.13948571
C       -0.26488806      -0.19513841       1.26883435
O        0.11278903      -1.50010846       1.34180585
C        1.02817619      -1.53248717       0.32478262
C        0.61362917      -0.94269778      -0.95708815
C        0.24944367       0.20739895      -0.05546965
C        0.77093837       1.58872409      -0.34402801
H       -2.10775859       1.06764639       0.46893098
H       -1.92210979       0.03858538      -0.93061170
H       -2.32719301      -0.70555749       0.52759426
H       -0.31267370       0.38433366       2.18010978
H        1.80607750      -2.27516144       0.44522791
H        1.49040666      -0.70737877      -1.56917981
H       -0.17501855      -1.40574842      -1.54965743
H        0.29270704       2.00569262      -1.23448925
H        0.60596601       2.30311728       0.46501698
H        1.84738717       1.56122615      -0.52126443
17
Frame=15 idx=010870 GeodesicLength=0.904824138185642 rxn_smarts="[C:1]([C@@:2]1([H:11])[O:3][C@@:4]2([H:12])[C:5]([H:13])([H:14])[C@@:6]12[C:7]([H:15])([H:16])[H:17])([H:8])([H:9])[H:10]>>[C:1]([C:6]1([C:7]([H:15])([H:16])[H:17])[C:2]([H:11])=[O+:3][C-:4]([H:12])[C:5]1([H:13])[H:14])([H:8])([H:9])[H:10]"
C       -1.71801218       0.10457120       0.13587244
C       -0.27231837      -0.19640651       1.27075246
O        0.10943942      -1.50531882       1.33497067
C        1.01684036      -1.52177426       0.31983453
C        0.60634448      -0.94345950      -0.96687629
C        0.24304526       0.20151906      -0.05923473
C        0.78374583       1.57886273      -0.33975748
H       -2.11430586       1.06839149       0.46003807
H       -1.95053673       0.02858624      -0.92990857
H       -2.34229447      -0.70130863       0.53252069
H       -0.30747931       0.37962452       2.18462556
H        1.83856339      -2.21236693       0.45895976
H        1.48658858      -0.70702440      -1.57390498
H       -0.17616470      -1.41570154      -1.55593751
H        0.30453366       2.00970348      -1.22303703
H        0.63321689       2.29099030       0.47421286
H        1.85879375       1.54111157      -0.52313045
17
Frame=16 idx=010870 GeodesicLength=0.9659877783463292 rxn_smarts="[C:1]([C@@:2]1([H:11])[O:3][C@@:4]2([H:12])[C:5]([H:13])([H:14])[C@@:6]12[C:7]([H:15])([H:16])[H:17])([H:8])([H:9])[H:10]>>[C:1]([C:6]1([C:7]([H:15])([H:16])[H:17])[C:2]([H:11])=[O+:3][C-:4]([H:12])[C:5]1([H:13])[H:14])([H:8])([H:9])[H:10]"
C       -1.72795893       0.10117429       0.13218006
C       -0.27941951      -0.19753040       1.27267882
O        0.10659435      -1.51029881       1.32813677
C        1.00601517      -1.51114451       0.31498692
C        0.59953831      -0.94407082      -0.97645276
C        0.23684721       0.19585984      -0.06302842
C        0.79657806       1.56899486      -0.33551375
H       -2.12079545       1.06870061       0.45082354
H       -1.97913298       0.01787649      -0.92880893
H       -2.35703360      -0.69719560       0.53785105
H       -0.30196079       0.37490035       2.18906593
H        1.86693355      -2.14854635       0.47178415
H        1.48324330      -0.70652549      -1.57837599
H       -0.17651282      -1.42563766      -1.56213444
H        0.31653177       2.01364059      -1.21144710
H        0.66044192       2.27855590       0.48334311
H        1.87009045       1.52124671      -0.52508896
