13
Frame=0 idx=009304 GeodesicLength=0.0 rxn_smarts="[C:1]([O:2][C:3](=[O:4])[C:5]([C:6](=[O:7])[H:13])([H:11])[H:12])([H:8])([H:9])[H:10]>>[C:1]([O:2][C:6](=[O:7])[H:13])([H:8])([H:9])[H:10].[C:3](=[O:4])=[C:5]([H:11])[H:12]"
C       -1.65659533       0.28950972       0.62537757
O       -0.47623701      -0.44901518       0.33209865
C        0.19006846      -0.16333855      -1.29726500
O       -0.51223057       0.46464180      -1.97205278
C        1.45378438      -0.59874228      -0.94232139
C        0.86713585       0.18171285       0.84998255
O        0.90359073       1.36010110       1.03131428
H       -2.27669460       0.29938117      -0.27104678
H       -2.18182067      -0.20836526       1.43974906
H       -1.39762295       1.31320455       0.89806999
H        2.25255534      -0.29086562      -1.60732669
H        1.50779572      -1.60386922      -0.55040339
H        1.32627059      -0.59435510       1.46382395
13
Frame=1 idx=009304 GeodesicLength=0.15613956718188232 rxn_smarts="[C:1]([O:2][C:3](=[O:4])[C:5]([C:6](=[O:7])[H:13])([H:11])[H:12])([H:8])([H:9])[H:10]>>[C:1]([O:2][C:6](=[O:7])[H:13])([H:8])([H:9])[H:10].[C:3](=[O:4])=[C:5]([H:11])[H:12]"
C       -1.67072247       0.28775093       0.62267837
O       -0.48946276      -0.45723388       0.34980138
C        0.17992028      -0.17275540      -1.30203542
O       -0.51787487       0.46753015      -1.97244591
C        1.45328258      -0.59120307      -0.95669876
C        0.87829528       0.17109135       0.86617629
O        1.00314508       1.34776275       1.01505990
H       -2.29405982       0.26269082      -0.27121666
H       -2.19725717      -0.18726323       1.44957092
H       -1.40517002       1.31761439       0.86392545
H        2.24873606      -0.25000902      -1.60922119
H        1.52879874      -1.60531008      -0.59214211
H        1.28236909      -0.59066570       1.53654774
13
Frame=2 idx=009304 GeodesicLength=0.31176582911446693 rxn_smarts="[C:1]([O:2][C:3](=[O:4])[C:5]([C:6](=[O:7])[H:13])([H:11])[H:12])([H:8])([H:9])[H:10]>>[C:1]([O:2][C:6](=[O:7])[H:13])([H:8])([H:9])[H:10].[C:3](=[O:4])=[C:5]([H:11])[H:12]"
C       -1.68557396       0.28468610       0.61963171
O       -0.50191126      -0.46393404       0.36806162
C        0.17048904      -0.17982161      -1.30666901
O       -0.52341731       0.47189952      -1.97261374
C        1.45257155      -0.58380567      -0.97182408
C        0.89095049       0.16201623       0.88244107
O        1.11054699       1.32834662       0.99952597
H       -2.31080862       0.22489871      -0.27128739
H       -2.21328243      -0.16870911       1.45763694
H       -1.41542899       1.31989091       0.83085052
H        2.24388850      -0.21277120      -1.61292038
H        1.54837771      -1.60611724      -0.63574808
H        1.23359829      -0.57657924       1.61291486
13
Frame=3 idx=009304 GeodesicLength=0.466450574282152 rxn_smarts="[C:1]([O:2][C:3](=[O:4])[C:5]([C:6](=[O:7])[H:13])([H:11])[H:12])([H:8])([H:9])[H:10]>>[C:1]([O:2][C:6](=[O:7])[H:13])([H:8])([H:9])[H:10].[C:3](=[O:4])=[C:5]([H:11])[H:12]"
C       -1.70131216       0.27977626       0.61629773
O       -0.51336795      -0.46904785       0.38703327
C        0.16184304      -0.18407166      -1.31110667
O       -0.52811590       0.47955263      -1.97193247
C        1.45151647      -0.57707103      -0.98765412
C        0.90538049       0.15475869       0.89889951
O        1.22566222       1.30059909       0.98433037
H       -2.32669059       0.18586606      -0.27157176
H       -2.23013781      -0.15377877       1.46384206
H       -1.42913666       1.31973942       0.79942617
H        2.23846788      -0.18014618      -1.61848357
H        1.56543175      -1.60701372      -0.68141564
H        1.18045922      -0.54916293       1.69233512
13
Frame=4 idx=009304 GeodesicLength=0.6195984523197153 rxn_smarts="[C:1]([O:2][C:3](=[O:4])[C:5]([C:6](=[O:7])[H:13])([H:11])[H:12])([H:8])([H:9])[H:10]>>[C:1]([O:2][C:6](=[O:7])[H:13])([H:8])([H:9])[H:10].[C:3](=[O:4])=[C:5]([H:11])[H:12]"
C       -1.71807126       0.27265122       0.61273130
O       -0.52370392      -0.47244823       0.40692756
C        0.15405201      -0.18509136      -1.31517839
O       -0.53146518       0.49161076      -1.96987363
C        1.45003208      -0.57134344      -1.00408051
C        0.92177021       0.14952979       0.91572080
O        1.34821321       1.26273864       0.96968204
H       -2.34144993       0.14534002      -0.27234791
H       -2.24811092      -0.14319772       1.46813910
H       -1.44685724       1.31702004       0.77000975
H        2.23294087      -0.15262384      -1.62573938
H        1.57909778      -1.60851368      -0.72932415
H        1.12355228      -0.50567220       1.77333342
13
Frame=5 idx=009304 GeodesicLength=0.7709472825475676 rxn_smarts="[C:1]([O:2][C:3](=[O:4])[C:5]([C:6](=[O:7])[H:13])([H:11])[H:12])([H:8])([H:9])[H:10]>>[C:1]([O:2][C:6](=[O:7])[H:13])([H:8])([H:9])[H:10].[C:3](=[O:4])=[C:5]([H:11])[H:12]"
C       -1.73596672       0.26331784       0.60891987
O       -0.53297948      -0.47392219       0.42793749
C        0.14716952      -0.18255687      -1.31860271
O       -0.53387016       0.50751565      -1.96651045
C        1.44821473      -0.56641022      -1.02090444
C        0.94019152       0.14644841       0.93314168
O        1.47838917       1.21203141       0.95728107
H       -2.35509927       0.10261944      -0.27366070
H       -2.26724391      -0.13667584       1.47087121
H       -1.46882615       1.31200651       0.74212422
H        2.22763512      -0.12957748      -1.63438573
H        1.58927265      -1.61050643      -0.77958107
H        1.06311295      -0.44429022       1.85336957
13
Frame=6 idx=009304 GeodesicLength=0.9200140289135555 rxn_smarts="[C:1]([O:2][C:3](=[O:4])[C:5]([C:6](=[O:7])[H:13])([H:11])[H:12])([H:8])([H:9])[H:10]>>[C:1]([O:2][C:6](=[O:7])[H:13])([H:8])([H:9])[H:10].[C:3](=[O:4])=[C:5]([H:11])[H:12]"
C       -1.75508051       0.25149635       0.60490016
O       -0.54120530      -0.47336702       0.45037012
C        0.14120879      -0.17624979      -1.32113914
O       -0.53506767       0.52786110      -1.96139682
C        1.44598928      -0.56236378      -1.03791823
C        0.96072652       0.14575439       0.95127959
O        1.61544981       1.14535578       0.94809482
H       -2.36734387       0.05731331      -0.27567188
H       -2.28777282      -0.13453932       1.47208999
H       -1.49542625       1.30458329       0.71579331
H        2.22282905      -0.11069190      -1.64383706
H        1.59541137      -1.61315062      -0.83233140
H        1.00028160      -0.36200178       1.92976654
13
Frame=7 idx=009304 GeodesicLength=1.066482230176292 rxn_smarts="[C:1]([O:2][C:3](=[O:4])[C:5]([C:6](=[O:7])[H:13])([H:11])[H:12])([H:8])([H:9])[H:10]>>[C:1]([O:2][C:6](=[O:7])[H:13])([H:8])([H:9])[H:10].[C:3](=[O:4])=[C:5]([H:11])[H:12]"
C       -1.77537490       0.23695614       0.60073491
O       -0.54846624      -0.47080272       0.47449736
C        0.13617584      -0.16600314      -1.32254137
O       -0.53525123       0.55253350      -1.95429096
C        1.44335236      -0.55897641      -1.05501295
C        0.98345206       0.14737840       0.97017681
O        1.75850551       1.05789905       0.94402799
H       -2.37791649       0.00875890      -0.27828785
H       -2.30967144      -0.13660489       1.47213664
H       -1.52672279       1.29462772       0.69062058
H        2.21869619      -0.09478475      -1.65328932
H        1.59740353      -1.61619370      -0.88807619
H        0.93581760      -0.25478810       1.99930434
13
Frame=8 idx=009304 GeodesicLength=1.209896118268151 rxn_smarts="[C:1]([O:2][C:3](=[O:4])[C:5]([C:6](=[O:7])[H:13])([H:11])[H:12])([H:8])([H:9])[H:10]>>[C:1]([O:2][C:6](=[O:7])[H:13])([H:8])([H:9])[H:10].[C:3](=[O:4])=[C:5]([H:11])[H:12]"
C       -1.79690040       0.21894975       0.59656426
O       -0.55475955      -0.46628086       0.50087512
C        0.13201330      -0.15147179      -1.32247615
O       -0.53391575       0.58292637      -1.94419429
C        1.44003332      -0.55637044      -1.07200980
C        1.00828300       0.15184231       0.98975529
O        1.90605500       0.94257040       0.94666722
H       -2.38618702      -0.04338235      -0.28179676
H       -2.33349004      -0.14434524       1.47062794
H       -1.56319824       1.28142382       0.66727761
H        2.21552860      -0.08107092      -1.66125410
H        1.59445497      -1.61964385      -0.94729637
H        0.87208279      -0.11514720       2.05726003
13
Frame=9 idx=009304 GeodesicLength=1.3503626870348922 rxn_smarts="[C:1]([O:2][C:3](=[O:4])[C:5]([C:6](=[O:7])[H:13])([H:11])[H:12])([H:8])([H:9])[H:10]>>[C:1]([O:2][C:6](=[O:7])[H:13])([H:8])([H:9])[H:10].[C:3](=[O:4])=[C:5]([H:11])[H:12]"
C       -1.81954348       0.19637143       0.59280879
O       -0.55996516      -0.45994835       0.53003768
C        0.12874075      -0.13179057      -1.32054998
O       -0.53191321       0.61899430      -1.93062652
C        1.43593065      -0.55375254      -1.08912669
C        1.03521329       0.15991002       1.00941709
O        2.05744024       0.78319402       0.96216926
H       -2.39155927      -0.10044560      -0.28584889
H       -2.35896888      -0.15968186       1.46783779
H       -1.60525309       1.26389246       0.64646138
H        2.21370714      -0.06666460      -1.66552256
H        1.58620829      -1.62242354      -1.01138585
H        0.80996273       0.07234483       2.09432847
13
Frame=10 idx=009304 GeodesicLength=1.482768006269454 rxn_smarts="[C:1]([O:2][C:3](=[O:4])[C:5]([C:6](=[O:7])[H:13])([H:11])[H:12])([H:8])([H:9])[H:10]>>[C:1]([O:2][C:6](=[O:7])[H:13])([H:8])([H:9])[H:10].[C:3](=[O:4])=[C:5]([H:11])[H:12]"
C       -1.84316941       0.17047130       0.59028590
O       -0.56508614      -0.45146399       0.56383164
C        0.12540729      -0.10989290      -1.31635639
O       -0.53186393       0.65479943      -1.91511597
C        1.43164956      -0.54847295      -1.10522384
C        1.06270815       0.17466054       1.02714276
O        2.19587958       0.56509652       1.00070657
H       -2.39413834      -0.16260095      -0.28867682
H       -2.38639951      -0.17884604       1.46538279
H       -1.65270109       1.24323772       0.62529469
H        2.21434355      -0.04386443      -1.65919816
H        1.57634813      -1.62086550      -1.08031575
H        0.76702215       0.30774123       2.09224259
13
Frame=11 idx=009304 GeodesicLength=1.604742341645781 rxn_smarts="[C:1]([O:2][C:3](=[O:4])[C:5]([C:6](=[O:7])[H:13])([H:11])[H:12])([H:8])([H:9])[H:10]>>[C:1]([O:2][C:6](=[O:7])[H:13])([H:8])([H:9])[H:10].[C:3](=[O:4])=[C:5]([H:11])[H:12]"
C       -1.86675683       0.14561355       0.59071050
O       -0.57204508      -0.44101870       0.60290369
C        0.12085621      -0.09362782      -1.31126711
O       -0.53565497       0.68126807      -1.90018352
C        1.42939005      -0.53827965      -1.11924732
C        1.09089934       0.19020720       1.04071677
O        2.28435466       0.30134478       1.06580427
H       -2.39513944      -0.22610686      -0.28655805
H       -2.41482056      -0.19334074       1.46658210
H       -1.70145633       1.22300038       0.60106896
H        2.21931264      -0.00465704      -1.63379387
H        1.57430819      -1.61085828      -1.15427215
H        0.76675214       0.56645510       2.03753574
13
Frame=12 idx=009304 GeodesicLength=1.7293442269262014 rxn_smarts="[C:1]([O:2][C:3](=[O:4])[C:5]([C:6](=[O:7])[H:13])([H:11])[H:12])([H:8])([H:9])[H:10]>>[C:1]([O:2][C:6](=[O:7])[H:13])([H:8])([H:9])[H:10].[C:3](=[O:4])=[C:5]([H:11])[H:12]"
C       -1.89089877       0.12674045       0.59371469
O       -0.58265171      -0.42532169       0.64695109
C        0.11453061      -0.08908156      -1.30632057
O       -0.54277875       0.69282402      -1.88796005
C        1.43056798      -0.52354755      -1.12949437
C        1.11961336       0.20101461       1.05169023
O        2.30334726       0.03719449       1.14193915
H       -2.39590950      -0.28773676      -0.27816758
H       -2.44520197      -0.19673754       1.47118622
H       -1.75108037       1.20735637       0.57005259
H        2.22632497       0.05026189      -1.58785442
H        1.58844235      -1.59073947      -1.22891000
H        0.82569455       0.79777273       1.94317302
13
Frame=13 idx=009304 GeodesicLength=1.8625982347964776 rxn_smarts="[C:1]([O:2][C:3](=[O:4])[C:5]([C:6](=[O:7])[H:13])([H:11])[H:12])([H:8])([H:9])[H:10]>>[C:1]([O:2][C:6](=[O:7])[H:13])([H:8])([H:9])[H:10].[C:3](=[O:4])=[C:5]([H:11])[H:12]"
C       -1.91570108       0.11531885       0.59835485
O       -0.59773465      -0.40513590       0.69321090
C        0.10706216      -0.09767717      -1.30212892
O       -0.55334801       0.68682788      -1.87993433
C        1.43550716      -0.50471222      -1.13639371
C        1.14863413       0.20280563       1.06244821
O        2.26733239      -0.19567181       1.21590246
H       -2.39841521      -0.34485396      -0.26317140
H       -2.47659317      -0.18567975       1.47931037
H       -1.79872583       1.19671493       0.53254057
H        2.23101263       0.11650844      -1.52738703
H        1.62220493      -1.55945843      -1.30139014
H        0.92876453       0.97501350       1.82863817
13
Frame=14 idx=009304 GeodesicLength=2.0017529834521066 rxn_smarts="[C:1]([O:2][C:3](=[O:4])[C:5]([C:6](=[O:7])[H:13])([H:11])[H:12])([H:8])([H:9])[H:10]>>[C:1]([O:2][C:6](=[O:7])[H:13])([H:8])([H:9])[H:10].[C:3](=[O:4])=[C:5]([H:11])[H:12]"
C       -1.94269205       0.10895543       0.60234814
O       -0.61671734      -0.37734299       0.74252801
C        0.09955232      -0.11388058      -1.29649248
O       -0.56449356       0.67022731      -1.87413406
C        1.44253788      -0.48337511      -1.13977082
C        1.17781379       0.19722919       1.07831750
O        2.20278004      -0.38815195       1.27509937
H       -2.40096264      -0.40108686      -0.24436456
H       -2.51238810      -0.16493727       1.48617558
H       -1.84867249       1.18825993       0.48741120
H        2.23034295       0.18498679      -1.46152870
H        1.66776895      -1.51907244      -1.36757312
H        1.06513024       1.09818856       1.71198393
13
Frame=15 idx=009304 GeodesicLength=2.143839286787322 rxn_smarts="[C:1]([O:2][C:3](=[O:4])[C:5]([C:6](=[O:7])[H:13])([H:11])[H:12])([H:8])([H:9])[H:10]>>[C:1]([O:2][C:6](=[O:7])[H:13])([H:8])([H:9])[H:10].[C:3](=[O:4])=[C:5]([H:11])[H:12]"
C       -1.97115773       0.10498948       0.60582701
O       -0.63775587      -0.34081293       0.79385087
C        0.09291447      -0.13350758      -1.28979656
O       -0.57518627       0.64879024      -1.86899235
C        1.45059708      -0.46016911      -1.14053319
C        1.20804856       0.19021922       1.09797688
O        2.12092460      -0.54923117       1.32305342
H       -2.40188129      -0.45696470      -0.22239550
H       -2.55079074      -0.14074880       1.49119089
H       -1.90175625       1.17904656       0.43803325
H        2.22513657       0.25126606      -1.39395618
H        1.71906390      -1.47128857      -1.42637087
H        1.22184297       1.17841130       1.59211232
13
Frame=16 idx=009304 GeodesicLength=2.2879473907611714 rxn_smarts="[C:1]([O:2][C:3](=[O:4])[C:5]([C:6](=[O:7])[H:13])([H:11])[H:12])([H:8])([H:9])[H:10]>>[C:1]([O:2][C:6](=[O:7])[H:13])([H:8])([H:9])[H:10].[C:3](=[O:4])=[C:5]([H:11])[H:12]"
C       -2.00059400       0.10191771       0.60859404
O       -0.65948419      -0.29074918       0.84697553
C        0.08767770      -0.15313997      -1.28170903
O       -0.58516000       0.62534965      -1.86409258
C        1.45887623      -0.43498119      -1.13956084
C        1.24067578       0.18575636       1.12063670
O        2.02507151      -0.68453887       1.36008668
H       -2.39812232      -0.51550333      -0.19636315
H       -2.59072389      -0.11636365       1.49392233
H       -1.96076986       1.16666299       0.38331659
H        2.21686698       0.31342735      -1.32667095
H        1.77100034      -1.41748888      -1.47695677
H        1.39468574       1.21965101       1.47182145
