8
Frame=0 idx=001670 GeodesicLength=0.0 rxn_smarts="[O:1]([C:2]([C:3](=[O:4])[H:8])([H:6])[H:7])[H:5]>>[H:5][H:6].[O:1]=[C:2]([C:3](=[O:4])[H:8])[H:7]"
O       -1.49543539       0.57569200      -0.40362177
C       -0.44212740      -0.17343952      -0.28002282
C        0.97423365       0.41930411      -0.13530175
O        1.21112271       1.57251581      -0.30831442
H       -1.17681294      -0.16397645       0.76664140
H       -0.43693095      -0.74858973       1.04146816
H       -0.39100383      -1.15304475      -0.79880678
H        1.75695416      -0.32846144       0.11795798
8
Frame=1 idx=001670 GeodesicLength=0.08900728383412153 rxn_smarts="[O:1]([C:2]([C:3](=[O:4])[H:8])([H:6])[H:7])[H:5]>>[H:5][H:6].[O:1]=[C:2]([C:3](=[O:4])[H:8])[H:7]"
O       -1.48761008       0.56844500      -0.41503692
C       -0.43734109      -0.18395783      -0.28770328
C        0.97625624       0.41397970      -0.15039272
O        1.19966220       1.57610515      -0.27936729
H       -1.18427161      -0.13961947       0.78549207
H       -0.44214264      -0.74329490       1.05359233
H       -0.38835742      -1.16258360      -0.80727224
H        1.76380440      -0.32907405       0.10068805
8
Frame=2 idx=001670 GeodesicLength=0.17802094756869313 rxn_smarts="[O:1]([C:2]([C:3](=[O:4])[H:8])([H:6])[H:7])[H:5]>>[H:5][H:6].[O:1]=[C:2]([C:3](=[O:4])[H:8])[H:7]"
O       -1.47996489       0.56063128      -0.42533935
C       -0.43232708      -0.19465726      -0.29543706
C        0.97807712       0.40927556      -0.16451108
O        1.18830440       1.57826266      -0.25157779
H       -1.19171487      -0.11443681       0.80462591
H       -0.44792501      -0.73818672       1.06547414
H       -0.38491537      -1.17163694      -0.81698019
H        1.77046571      -0.32925176       0.08374542
8
Frame=3 idx=001670 GeodesicLength=0.2670403150881823 rxn_smarts="[O:1]([C:2]([C:3](=[O:4])[H:8])([H:6])[H:7])[H:5]>>[H:5][H:6].[O:1]=[C:2]([C:3](=[O:4])[H:8])[H:7]"
O       -1.47248190       0.55224706      -0.43446821
C       -0.42706653      -0.20557393      -0.30324290
C        0.97972251       0.40509109      -0.17762711
O        1.17704072       1.57914967      -0.22503859
H       -1.19917125      -0.08839814       0.82408815
H       -0.45436559      -0.73328263       1.07711837
H       -0.38069223      -1.18021207      -0.82799180
H        1.77701426      -0.32902104       0.06716209
8
Frame=4 idx=001670 GeodesicLength=0.3560589282285826 rxn_smarts="[O:1]([C:2]([C:3](=[O:4])[H:8])([H:6])[H:7])[H:5]>>[H:5][H:6].[O:1]=[C:2]([C:3](=[O:4])[H:8])[H:7]"
O       -1.46514971       0.54327430      -0.44238404
C       -0.42154153      -0.21675164      -0.31115281
C        0.98122027       0.40132220      -0.18977778
O        1.16586905       1.57892236      -0.19974521
H       -1.20667233      -0.06149110       0.84392768
H       -0.46152972      -0.72853183       1.08853543
H       -0.37571308      -1.18833418      -0.84034565
H        1.78351706      -0.32841010       0.05094238
8
Frame=5 idx=001670 GeodesicLength=0.4450842510809102 rxn_smarts="[O:1]([C:2]([C:3](=[O:4])[H:8])([H:6])[H:7])[H:5]>>[H:5][H:6].[O:1]=[C:2]([C:3](=[O:4])[H:8])[H:7]"
O       -1.45795674       0.53368058      -0.44902170
C       -0.41573287      -0.22823663      -0.31921013
C        0.98260101       0.39786827      -0.20103771
O        1.15476100       1.57770909      -0.17568612
H       -1.21422405      -0.03365623       0.86418875
H       -0.46945482      -0.72390700       1.09972342
H       -0.37001436      -1.19602046      -0.85410412
H        1.79002083      -0.32743761       0.03514761
8
Frame=6 idx=001670 GeodesicLength=0.5341241735389518 rxn_smarts="[O:1]([C:2]([C:3](=[O:4])[H:8])([H:6])[H:7])[H:5]>>[H:5][H:6].[O:1]=[C:2]([C:3](=[O:4])[H:8])[H:7]"
O       -1.45089750       0.52341992      -0.45433377
C       -0.40961944      -0.24007923      -0.32746067
C        0.98389339       0.39463981      -0.21149114
O        1.14369967       1.57562372      -0.15279805
H       -1.22185107      -0.00485313       0.88492007
H       -0.47817041      -0.71932938       1.11068319
H       -0.36362590      -1.20329347      -0.86931355
H        1.79657126      -0.32612823       0.01979392
8
Frame=7 idx=001670 GeodesicLength=0.6230790807268352 rxn_smarts="[O:1]([C:2]([C:3](=[O:4])[H:8])([H:6])[H:7])[H:5]>>[H:5][H:6].[O:1]=[C:2]([C:3](=[O:4])[H:8])[H:7]"
O       -1.44395055       0.51243550      -0.45825460
C       -0.40316981      -0.25232331      -0.33594418
C        0.98511785       0.39155654      -0.22120408
O        1.13266604       1.57274643      -0.13102545
H       -1.22957043       0.02491921       0.90615417
H       -0.48773128      -0.71467867       1.12141812
H       -0.35656219      -1.21015186      -0.88601763
H        1.80320036      -0.32450384       0.00487365
8
Frame=8 idx=001670 GeodesicLength=0.71208902695136 rxn_smarts="[O:1]([C:2]([C:3](=[O:4])[H:8])([H:6])[H:7])[H:5]>>[H:5][H:6].[O:1]=[C:2]([C:3](=[O:4])[H:8])[H:7]"
O       -1.43710148       0.50066989      -0.46070278
C       -0.39636359      -0.26501240      -0.34472420
C        0.98629866       0.38854472      -0.23026969
O        1.12163256       1.56914965      -0.11037071
H       -1.23742569       0.05573893       0.92795804
H       -0.49808371      -0.70993562       1.13190044
H       -0.34886686      -1.21657515      -0.90430600
H        1.80991011      -0.32258001      -0.00948511
8
Frame=9 idx=001670 GeodesicLength=0.8010795549778212 rxn_smarts="[O:1]([C:2]([C:3](=[O:4])[H:8])([H:6])[H:7])[H:5]>>[H:5][H:6].[O:1]=[C:2]([C:3](=[O:4])[H:8])[H:7]"
O       -1.43033515       0.48804716      -0.46160684
C       -0.38916620      -0.27819722      -0.35383841
C        0.98746042       0.38554115      -0.23874040
O        1.11058784       1.56489468      -0.09076216
H       -1.24547972       0.08761087       0.95035724
H       -0.50925771      -0.70495351       1.14214379
H       -0.34055544      -1.22255705      -0.92423656
H        1.81674596      -0.32038609      -0.02331667
8
Frame=10 idx=001670 GeodesicLength=0.8900525344093722 rxn_smarts="[O:1]([C:2]([C:3](=[O:4])[H:8])([H:6])[H:7])[H:5]>>[H:5][H:6].[O:1]=[C:2]([C:3](=[O:4])[H:8])[H:7]"
O       -1.42361785       0.47447445      -0.46089385
C       -0.38154419      -0.29193054      -0.36332712
C        0.98861935       0.38248284      -0.24667540
O        1.09950678       1.56001543      -0.07213771
H       -1.25381353       0.12057046       0.97338020
H       -0.52123100      -0.69960543       1.15216254
H       -0.33164643      -1.22805818      -0.94588381
H        1.82372688      -0.31794904      -0.03662485
8
Frame=11 idx=001670 GeodesicLength=0.9790086446770248 rxn_smarts="[O:1]([C:2]([C:3](=[O:4])[H:8])([H:6])[H:7])[H:5]>>[H:5][H:6].[O:1]=[C:2]([C:3](=[O:4])[H:8])[H:7]"
O       -1.41690749       0.45985020      -0.45849453
C       -0.37346290      -0.30626905      -0.37322202
C        0.98979169       0.37931095      -0.25412730
O        1.08836787       1.55453147      -0.05441621
H       -1.26254690       0.15464396       0.99703857
H       -0.53395917      -0.69373838       1.16198676
H       -0.32216168      -1.23302996      -0.96932051
H        1.83087857      -0.31529918      -0.04944477
8
Frame=12 idx=001670 GeodesicLength=1.0679542942893498 rxn_smarts="[O:1]([C:2]([C:3](=[O:4])[H:8])([H:6])[H:7])[H:5]>>[H:5][H:6].[O:1]=[C:2]([C:3](=[O:4])[H:8])[H:7]"
O       -1.41014725       0.44406536      -0.45434787
C       -0.36488768      -0.32127149      -0.38354391
C        0.99099209       0.37596915      -0.26114360
O        1.07715477       1.54844478      -0.03750112
H       -1.27184412       0.18984604       1.02132406
H       -0.54736493      -0.68717924       1.17166583
H       -0.31213073      -1.23740661      -0.99461456
H        1.83822785      -0.31246799      -0.06183883
8
Frame=13 idx=001670 GeodesicLength=1.1569387678657568 rxn_smarts="[O:1]([C:2]([C:3](=[O:4])[H:8])([H:6])[H:7])[H:5]>>[H:5][H:6].[O:1]=[C:2]([C:3](=[O:4])[H:8])[H:7]"
O       -1.40329969       0.42700770      -0.44838962
C       -0.35579552      -0.33700902      -0.39430113
C        0.99224985       0.37240448      -0.26777162
O        1.06586477       1.54176373      -0.02128321
H       -1.28192843       0.22620967       1.04620339
H       -0.56132928      -0.67976113       1.18127220
H       -0.30159552      -1.24111909      -1.02184860
H        1.84583382      -0.30949634      -0.07388142
8
Frame=14 idx=001670 GeodesicLength=1.2458008009583494 rxn_smarts="[O:1]([C:2]([C:3](=[O:4])[H:8])([H:6])[H:7])[H:5]>>[H:5][H:6].[O:1]=[C:2]([C:3](=[O:4])[H:8])[H:7]"
O       -1.39621155       0.40857633      -0.44060878
C       -0.34612913      -0.35351514      -0.40546462
C        0.99354915       0.36856649      -0.27405138
O        1.05448410       1.53440192      -0.00558917
H       -1.29304152       0.26363324       1.07153501
H       -0.57571568      -0.67122767       1.19093600
H       -0.29061995      -1.24403855      -1.05098375
H        1.85368460      -0.30639662      -0.08577331
8
Frame=15 idx=001670 GeodesicLength=1.3346715876927557 rxn_smarts="[O:1]([C:2]([C:3](=[O:4])[H:8])([H:6])[H:7])[H:5]>>[H:5][H:6].[O:1]=[C:2]([C:3](=[O:4])[H:8])[H:7]"
O       -1.38879040       0.38864283      -0.43098730
C       -0.33587664      -0.37085649      -0.41699487
C        0.99487949       0.36437893      -0.28001742
O        1.04296537       1.52628364       0.00967910
H       -1.30546759       0.30219103       1.09721869
H       -0.59023896      -0.66144900       1.20077559
H       -0.27924292      -1.24596571      -1.08209407
H        1.86177165      -0.30322524      -0.09757972
8
Frame=16 idx=001670 GeodesicLength=1.4235598690510276 rxn_smarts="[O:1]([C:2]([C:3](=[O:4])[H:8])([H:6])[H:7])[H:5]>>[H:5][H:6].[O:1]=[C:2]([C:3](=[O:4])[H:8])[H:7]"
O       -1.38097706       0.36714207      -0.41952657
C       -0.32502524      -0.38909220      -0.42883497
C        0.99630712       0.35982301      -0.28571640
O        1.03140097       1.51739723       0.02477599
H       -1.31964776       0.34181010       1.12303548
H       -0.60470044      -0.65022876       1.21097885
H       -0.26759701      -1.24684777      -1.11510868
H        1.87023942      -0.30000367      -0.10960369
