16
Frame=0 idx=007609 GeodesicLength=0.0 rxn_smarts="[C:1]([C@@:2]1([H:11])[N:3]([H:12])[C@:4]1([C:5]([C:6](=[O:7])[H:16])([H:14])[H:15])[H:13])([H:8])([H:9])[H:10]>>[C:1](=[C:2]1[N:3]([H:12])[C@:4]1([C:5]([C:6](=[O:7])[H:16])([H:14])[H:15])[H:13])([H:8])[H:9].[H:10][H:11]"
C       -1.36657733       0.03027168       1.43773797
C       -1.10387682       0.18925363       0.07018974
N       -0.87463201       1.30372226      -0.78108778
C        0.05248040       0.15365022      -0.82709456
C        1.42997508       0.38956750      -0.27897092
C        2.12976951      -0.87671907       0.12927433
O        1.65252090      -1.97468254       0.04309487
H       -0.78469315      -0.68320302       2.00217304
H       -2.06531787       0.69051523       1.92982252
H       -2.06606158      -0.63690904       0.25740762
H       -2.09570846      -0.61013990      -0.83597431
H       -1.48981997       1.32085446      -1.58462596
H       -0.01747914      -0.51506739      -1.67606620
H        1.38813430       1.05014450       0.59179457
H        2.05847162       0.90627691      -1.01320646
H        3.15281459      -0.73753545       0.53553148
16
Frame=1 idx=007609 GeodesicLength=0.08864760543802698 rxn_smarts="[C:1]([C@@:2]1([H:11])[N:3]([H:12])[C@:4]1([C:5]([C:6](=[O:7])[H:16])([H:14])[H:15])[H:13])([H:8])([H:9])[H:10]>>[C:1](=[C:2]1[N:3]([H:12])[C@:4]1([C:5]([C:6](=[O:7])[H:16])([H:14])[H:15])[H:13])([H:8])[H:9].[H:10][H:11]"
C       -1.37428500       0.02792682       1.43233762
C       -1.10485193       0.18744106       0.06572380
N       -0.87075441       1.30777644      -0.77680105
C        0.05494655       0.15699840      -0.82687918
C        1.43276216       0.38918237      -0.27784942
C        2.13064993      -0.87877315       0.12844614
O        1.65280603      -1.97625419       0.03923685
H       -0.76905847      -0.65862796       2.00609963
H       -2.07206298       0.69209948       1.92191120
H       -2.08419766      -0.66431334       0.26493742
H       -2.10601442      -0.62034198      -0.83291873
H       -1.48506645       1.33095480      -1.58091091
H       -0.01373518      -0.50663630      -1.68020661
H        1.39176432       1.04846483       0.59397904
H        2.06271341       0.90580931      -1.01096644
H        3.15438411      -0.74170660       0.53386063
16
Frame=2 idx=007609 GeodesicLength=0.17702219003424852 rxn_smarts="[C:1]([C@@:2]1([H:11])[N:3]([H:12])[C@:4]1([C:5]([C:6](=[O:7])[H:16])([H:14])[H:15])[H:13])([H:8])([H:9])[H:10]>>[C:1](=[C:2]1[N:3]([H:12])[C@:4]1([C:5]([C:6](=[O:7])[H:16])([H:14])[H:15])[H:13])([H:8])[H:9].[H:10][H:11]"
C       -1.38206251       0.02527208       1.42674121
C       -1.10558124       0.18601980       0.06122514
N       -0.86664386       1.31207706      -0.77254087
C        0.05756018       0.16053342      -0.82671955
C        1.43572464       0.38884054      -0.27682403
C        2.13159483      -0.88084412       0.12750231
O        1.65301644      -1.97778232       0.03534901
H       -0.75446061      -0.63346203       2.00962419
H       -2.07901456       0.69331731       1.91368986
H       -2.10254023      -0.69254883       0.27314342
H       -2.11630438      -0.63078978      -0.82905124
H       -1.48018286       1.34125827      -1.57710177
H       -0.00997612      -0.49805452      -1.68431066
H        1.39568368       1.04684774       0.59605418
H        2.06716004       0.90530303      -1.00885191
H        3.15602655      -0.74598767       0.53207070
16
Frame=3 idx=007609 GeodesicLength=0.26527321434998796 rxn_smarts="[C:1]([C@@:2]1([H:11])[N:3]([H:12])[C@:4]1([C:5]([C:6](=[O:7])[H:16])([H:14])[H:15])[H:13])([H:8])([H:9])[H:10]>>[C:1](=[C:2]1[N:3]([H:12])[C@:4]1([C:5]([C:6](=[O:7])[H:16])([H:14])[H:15])[H:13])([H:8])[H:9].[H:10][H:11]"
C       -1.38991152       0.02230179       1.42091998
C       -1.10603969       0.18503830       0.05668837
N       -0.86227477       1.31665588      -0.76832987
C        0.06033759       0.16427860      -0.82663157
C        1.43887900       0.38855007      -0.27590781
C        2.13260683      -0.88293043       0.12643019
O        1.65314002      -1.97925966       0.03142920
H       -0.74096121      -0.60775492       2.01272537
H       -2.08618866       0.69414139       1.90513822
H       -2.12117121      -0.72164552       0.28210646
H       -2.12654822      -0.64152124      -0.82427599
H       -1.47515200       1.35178531      -1.57321710
H       -0.00619804      -0.48931226      -1.68838523
H        1.39991287       1.04529903       0.59800851
H        2.07183497       0.90475904      -1.00687457
H        3.15773405      -0.75038539       0.53017584
16
Frame=4 idx=007609 GeodesicLength=0.35351012196123166 rxn_smarts="[C:1]([C@@:2]1([H:11])[N:3]([H:12])[C@:4]1([C:5]([C:6](=[O:7])[H:16])([H:14])[H:15])[H:13])([H:8])([H:9])[H:10]>>[C:1](=[C:2]1[N:3]([H:12])[C@:4]1([C:5]([C:6](=[O:7])[H:16])([H:14])[H:15])[H:13])([H:8])[H:9].[H:10][H:11]"
C       -1.39783408       0.01900620       1.41484387
C       -1.10620528       0.18454305       0.05210460
N       -0.85762296       1.32154411      -0.76419201
C        0.06329546       0.16825812      -0.82663196
C        1.44224013       0.38831975      -0.27511051
C        2.13368806      -0.88503046       0.12521579
O        1.65316736      -1.98067886       0.02746843
H       -0.72862518      -0.58156822       2.01538229
H       -2.09359025       0.69456380       1.89623078
H       -2.14018510      -0.75162537       0.29190978
H       -2.13670467      -0.65258889      -0.81848751
H       -1.46995595       1.36255674      -1.56927860
H       -0.00239431      -0.48039744      -1.69243984
H        1.40446667       1.04382038       0.59983747
H        2.07676068       0.90418413      -1.00503877
H        3.15949942      -0.75490704       0.52818619
16
Frame=5 idx=007609 GeodesicLength=0.4418396172938772 rxn_smarts="[C:1]([C@@:2]1([H:11])[N:3]([H:12])[C@:4]1([C:5]([C:6](=[O:7])[H:16])([H:14])[H:15])[H:13])([H:8])([H:9])[H:10]>>[C:1](=[C:2]1[N:3]([H:12])[C@:4]1([C:5]([C:6](=[O:7])[H:16])([H:14])[H:15])[H:13])([H:8])[H:9].[H:10][H:11]"
C       -1.40583195       0.01538215       1.40847656
C       -1.10605217       0.18458284       0.04746603
N       -0.85266183       1.32677272      -0.76015424
C        0.06645285       0.17249574      -0.82673655
C        1.44582521       0.38815994      -0.27444232
C        2.13484415      -0.88713957       0.12384687
O        1.65309161      -1.98203002       0.02346380
H       -0.71752639      -0.55498765       2.01756304
H       -2.10122066       0.69456759       1.88694661
H       -2.15971006      -0.78248805       0.30265213
H       -2.14672602      -0.66405125      -0.81157997
H       -1.46457462       1.37358993      -1.56531089
H        0.00144484      -0.47130055      -1.69648209
H        1.40936190       1.04241602       0.60153511
H        2.08196092       0.90358590      -1.00335072
H        3.16132223      -0.75955575       0.52610662
16
Frame=6 idx=007609 GeodesicLength=0.5303130281387801 rxn_smarts="[C:1]([C@@:2]1([H:11])[N:3]([H:12])[C@:4]1([C:5]([C:6](=[O:7])[H:16])([H:14])[H:15])[H:13])([H:8])([H:9])[H:10]>>[C:1](=[C:2]1[N:3]([H:12])[C@:4]1([C:5]([C:6](=[O:7])[H:16])([H:14])[H:15])[H:13])([H:8])[H:9].[H:10][H:11]"
C       -1.41390886       0.01141967       1.40177556
C       -1.10556242       0.18520140       0.04275492
N       -0.84736587       1.33237465      -0.75624462
C        0.06982897       0.17701863      -0.82696523
C        1.44964814       0.38808175      -0.27390790
C        2.13607822      -0.88925481       0.12230797
O        1.65290554      -1.98330462       0.01939618
H       -0.70773798      -0.52809928       2.01923914
H       -2.10906853       0.69415878       1.87725501
H       -2.17988496      -0.81422238       0.31443889
H       -2.15654496      -0.67600334      -0.80342264
H       -1.45898513       1.38490910      -1.56134333
H        0.00533407      -0.46200311      -1.70052840
H        1.41460514       1.04108189       0.60310795
H        2.08745912       0.90298084      -1.00180222
H        3.16319952      -0.76433919       0.52393874
16
Frame=7 idx=007609 GeodesicLength=0.6189679700449934 rxn_smarts="[C:1]([C@@:2]1([H:11])[N:3]([H:12])[C@:4]1([C:5]([C:6](=[O:7])[H:16])([H:14])[H:15])[H:13])([H:8])([H:9])[H:10]>>[C:1](=[C:2]1[N:3]([H:12])[C@:4]1([C:5]([C:6](=[O:7])[H:16])([H:14])[H:15])[H:13])([H:8])[H:9].[H:10][H:11]"
C       -1.42207010       0.00710844       1.39469424
C       -1.10471513       0.18644174       0.03795190
N       -0.84171078       1.33838059      -0.75249475
C        0.07344413       0.18185301      -0.82733782
C        1.45372304       0.38809903      -0.27351266
C        2.13739417      -0.89136771       0.12058736
O        1.65260385      -1.98448996       0.01525778
H       -0.69932999      -0.50103538       2.02036024
H       -2.11710536       0.69334530       1.86713452
H       -2.20089612      -0.84677703       0.32738923
H       -2.16607304      -0.68854987      -0.79388553
H       -1.45316479       1.39653365      -1.55740883
H        0.00929068      -0.45249017      -1.70459331
H        1.42020182       1.03981879       0.60455905
H        2.09327848       0.90238649      -1.00038762
H        3.16512914      -0.76925693       0.52168620
16
Frame=8 idx=007609 GeodesicLength=0.7078240278858785 rxn_smarts="[C:1]([C@@:2]1([H:11])[N:3]([H:12])[C@:4]1([C:5]([C:6](=[O:7])[H:16])([H:14])[H:15])[H:13])([H:8])([H:9])[H:10]>>[C:1](=[C:2]1[N:3]([H:12])[C@:4]1([C:5]([C:6](=[O:7])[H:16])([H:14])[H:15])[H:13])([H:8])[H:9].[H:10][H:11]"
C       -1.43031665       0.00244276       1.38717493
C       -1.10349847       0.18834614       0.03302899
N       -0.83567310       1.34482227      -0.74894039
C        0.07731809       0.18702693      -0.82787695
C        1.45806198       0.38822654      -0.27325803
C        2.13879539      -0.89347155       0.11867197
O        1.65218258      -1.98557499       0.01102770
H       -0.69237516      -0.47393634       2.02088659
H       -2.12529919       0.69214061       1.85655508
H       -2.22295371      -0.88009390       0.34163787
H       -2.17519404      -0.70181474      -0.78281797
H       -1.44708714       1.40848815      -1.55354800
H        0.01333626      -0.44274070      -1.70869792
H        1.42615003       1.03862269       0.60590118
H        2.09944135       0.90182794      -0.99909162
H        3.16711177      -0.77431181       0.51934659
16
Frame=9 idx=007609 GeodesicLength=0.7967520728355492 rxn_smarts="[C:1]([C@@:2]1([H:11])[N:3]([H:12])[C@:4]1([C:5]([C:6](=[O:7])[H:16])([H:14])[H:15])[H:13])([H:8])([H:9])[H:10]>>[C:1](=[C:2]1[N:3]([H:12])[C@:4]1([C:5]([C:6](=[O:7])[H:16])([H:14])[H:15])[H:13])([H:8])[H:9].[H:10][H:11]"
C       -1.43870674      -0.00269732       1.37908246
C       -1.10190367       0.19090728       0.02794226
N       -0.82924857       1.35170711      -0.74562074
C        0.08147396       0.19256261      -0.82861034
C        1.46266036       0.38849596      -0.27312525
C        2.14028520      -0.89552336       0.11657936
O        1.65165392      -1.98652127       0.00670933
H       -0.68691001      -0.44713320       2.02051504
H       -2.13332573       0.69064538       1.84559162
H       -2.24664986      -0.91372461       0.35730667
H       -2.18360932      -0.71615903      -0.76994208
H       -1.44073473       1.42076825      -1.54981510
H        0.01751912      -0.43273558      -1.71287141
H        1.43240261       1.03750712       0.60716055
H        2.10595832       0.90135376      -0.99786532
H        3.16913513      -0.77945310       0.51696295
16
Frame=10 idx=007609 GeodesicLength=0.8857243089417214 rxn_smarts="[C:1]([C@@:2]1([H:11])[N:3]([H:12])[C@:4]1([C:5]([C:6](=[O:7])[H:16])([H:14])[H:15])[H:13])([H:8])([H:9])[H:10]>>[C:1](=[C:2]1[N:3]([H:12])[C@:4]1([C:5]([C:6](=[O:7])[H:16])([H:14])[H:15])[H:13])([H:8])[H:9].[H:10][H:11]"
C       -1.44717983      -0.00822124       1.37042054
C       -1.09992535       0.19417214       0.02266178
N       -0.82241322       1.35906662      -0.74256962
C        0.08592849       0.19848427      -0.82955841
C        1.46753583       0.38891357      -0.27312445
C        2.14187184      -0.89753331       0.11427193
O        1.65102492      -1.98733317       0.00224722
H       -0.68301486      -0.42071818       2.01939129
H       -2.14132101       0.68882846       1.83416124
H       -2.27202675      -0.94771664       0.37453691
H       -2.19128129      -0.73162796      -0.75521449
H       -1.43408046       1.43340337      -1.54624696
H        0.02185580      -0.42245172      -1.71713740
H        1.43896699       1.03644810       0.60835217
H        2.11285251       0.90098991      -0.99670204
H        3.17120638      -0.78470423       0.51451029
16
Frame=11 idx=007609 GeodesicLength=0.9746617140961082 rxn_smarts="[C:1]([C@@:2]1([H:11])[N:3]([H:12])[C@:4]1([C:5]([C:6](=[O:7])[H:16])([H:14])[H:15])[H:13])([H:8])([H:9])[H:10]>>[C:1](=[C:2]1[N:3]([H:12])[C@:4]1([C:5]([C:6](=[O:7])[H:16])([H:14])[H:15])[H:13])([H:8])[H:9].[H:10][H:11]"
C       -1.45572566      -0.01413612       1.36112231
C       -1.09756103       0.19814314       0.01714859
N       -0.81516198       1.36690793      -0.73982027
C        0.09070023       0.20480946      -0.83074254
C        1.47269040       0.38950112      -0.27324676
C        2.14356411      -0.89947778       0.11174229
O        1.65031800      -1.98798904      -0.00238950
H       -0.68070918      -0.39495456       2.01742865
H       -2.14916175       0.68673703       1.82227447
H       -2.29948534      -0.98177814       0.39345276
H       -2.19801614      -0.74847232      -0.73849875
H       -1.42710651       1.44639454      -1.54288949
H        0.02638601      -0.41186893      -1.72152348
H        1.44581093       1.03543984       0.60950281
H        2.12013484       0.90078210      -0.99556566
H        3.17332307      -0.79003827       0.51200455
16
Frame=12 idx=007609 GeodesicLength=1.0634750810556135 rxn_smarts="[C:1]([C@@:2]1([H:11])[N:3]([H:12])[C@:4]1([C:5]([C:6](=[O:7])[H:16])([H:14])[H:15])[H:13])([H:8])([H:9])[H:10]>>[C:1](=[C:2]1[N:3]([H:12])[C@:4]1([C:5]([C:6](=[O:7])[H:16])([H:14])[H:15])[H:13])([H:8])[H:9].[H:10][H:11]"
C       -1.46433212      -0.02044793       1.35111614
C       -1.09482544       0.20280212       0.01134852
N       -0.80750005       1.37523049      -0.73740537
C        0.09580330       0.21155287      -0.83218748
C        1.47811778       0.39028208      -0.27347666
C        2.14536809      -0.90133051       0.10898573
O        1.64955879      -1.98846820      -0.00724294
H       -0.67998452      -0.37013388       2.01453950
H       -2.15669365       0.68443724       1.80995268
H       -2.32947208      -1.01555727       0.41417797
H       -2.20357336      -0.76698688      -0.71965491
H       -1.41979561       1.45974461      -1.53979503
H        0.03115633      -0.40096108      -1.72606726
H        1.45288373       1.03447311       0.61064981
H        2.12780906       0.90078666      -0.99440595
H        3.17547975      -0.79542344       0.50946523
16
Frame=13 idx=007609 GeodesicLength=1.1521054774723127 rxn_smarts="[C:1]([C@@:2]1([H:11])[N:3]([H:12])[C@:4]1([C:5]([C:6](=[O:7])[H:16])([H:14])[H:15])[H:13])([H:8])([H:9])[H:10]>>[C:1](=[C:2]1[N:3]([H:12])[C@:4]1([C:5]([C:6](=[O:7])[H:16])([H:14])[H:15])[H:13])([H:8])[H:9].[H:10][H:11]"
C       -1.47298900      -0.02716880       1.34033400
C       -1.09173291       0.20811812       0.00520772
N       -0.79944087       1.38402087      -0.73535545
C        0.10125041       0.21872194      -0.83391491
C        1.48380990       0.39128244      -0.27379731
C        2.14729472      -0.90305781       0.10600274
O        1.64878732      -1.98874467      -0.01234723
H       -0.68080557      -0.34659802       2.01062121
H       -2.16374825       0.68199800       1.79722972
H       -2.36248316      -1.04862109       0.43682219
H       -2.20770145      -0.78747812      -0.69855617
H       -1.41213827       1.47344164      -1.53701305
H        0.03621637      -0.38970962      -1.73080297
H        1.46013039       1.03354460       0.61182902
H        2.13587415       0.90106331      -0.99317381
H        3.17767624      -0.80081279       0.50691432
16
Frame=14 idx=007609 GeodesicLength=1.2405327936224715 rxn_smarts="[C:1]([C@@:2]1([H:11])[N:3]([H:12])[C@:4]1([C:5]([C:6](=[O:7])[H:16])([H:14])[H:15])[H:13])([H:8])([H:9])[H:10]>>[C:1](=[C:2]1[N:3]([H:12])[C@:4]1([C:5]([C:6](=[O:7])[H:16])([H:14])[H:15])[H:13])([H:8])[H:9].[H:10][H:11]"
C       -1.48168907      -0.03431588       1.32870876
C       -1.08831807       0.21402992      -0.00134809
N       -0.79100993       1.39325709      -0.73369216
C        0.10704823       0.22632107      -0.83595090
C        1.48974693       0.39252617      -0.27418338
C        2.14934914      -0.90462836       0.10279093
O        1.64804549      -1.98879732      -0.01776448
H       -0.68309875      -0.32467269       2.00558217
H       -2.17015010       0.67951085       1.78413716
H       -2.39903439      -1.08048656       0.46148323
H       -2.21008462      -0.81030409      -0.67505615
H       -1.40412554       1.48748188      -1.53459175
H        0.04162299      -0.37808220      -1.73578105
H        1.46747240       1.03263860       0.61309168
H        2.14431974       0.90168318      -0.99179910
H        3.17990558      -0.80616167       0.50437313
16
Frame=15 idx=007609 GeodesicLength=1.3288047105034566 rxn_smarts="[C:1]([C@@:2]1([H:11])[N:3]([H:12])[C@:4]1([C:5]([C:6](=[O:7])[H:16])([H:14])[H:15])[H:13])([H:8])([H:9])[H:10]>>[C:1](=[C:2]1[N:3]([H:12])[C@:4]1([C:5]([C:6](=[O:7])[H:16])([H:14])[H:15])[H:13])([H:8])[H:9].[H:10][H:11]"
C       -1.49042397      -0.04189636       1.31618353
C       -1.08462051       0.22045543      -0.00838714
N       -0.78224502       1.40289953      -0.73242777
C        0.11319761       0.23434248      -0.83831389
C        1.49590481       0.39403631      -0.27460828
C        2.15154096      -0.90600629       0.09935341
O        1.64738868      -1.98860418      -0.02354884
H       -0.68675713      -0.30469544       1.99933328
H       -2.17572454       0.67704670       1.77072453
H       -2.43963801      -1.11059938       0.48821493
H       -2.21041517      -0.83581445      -0.64904095
H       -1.39575886       1.50184522      -1.53257068
H        0.04743124      -0.36605681      -1.74104519
H        1.47482706       1.03174391       0.61448597
H        2.15312585       0.90271631      -0.99021532
H        3.18216701      -0.81141298       0.50186241
16
Frame=16 idx=007609 GeodesicLength=1.4171033855812278 rxn_smarts="[C:1]([C@@:2]1([H:11])[N:3]([H:12])[C@:4]1([C:5]([C:6](=[O:7])[H:16])([H:14])[H:15])[H:13])([H:8])([H:9])[H:10]>>[C:1](=[C:2]1[N:3]([H:12])[C@:4]1([C:5]([C:6](=[O:7])[H:16])([H:14])[H:15])[H:13])([H:8])[H:9].[H:10][H:11]"
C       -1.49919084      -0.04992104       1.30271176
C       -1.08069077       0.22728877      -0.01598096
N       -0.77319528       1.41289622      -0.73156016
C        0.11969228       0.24277004      -0.84101825
C        1.50225170       0.39583179      -0.27504129
C        2.15387849      -0.90715818       0.09569212
O        1.64687886      -1.98814770      -0.02976818
H       -0.69164037      -0.28697355       1.99180003
H       -2.18031664       0.67468503       1.75703688
H       -2.48477212      -1.13838145       0.51703144
H       -2.20836798      -0.86435884      -0.62039817
H       -1.38704607       1.51650984      -1.53097689
H        0.05369517      -0.35360907      -1.74664164
H        1.48210158       1.03084337       0.61606486
H        2.16226250       0.90423424      -0.98834951
H        3.18445950      -0.81650948       0.49939796
