16
Frame=0 idx=004076 GeodesicLength=0.0 rxn_smarts="[C:1]([C@@:2]1([H:10])[C:3]([H:11])([H:12])[C@:4]1([C:5]([H:13])([H:14])[H:15])[O:6][H:16])([H:7])([H:8])[H:9]>>[C:1]([C:4]([C:3]([C:2][H:10])([H:11])[H:12])([C:5]([H:13])([H:14])[H:15])[O:6][H:16])([H:7])([H:8])[H:9]"
C        1.11223610       0.40513903       0.84312129
C        1.32083668      -0.95769326      -0.48176365
C       -0.03018649      -1.15003919      -1.09061112
C       -0.27990389       0.09346551      -0.32443763
C       -1.39209031      -0.00607227       0.69607730
O       -0.37048485       1.19175349      -1.15559648
H        2.16570355       0.59716763       0.66790944
H        0.68512750       1.41257344       1.00336640
H        0.99148161      -0.15550736       1.76239692
H        1.87543909      -0.32423014      -1.18789288
H       -0.11626247      -0.98685825      -2.16152693
H       -0.59549933      -2.01755497      -0.75634138
H       -2.33388155      -0.09490002       0.15106140
H       -1.43439969       0.88305403       1.33054043
H       -1.27071517      -0.88389796       1.32855862
H       -0.32740072       1.99360025      -0.62486166
16
Frame=1 idx=004076 GeodesicLength=0.06293781237598364 rxn_smarts="[C:1]([C@@:2]1([H:10])[C:3]([H:11])([H:12])[C@:4]1([C:5]([H:13])([H:14])[H:15])[O:6][H:16])([H:7])([H:8])[H:9]>>[C:1]([C:4]([C:3]([C:2][H:10])([H:11])[H:12])([C:5]([H:13])([H:14])[H:15])[O:6][H:16])([H:7])([H:8])[H:9]"
C        1.11767942       0.39486522       0.85188216
C        1.33109093      -0.93586885      -0.51433404
C       -0.03069974      -1.15459860      -1.07957260
C       -0.27986699       0.09583157      -0.32223635
C       -1.40046568       0.00145777       0.68998222
O       -0.37562747       1.18990308      -1.16194472
H        2.17450057       0.58520891       0.69245635
H        0.70434002       1.40460555       1.02892938
H        0.98914748      -0.18452753       1.75893444
H        1.86642104      -0.28946198      -1.22244174
H       -0.12567412      -1.00584608      -2.15285478
H       -0.57116983      -2.02899695      -0.72356463
H       -2.33981336      -0.09161258       0.14152436
H       -1.44913014       0.89440102       1.31867364
H       -1.28267936      -0.87041090       1.33150740
H       -0.32805276       1.99505035      -0.63694110
16
Frame=2 idx=004076 GeodesicLength=0.12565943608562355 rxn_smarts="[C:1]([C@@:2]1([H:10])[C:3]([H:11])([H:12])[C@:4]1([C:5]([H:13])([H:14])[H:15])[O:6][H:16])([H:7])([H:8])[H:9]>>[C:1]([C:4]([C:3]([C:2][H:10])([H:11])[H:12])([C:5]([H:13])([H:14])[H:15])[O:6][H:16])([H:7])([H:8])[H:9]"
C        1.12318652       0.38434078       0.86041771
C        1.34016363      -0.91349586      -0.54644516
C       -0.03050274      -1.15881847      -1.06816614
C       -0.27999810       0.09860181      -0.32012940
C       -1.40881282       0.00906632       0.68384329
O       -0.38138375       1.18812774      -1.16864001
H        2.18329974       0.57160790       0.71636330
H        0.72394658       1.39587566       1.05517877
H        0.98683287      -0.21334955       1.75493122
H        1.85643876      -0.25498058      -1.25640471
H       -0.13425962      -1.02483008      -2.14361238
H       -0.54567994      -2.03921552      -0.69069824
H       -2.34568540      -0.08873433       0.13204374
H       -1.46384065       0.90585484       1.30658173
H       -1.29429767      -0.85671084       1.33434214
H       -0.32940741       1.99666018      -0.64960587
16
Frame=3 idx=004076 GeodesicLength=0.18819367165707201 rxn_smarts="[C:1]([C@@:2]1([H:10])[C:3]([H:11])([H:12])[C@:4]1([C:5]([H:13])([H:14])[H:15])[O:6][H:16])([H:7])([H:8])[H:9]>>[C:1]([C:4]([C:3]([C:2][H:10])([H:11])[H:12])([C:5]([H:13])([H:14])[H:15])[O:6][H:16])([H:7])([H:8])[H:9]"
C        1.12875713       0.37359628       0.86873927
C        1.34805144      -0.89066461      -0.57800216
C       -0.02960598      -1.16265765      -1.05641793
C       -0.28028444       0.10179294      -0.31810842
C       -1.41711963       0.01673593       0.67767239
O       -0.38775083       1.18641573      -1.17568920
H        2.19209957       0.55640710       0.73956091
H        0.74397306       1.38636986       1.08210972
H        0.98452715      -0.24188755       1.75044794
H        1.84555737      -0.22091813      -1.28974462
H       -0.14195401      -1.04375665      -2.13381939
H       -0.51914030      -2.04814997      -0.65785206
H       -2.35148735      -0.08627570       0.12264387
H       -1.47854271       0.91738720       1.29428237
H       -1.30554077      -0.84282450       1.33706248
H       -0.33153969       1.99842972      -0.66288516
16
Frame=4 idx=004076 GeodesicLength=0.25056860598020586 rxn_smarts="[C:1]([C@@:2]1([H:10])[C:3]([H:11])([H:12])[C@:4]1([C:5]([H:13])([H:14])[H:15])[O:6][H:16])([H:7])([H:8])[H:9]>>[C:1]([C:4]([C:3]([C:2][H:10])([H:11])[H:12])([C:5]([H:13])([H:14])[H:15])[O:6][H:16])([H:7])([H:8])[H:9]"
C        1.13439184       0.36266370       0.87686134
C        1.35476370      -0.86746626      -0.60891973
C       -0.02802383      -1.16607594      -1.04435735
C       -0.28071176       0.10541892      -0.31616328
C       -1.42537523       0.02445014       0.67148118
O       -0.39472078       1.18475315      -1.18309544
H        2.20089429       0.53965904       0.76198892
H        0.76445088       1.37607586       1.10971046
H        0.98221850      -0.27005981       1.74555046
H        1.83384503      -0.18739921      -1.32243244
H       -0.14869961      -1.06256756      -2.12350164
H       -0.49166900      -2.05575568      -0.62513000
H       -2.35720918      -0.08424635       0.11334694
H       -1.49325183       0.92896942       1.28179317
H       -1.31638411      -0.82877698       1.33967060
H       -0.33451889       2.00035755      -0.67680318
16
Frame=5 idx=004076 GeodesicLength=0.312813525061116 rxn_smarts="[C:1]([C@@:2]1([H:10])[C:3]([H:11])([H:12])[C@:4]1([C:5]([H:13])([H:14])[H:15])[O:6][H:16])([H:7])([H:8])[H:9]>>[C:1]([C:4]([C:3]([C:2][H:10])([H:11])[H:12])([C:5]([H:13])([H:14])[H:15])[O:6][H:16])([H:7])([H:8])[H:9]"
C        1.14009168       0.35157997       0.88480032
C        1.36032190      -0.84398553      -0.63912124
C       -0.02577669      -1.16903902      -1.03201332
C       -0.28126344       0.10949024      -0.31428276
C       -1.43356946       0.03219378       0.66528100
O       -0.40228410       1.18311916      -1.19086215
H        2.20967932       0.52142032       0.78360411
H        0.78541946       1.36497398       1.13796949
H        0.97989605      -0.29778696       1.74030786
H        1.82136720      -0.15452973      -1.35444446
H       -0.15444694      -1.08120590      -2.11268914
H       -0.46339166      -2.06200128      -0.59264040
H       -2.36284061      -0.08265330       0.10417492
H       -1.50798396       0.94057602       1.26912965
H       -1.32680725      -0.81458887       1.34217228
H       -0.33841150       2.00243712      -0.69138617
16
Frame=6 idx=004076 GeodesicLength=0.37494680288881643 rxn_smarts="[C:1]([C@@:2]1([H:10])[C:3]([H:11])([H:12])[C@:4]1([C:5]([H:13])([H:14])[H:15])[O:6][H:16])([H:7])([H:8])[H:9]>>[C:1]([C:4]([C:3]([C:2][H:10])([H:11])[H:12])([C:5]([H:13])([H:14])[H:15])[O:6][H:16])([H:7])([H:8])[H:9]"
C        1.14585818       0.34037807       0.89257801
C        1.36475989      -0.82030229      -0.66854142
C       -0.02289451      -1.17151581      -1.01941708
C       -0.28192143       0.11401062      -0.31245267
C       -1.44169308       0.03995407       0.65908286
O       -0.41042244       1.18148597      -1.19899026
H        2.21845083       0.50175408       0.80437217
H        0.80690715       1.35304720       1.16687128
H        0.97754927      -0.32500266       1.73478995
H        1.80819119      -0.12239096      -1.38576581
H       -0.15916067      -1.09961868      -2.10141365
H       -0.43443107      -2.06686369      -0.56048335
H       -2.36837133      -0.08149765       0.09514773
H       -1.52275237       0.95218645       1.25630450
H       -1.33679590      -0.80027852       1.34457599
H       -0.34327373       2.00465381      -0.70665825
16
Frame=7 idx=004076 GeodesicLength=0.4369911405004299 rxn_smarts="[C:1]([C@@:2]1([H:10])[C:3]([H:11])([H:12])[C@:4]1([C:5]([H:13])([H:14])[H:15])[O:6][H:16])([H:7])([H:8])[H:9]>>[C:1]([C:4]([C:3]([C:2][H:10])([H:11])[H:12])([C:5]([H:13])([H:14])[H:15])[O:6][H:16])([H:7])([H:8])[H:9]"
C        1.15169490       0.32909187       0.90021641
C        1.36811812      -0.79649331      -0.69712410
C       -0.01940570      -1.17347762      -1.00659647
C       -0.28266657       0.11898464      -0.31065752
C       -1.44973799       0.04772017       0.65289623
O       -0.41911666       1.17982425      -1.20747862
H        2.22719844       0.48072870       0.82426777
H        0.82895341       1.34027163       1.19640041
H        0.97516620      -0.35164339       1.72906773
H        1.79438165      -0.09105309      -1.41638810
H       -0.16281488      -1.11775188      -2.08970763
H       -0.40490944      -2.07033516      -0.52875692
H       -2.37378874      -0.08078028       0.08628240
H       -1.53757455       0.96378047       1.24332736
H       -1.34633974      -0.78585764       1.34689198
H       -0.34915846       2.00699065      -0.72264092
16
Frame=8 idx=004076 GeodesicLength=0.49896251918230833 rxn_smarts="[C:1]([C@@:2]1([H:10])[C:3]([H:11])([H:12])[C@:4]1([C:5]([H:13])([H:14])[H:15])[O:6][H:16])([H:7])([H:8])[H:9]>>[C:1]([C:4]([C:3]([C:2][H:10])([H:11])[H:12])([C:5]([H:13])([H:14])[H:15])[O:6][H:16])([H:7])([H:8])[H:9]"
C        1.15760595       0.31775853       0.90773842
C        1.37044303      -0.77262891      -0.72482071
C       -0.01533565      -1.17489821      -0.99358372
C       -0.28347859       0.12441526      -0.30888296
C       -1.45769582       0.05548117       0.64672894
O       -0.42834570       1.17810728      -1.21632125
H        2.23591370       0.45841059       0.84327735
H        0.85160168       1.32662915       1.22652750
H        0.97273548      -0.37764722       1.72321301
H        1.77999680      -0.06057556      -1.44630201
H       -0.16539313      -1.13555248      -2.07760632
H       -0.37495372      -2.07242633      -0.49755019
H       -2.37908313      -0.08050354       0.07759183
H       -1.55246923       0.97533844       1.23020709
H       -1.35543127      -0.77133886       1.34912919
H       -0.35611040       2.00943069      -0.73934617
16
Frame=9 idx=004076 GeodesicLength=0.5608200406900066 rxn_smarts="[C:1]([C@@:2]1([H:10])[C:3]([H:11])([H:12])[C@:4]1([C:5]([H:13])([H:14])[H:15])[O:6][H:16])([H:7])([H:8])[H:9]>>[C:1]([C:4]([C:3]([C:2][H:10])([H:11])[H:12])([C:5]([H:13])([H:14])[H:15])[O:6][H:16])([H:7])([H:8])[H:9]"
C        1.16362797       0.30640237       0.91518350
C        1.37186541      -0.74870670      -0.75164991
C       -0.01077242      -1.17575806      -0.98041698
C       -0.28429052       0.13029543      -0.30711912
C       -1.46551242       0.06324586       0.64058745
O       -0.43808941       1.17623421      -1.22555317
H        2.24450115       0.43490482       0.86156543
H        0.87484687       1.31205191       1.25721228
H        0.97030317      -0.40307336       1.71724294
H        1.76512757      -0.03086351      -1.47548097
H       -0.16693078      -1.15296149      -2.06515089
H       -0.34482427      -2.07319618      -0.46689729
H       -2.38419172      -0.08064503       0.06911027
H       -1.56739940       0.98687262       1.21693158
H       -1.36403736      -0.75669266       1.35131953
H       -0.36422383       2.01188977      -0.75688464
16
Frame=10 idx=004076 GeodesicLength=0.6226204572104082 rxn_smarts="[C:1]([C@@:2]1([H:10])[C:3]([H:11])([H:12])[C@:4]1([C:5]([H:13])([H:14])[H:15])[O:6][H:16])([H:7])([H:8])[H:9]>>[C:1]([C:4]([C:3]([C:2][H:10])([H:11])[H:12])([C:5]([H:13])([H:14])[H:15])[O:6][H:16])([H:7])([H:8])[H:9]"
C        1.16973489       0.29506473       0.92256265
C        1.37237160      -0.72483656      -0.77753496
C       -0.00569730      -1.17602785      -0.96711557
C       -0.28513185       0.13664124      -0.30534597
C       -1.47322909       0.07099442       0.63447881
O       -0.44831996       1.17424431      -1.23512225
H        2.25301969       0.41022330       0.87898239
H        0.89876325       1.29657618       1.28842507
H        0.96780222      -0.42777915       1.71126029
H        1.74980494      -0.00207568      -1.50396087
H       -0.16738727      -1.16993456      -2.05236443
H       -0.31448456      -2.07265515      -0.43690125
H       -2.38915273      -0.08122315       0.06082827
H       -1.58243811       0.99834338       1.20352022
H       -1.37218391      -0.74195426       1.35345505
H       -0.37347180       2.01439880      -0.77516744
16
Frame=11 idx=004076 GeodesicLength=0.6843826197280701 rxn_smarts="[C:1]([C@@:2]1([H:10])[C:3]([H:11])([H:12])[C@:4]1([C:5]([H:13])([H:14])[H:15])[O:6][H:16])([H:7])([H:8])[H:9]>>[C:1]([C:4]([C:3]([C:2][H:10])([H:11])[H:12])([C:5]([H:13])([H:14])[H:15])[O:6][H:16])([H:7])([H:8])[H:9]"
C        1.17592944       0.28377694       0.92990330
C        1.37202747      -0.70105693      -0.80246549
C       -0.00014432      -1.17568922      -0.95370229
C       -0.28598672       0.14345326      -0.30354999
C       -1.48084270       0.07872369       0.62840757
O       -0.45901241       1.17210115      -1.24502082
H        2.26145622       0.38442303       0.89554050
H        0.92339039       1.28018481       1.32013894
H        0.96522237      -0.45173688       1.70532091
H        1.73408997       0.02578309      -1.53175020
H       -0.16677337      -1.18642297      -2.03928014
H       -0.28404077      -2.07084977      -0.40761262
H       -2.39395588      -0.08223514       0.05275578
H       -1.59760484       1.00974050       1.18997080
H       -1.37987628      -0.72711970       1.35554974
H       -0.38387856       2.01692414      -0.79420599
16
Frame=12 idx=004076 GeodesicLength=0.7461135928343299 rxn_smarts="[C:1]([C@@:2]1([H:10])[C:3]([H:11])([H:12])[C@:4]1([C:5]([H:13])([H:14])[H:15])[O:6][H:16])([H:7])([H:8])[H:9]>>[C:1]([C:4]([C:3]([C:2][H:10])([H:11])[H:12])([C:5]([H:13])([H:14])[H:15])[O:6][H:16])([H:7])([H:8])[H:9]"
C        1.18221650       0.27256726       0.93723349
C        1.37090122      -0.67739521      -0.82643937
C        0.00585116      -1.17472643      -0.94020001
C       -0.28683786       0.15073455      -0.30171702
C       -1.48834940       0.08643163       0.62237705
O       -0.47013943       1.16977601      -1.25523354
H        2.26978613       0.35755058       0.91126127
H        0.94876817       1.26286669       1.35230720
H        0.96255254      -0.47492229       1.69947596
H        1.71803586       0.05271553      -1.55886153
H       -0.16510509      -1.20238375      -2.02592519
H       -0.25358715      -2.06783794      -0.37907137
H       -2.39859034      -0.08367996       0.04489875
H       -1.61292257       1.02105330       1.17627843
H       -1.38712075      -0.71218308       1.35761687
H       -0.39545899       2.01943310      -0.81400100
16
Frame=13 idx=004076 GeodesicLength=0.8078210516118862 rxn_smarts="[C:1]([C@@:2]1([H:10])[C:3]([H:11])([H:12])[C@:4]1([C:5]([H:13])([H:14])[H:15])[O:6][H:16])([H:7])([H:8])[H:9]>>[C:1]([C:4]([C:3]([C:2][H:10])([H:11])[H:12])([C:5]([H:13])([H:14])[H:15])[O:6][H:16])([H:7])([H:8])[H:9]"
C        1.18860083       0.26146350       0.94458223
C        1.36906089      -0.65386865      -0.84945921
C        0.01225751      -1.17312511      -0.92662790
C       -0.28766849       0.15849096      -0.29983417
C       -1.49574639       0.09411837       0.61638787
O       -0.48167518       1.16723837      -1.26574550
H        2.27798625       0.32963940       0.92616563
H        0.97493334       1.24460259       1.38488500
H        0.95977910      -0.49731781       1.69377262
H        1.70168700       0.07873965      -1.58531086
H       -0.16240286      -1.21777849      -2.01232274
H       -0.22320388      -2.06367668      -0.35130435
H       -2.40304218      -0.08555590       0.03726170
H       -1.62841435       1.03227358       1.16243394
H       -1.39392587      -0.69713197       1.35966898
H       -0.40822574       2.02188817      -0.83455323
16
Frame=14 idx=004076 GeodesicLength=0.8695134212158925 rxn_smarts="[C:1]([C@@:2]1([H:10])[C:3]([H:11])([H:12])[C@:4]1([C:5]([H:13])([H:14])[H:15])[O:6][H:16])([H:7])([H:8])[H:9]>>[C:1]([C:4]([C:3]([C:2][H:10])([H:11])[H:12])([C:5]([H:13])([H:14])[H:15])[O:6][H:16])([H:7])([H:8])[H:9]"
C        1.19508588       0.25049296       0.95197454
C        1.36657015      -0.63049007      -0.87153305
C        0.01904473      -1.17087509      -0.91300220
C       -0.28846582       0.16672575      -0.29789094
C       -1.50303236       0.10178467       0.61043994
O       -0.49359340       1.16445949      -1.27653919
H        2.28603110       0.30072655       0.94027426
H        1.00192462       1.22537202       1.41782826
H        0.95688887      -0.51890420       1.68825355
H        1.68508530       0.10387829      -1.61110927
H       -0.15868803      -1.23257213      -1.99849683
H       -0.19296505      -2.05842662      -0.32433554
H       -2.40730057      -0.08786094       0.02984784
H       -1.64410020       1.04339494       1.14842835
H       -1.40030215      -0.68195318       1.36171779
H       -0.42218306       2.02424757      -0.85585750
16
Frame=15 idx=004076 GeodesicLength=0.9311978986253417 rxn_smarts="[C:1]([C@@:2]1([H:10])[C:3]([H:11])([H:12])[C@:4]1([C:5]([H:13])([H:14])[H:15])[O:6][H:16])([H:7])([H:8])[H:9]>>[C:1]([C:4]([C:3]([C:2][H:10])([H:11])[H:12])([C:5]([H:13])([H:14])[H:15])[O:6][H:16])([H:7])([H:8])[H:9]"
C        1.20167663       0.23968280       0.95943583
C        1.36349155      -0.60726108      -0.89267377
C        0.02618555      -1.16796684      -0.89933678
C       -0.28921704       0.17544497      -0.29587774
C       -1.51020613       0.10943167       0.60453151
O       -0.50586797       1.16141376      -1.28759378
H        2.29388853       0.27083452       0.95361080
H        1.02978240       1.20515087       1.45108429
H        0.95386567      -0.53966171       1.68295820
H        1.66826428       0.12816060      -1.63627415
H       -0.15398329      -1.24673330      -1.98446610
H       -0.16293319      -2.05214770      -0.29817678
H       -2.41135315      -0.09059653       0.02265861
H       -1.66000503       1.05440912       1.13424818
H       -1.40626096      -0.66662981       1.36377475
H       -0.43732787       2.02646868      -0.87790307
16
Frame=16 idx=004076 GeodesicLength=0.9928777472053688 rxn_smarts="[C:1]([C@@:2]1([H:10])[C:3]([H:11])([H:12])[C@:4]1([C:5]([H:13])([H:14])[H:15])[O:6][H:16])([H:7])([H:8])[H:9]>>[C:1]([C:4]([C:3]([C:2][H:10])([H:11])[H:12])([C:5]([H:13])([H:14])[H:15])[O:6][H:16])([H:7])([H:8])[H:9]"
C        1.20837903       0.22906093       0.96698993
C        1.35988600      -0.58417796      -0.91289683
C        0.03365529      -1.16439248      -0.88564232
C       -0.28991081       0.18465565      -0.29378693
C       -1.51726666       0.11706093       0.59865953
O       -0.51847193       1.15807958      -1.29888569
H        2.30152119       0.23998257       0.96619471
H        1.05853873       1.18390926       1.48459862
H        0.95069365      -0.55957134       1.67791965
H        1.65125354       0.15162071      -1.66082059
H       -0.14831432      -1.26023378      -1.97024736
H       -0.13316239      -2.04490178      -0.27283028
H       -2.41518663      -0.09376426       0.01569412
H       -1.67615101       1.06530805       1.11987810
H       -1.41181361      -0.65114241       1.36585060
H       -0.45365005       2.02850632      -0.90067525
