14
Frame=0 idx=004019 GeodesicLength=0.0 rxn_smarts="[C:1]([C:2]([C:3]([H:9])([H:10])[H:11])([C:4]([H:12])([H:13])[H:14])[H:8])([H:5])([H:6])[H:7]>>[C:1]([C:2][C:4]([H:12])([H:13])[H:14])([H:5])([H:6])[H:7].[C:3]([H:8])([H:9])([H:10])[H:11]"
C       -0.95458491      -1.17686939      -0.15532273
C        0.10572600      -0.50775741       0.65777433
C       -0.47261716       1.62811818       0.14825743
C        1.44245308      -0.50099713      -0.01029486
H       -0.90237994      -1.01761487      -1.24349277
H       -0.79445666      -2.24802098       0.01718791
H       -1.96183008      -0.95411780       0.19769323
H       -0.26826248       0.75462102       0.96414864
H        0.21433763       2.41324956       0.46037549
H       -1.51004065       1.89953256       0.33715610
H       -0.31992373       1.37041452      -0.89383383
H        1.84269688      -1.50570807       0.17176582
H        2.14121378       0.19819923       0.44981125
H        1.43766821      -0.35304945      -1.10122606
14
Frame=1 idx=004019 GeodesicLength=0.052309824683144907 rxn_smarts="[C:1]([C:2]([C:3]([H:9])([H:10])[H:11])([C:4]([H:12])([H:13])[H:14])[H:8])([H:5])([H:6])[H:7]>>[C:1]([C:2][C:4]([H:12])([H:13])[H:14])([H:5])([H:6])[H:7].[C:3]([H:8])([H:9])([H:10])[H:11]"
C       -0.95454589      -1.17850992      -0.15755240
C        0.10538974      -0.49962403       0.64689545
C       -0.47292211       1.62828051       0.15080348
C        1.44489065      -0.50535099      -0.01438162
H       -0.90280489      -1.02380625      -1.24615221
H       -0.79314404      -2.24834564       0.02224659
H       -1.96183313      -0.95545508       0.19537310
H       -0.26886884       0.76101899       0.99153155
H        0.20487472       2.42147350       0.46326173
H       -1.51375925       1.89391474       0.33007133
H       -0.31552311       1.38670923      -0.89504636
H        1.84063980      -1.51045546       0.17566129
H        2.14589140       0.19339344       0.44314590
H        1.44171493      -0.36324306      -1.10585783
14
Frame=2 idx=004019 GeodesicLength=0.10464920905800545 rxn_smarts="[C:1]([C:2]([C:3]([H:9])([H:10])[H:11])([C:4]([H:12])([H:13])[H:14])[H:8])([H:5])([H:6])[H:7]>>[C:1]([C:2][C:4]([H:12])([H:13])[H:14])([H:5])([H:6])[H:7].[C:3]([H:8])([H:9])([H:10])[H:11]"
C       -0.95443910      -1.18019036      -0.15983605
C        0.10497921      -0.49110902       0.63566308
C       -0.47317604       1.62858841       0.15331002
C        1.44727223      -0.50974982      -0.01855831
H       -0.90311147      -1.03050959      -1.24891264
H       -0.79175981      -2.24856263       0.02781098
H       -1.96180802      -0.95670665       0.19281321
H       -0.26941902       0.76709291       1.01827368
H        0.19521579       2.42965949       0.46664668
H       -1.51728820       1.88820899       0.32335491
H       -0.31122764       1.40361101      -0.89615789
H        1.83839059      -1.51512949       0.17991475
H        2.15053698       0.18858778       0.43626307
H        1.44583450      -0.37379105      -1.11058548
14
Frame=3 idx=004019 GeodesicLength=0.15701401440572374 rxn_smarts="[C:1]([C:2]([C:3]([H:9])([H:10])[H:11])([C:4]([H:12])([H:13])[H:14])[H:8])([H:5])([H:6])[H:7]>>[C:1]([C:2][C:4]([H:12])([H:13])[H:14])([H:5])([H:6])[H:7].[C:3]([H:8])([H:9])([H:10])[H:11]"
C       -0.95426355      -1.18191011      -0.16216932
C        0.10450646      -0.48224592       0.62406845
C       -0.47338040       1.62905431       0.15576743
C        1.44959778      -0.51419074      -0.02282375
H       -0.90330156      -1.03772889      -1.25176231
H       -0.79031487      -2.24866037       0.03387292
H       -1.96175121      -0.95786618       0.19002059
H       -0.26992016       0.77281549       1.04440416
H        0.18536993       2.43780415       0.47052383
H       -1.52063673       1.88244322       0.31697205
H       -0.30703577       1.42110073      -0.89714995
H        1.83596006      -1.51971334       0.18450888
H        2.15514598       0.18378479       0.42916835
H        1.45002403      -0.38468714      -1.11540134
14
Frame=4 idx=004019 GeodesicLength=0.20940099175906962 rxn_smarts="[C:1]([C:2]([C:3]([H:9])([H:10])[H:11])([C:4]([H:12])([H:13])[H:14])[H:8])([H:5])([H:6])[H:7]>>[C:1]([C:2][C:4]([H:12])([H:13])[H:14])([H:5])([H:6])[H:7].[C:3]([H:8])([H:9])([H:10])[H:11]"
C       -0.95401911      -1.18366718      -0.16454755
C        0.10398259      -0.47306440       0.61210104
C       -0.47353687       1.62968743       0.15816882
C        1.45186713      -0.51867085      -0.02717778
H       -0.90337741      -1.04546764      -1.25468907
H       -0.78881962      -2.24862530       0.04042503
H       -1.96165926      -0.95892812       0.18700135
H       -0.27037580       0.77815879       1.06995327
H        0.17534386       2.44590236       0.47488842
H       -1.52381413       1.87664161       0.31088644
H       -0.30294397       1.43916279      -0.89800583
H        1.83335719      -1.52418871       0.18943060
H        2.15971464       0.17898723       0.42186404
H        1.45428075      -0.39592803      -1.12029879
14
Frame=5 idx=004019 GeodesicLength=0.2618046422626142 rxn_smarts="[C:1]([C:2]([C:3]([H:9])([H:10])[H:11])([C:4]([H:12])([H:13])[H:14])[H:8])([H:5])([H:6])[H:7]>>[C:1]([C:2][C:4]([H:12])([H:13])[H:14])([H:5])([H:6])[H:7].[C:3]([H:8])([H:9])([H:10])[H:11]"
C       -0.95370586      -1.18545875      -0.16696665
C        0.10341707      -0.46359127       0.59974894
C       -0.47364573       1.63049501       0.16050615
C        1.45407994      -0.52318659      -0.03162033
H       -0.90334084      -1.05372871      -1.25768125
H       -0.78728124      -2.24844356       0.04746081
H       -1.96153072      -0.95988629       0.18376070
H       -0.27079018       0.78309695       1.09494831
H        0.16514465       2.45394811       0.47973442
H       -1.52682573       1.87082334       0.30506964
H       -0.29895223       1.45778285      -0.89871287
H        1.83058899      -1.52853921       0.19466989
H        2.16423911       0.17419858       0.41435360
H        1.45860277      -0.40751049      -1.12527136
14
Frame=6 idx=004019 GeodesicLength=0.314224997480441 rxn_smarts="[C:1]([C:2]([C:3]([H:9])([H:10])[H:11])([C:4]([H:12])([H:13])[H:14])[H:8])([H:5])([H:6])[H:7]>>[C:1]([C:2][C:4]([H:12])([H:13])[H:14])([H:5])([H:6])[H:7].[C:3]([H:8])([H:9])([H:10])[H:11]"
C       -0.95332376      -1.18728185      -0.16942223
C        0.10281902      -0.45384979       0.58700061
C       -0.47370896       1.63148191       0.16277190
C        1.45623606      -0.52773522      -0.03615062
H       -0.90319501      -1.06251311      -1.26072460
H       -0.78570888      -2.24809864       0.05497367
H       -1.96136320      -0.96073577       0.18030514
H       -0.27116335       0.78759924       1.11941754
H        0.15477556       2.46193310       0.48505789
H       -1.52967887       1.86500670       0.29948625
H       -0.29505574       1.47695138      -0.89925711
H        1.82766244      -1.53274664       0.20021632
H        2.16871675       0.16942262       0.40663711
H        1.46298793      -0.41943394      -1.13031188
14
Frame=7 idx=004019 GeodesicLength=0.36665939252625446 rxn_smarts="[C:1]([C:2]([C:3]([H:9])([H:10])[H:11])([C:4]([H:12])([H:13])[H:14])[H:8])([H:5])([H:6])[H:7]>>[C:1]([C:2][C:4]([H:12])([H:13])[H:14])([H:5])([H:6])[H:7].[C:3]([H:8])([H:9])([H:10])[H:11]"
C       -0.95287303      -1.18913231      -0.17191056
C        0.10219598      -0.44386073       0.57384224
C       -0.47372790       1.63265164       0.16495995
C        1.45833518      -0.53231301      -0.04076891
H       -0.90294203      -1.07182135      -1.26380708
H       -0.78410938      -2.24757143       0.06296268
H       -1.96115532      -0.96147184       0.17663851
H       -0.27149506       0.79163648       1.14338678
H        0.14424002       2.46984723       0.49085420
H       -1.53237973       1.85920556       0.29410589
H       -0.29125165       1.49666042      -0.89962640
H        1.82458302      -1.53679523       0.20606124
H        2.17314476       0.16466319       0.39871564
H        1.46743514      -0.43169861      -1.13541416
14
Frame=8 idx=004019 GeodesicLength=0.41910656733822754 rxn_smarts="[C:1]([C:2]([C:3]([H:9])([H:10])[H:11])([C:4]([H:12])([H:13])[H:14])[H:8])([H:5])([H:6])[H:7]>>[C:1]([C:2][C:4]([H:12])([H:13])[H:14])([H:5])([H:6])[H:7].[C:3]([H:8])([H:9])([H:10])[H:11]"
C       -0.95235391      -1.19100628      -0.17442811
C        0.10155488      -0.43364201       0.56025865
C       -0.47370342       1.63400539       0.16706325
C        1.46037672      -0.53691645      -0.04547602
H       -0.90258385      -1.08165679      -1.26691400
H       -0.78249030      -2.24684141       0.07142419
H       -1.96090596      -0.96208958       0.17276300
H       -0.27178202       0.79517662       1.16687997
H        0.13354106       2.47767896       0.49712226
H       -1.53493257       1.85343387       0.28889911
H       -0.28753853       1.51690431      -0.89980842
H        1.82135402      -1.54066369       0.21220232
H        2.17752079       0.15992522       0.39058541
H        1.47194309      -0.44430817      -1.14057159
14
Frame=9 idx=004019 GeodesicLength=0.47156261362336416 rxn_smarts="[C:1]([C:2]([C:3]([H:9])([H:10])[H:11])([C:4]([H:12])([H:13])[H:14])[H:8])([H:5])([H:6])[H:7]>>[C:1]([C:2][C:4]([H:12])([H:13])[H:14])([H:5])([H:6])[H:7].[C:3]([H:8])([H:9])([H:10])[H:11]"
C       -0.95176798      -1.19289673      -0.17697166
C        0.10090062      -0.42320630       0.54622596
C       -0.47363649       1.63554461       0.16908225
C        1.46235895      -0.54154121      -0.05027236
H       -0.90212024      -1.09202855      -1.27003453
H       -0.78085384      -2.24588667       0.08036531
H       -1.96061738      -0.96257998       0.16867619
H       -0.27201900       0.79817946       1.18991790
H        0.12268176       2.48541638       0.50385945
H       -1.53734105       1.84770190       0.28384449
H       -0.28391433       1.53768189      -0.89979646
H        1.81797461      -1.54433210       0.21863908
H        2.18184111       0.15521622       0.38224342
H        1.47651326      -0.45726892      -1.14577904
14
Frame=10 idx=004019 GeodesicLength=0.5240294408292008 rxn_smarts="[C:1]([C:2]([C:3]([H:9])([H:10])[H:11])([C:4]([H:12])([H:13])[H:14])[H:8])([H:5])([H:6])[H:7]>>[C:1]([C:2][C:4]([H:12])([H:13])[H:14])([H:5])([H:6])[H:7].[C:3]([H:8])([H:9])([H:10])[H:11]"
C       -0.95111466      -1.19480090      -0.17953658
C        0.10023858      -0.41256928       0.53173411
C       -0.47352820       1.63726959       0.17100408
C        1.46428162      -0.54618394      -0.05515730
H       -0.90155368      -1.10293509      -1.27315042
H       -0.77920846      -2.24468828       0.08977740
H       -1.96028735      -0.96294065       0.16438266
H       -0.27220065       0.80061911       1.21252066
H        0.11166212       2.49304386       0.51106479
H       -1.53960892       1.84202411       0.27891032
H       -0.28037882       1.55898882      -0.89957512
H        1.81445095      -1.54778318       0.22536469
H        2.18610438       0.15053987       0.37368748
H        1.48114307      -0.47058404      -1.15102679
14
Frame=11 idx=004019 GeodesicLength=0.5765035895779016 rxn_smarts="[C:1]([C:2]([C:3]([H:9])([H:10])[H:11])([C:4]([H:12])([H:13])[H:14])[H:8])([H:5])([H:6])[H:7]>>[C:1]([C:2][C:4]([H:12])([H:13])[H:14])([H:5])([H:6])[H:7].[C:3]([H:8])([H:9])([H:10])[H:11]"
C       -0.95039476      -1.19671219      -0.18212058
C        0.09957197      -0.40174186       0.51676357
C       -0.47337844       1.63918009       0.17282705
C        1.46614321      -0.55084005      -0.06013042
H       -0.90088392      -1.11438278      -1.27624803
H       -0.77755823      -2.24322488       0.09966231
H       -1.95991657      -0.96316502       0.15987885
H       -0.27232023       0.80246006       1.23470593
H        0.10048404       2.50054728       0.51873294
H       -1.54173690       1.83641150       0.27407675
H       -0.27693563       1.58082372      -0.89913480
H        1.81078446      -1.55099674       0.23237976
H        2.19030815       0.14590162       0.36491322
H        1.48583285      -0.48426077      -1.15630655
14
Frame=12 idx=004019 GeodesicLength=0.6289888889585633 rxn_smarts="[C:1]([C:2]([C:3]([H:9])([H:10])[H:11])([C:4]([H:12])([H:13])[H:14])[H:8])([H:5])([H:6])[H:7]>>[C:1]([C:2][C:4]([H:12])([H:13])[H:14])([H:5])([H:6])[H:7].[C:3]([H:8])([H:9])([H:10])[H:11]"
C       -0.94960828      -1.19862594      -0.18472045
C        0.09890484      -0.39073381       0.50129323
C       -0.47318895       1.64127532       0.17454133
C        1.46794240      -0.55550502      -0.06519292
H       -0.90011055      -1.12637770      -1.27931120
H       -0.77590960      -2.24147014       0.11002399
H       -1.95950540      -0.96324706       0.15516237
H       -0.27236752       0.80366588       1.25648813
H        0.08914816       2.50790666       0.52686790
H       -1.54372884       1.83087352       0.26931896
H       -0.27358382       1.60318883      -0.89846073
H        1.80697473      -1.55395124       0.23968629
H        2.19445026       0.14130912       0.35591352
H        1.49058256      -0.49830841      -1.16161043
14
Frame=13 idx=004019 GeodesicLength=0.6814847963265434 rxn_smarts="[C:1]([C:2]([C:3]([H:9])([H:10])[H:11])([C:4]([H:12])([H:13])[H:14])[H:8])([H:5])([H:6])[H:7]>>[C:1]([C:2][C:4]([H:12])([H:13])[H:14])([H:5])([H:6])[H:7].[C:3]([H:8])([H:9])([H:10])[H:11]"
C       -0.94875622      -1.20053483      -0.18733354
C        0.09823863      -0.37955247       0.48530052
C       -0.47295944       1.64355441       0.17614370
C        1.46967678      -0.56017315      -0.07034411
H       -0.89923163      -1.13892836      -1.28232501
H       -0.77426502      -2.23940235       0.12086456
H       -1.95905638      -0.96317848       0.15022702
H       -0.27233176       0.80419693       1.27788020
H        0.07765801       2.51510431       0.53546413
H       -1.54558424       1.82541983       0.26462157
H       -0.27032979       1.62608512      -0.89754199
H        1.80302069      -1.55662456       0.24728997
H        2.19852804       0.13676932       0.34668245
H        1.49539234      -0.51273571      -1.16692945
14
Frame=14 idx=004019 GeodesicLength=0.7339939978791805 rxn_smarts="[C:1]([C:2]([C:3]([H:9])([H:10])[H:11])([C:4]([H:12])([H:13])[H:14])[H:8])([H:5])([H:6])[H:7]>>[C:1]([C:2][C:4]([H:12])([H:13])[H:14])([H:5])([H:6])[H:7].[C:3]([H:8])([H:9])([H:10])[H:11]"
C       -0.94783827      -1.20243362      -0.18995804
C        0.09757547      -0.36820532       0.46876143
C       -0.47269146       1.64601423       0.17762714
C        1.47134441      -0.56483975      -0.07558499
H       -0.89824462      -1.15204476      -1.28527201
H       -0.77263248      -2.23698976       0.13219326
H       -1.95856973      -0.96295321       0.14506364
H       -0.27219876       0.80401252       1.29889226
H        0.06601275       2.52211774       0.54452543
H       -1.54730419       1.82006193       0.25996350
H       -0.26717638       1.64951670      -0.89636290
H        1.79892152      -1.55899164       0.25519365
H        2.20253882       0.13229045       0.33721057
H        1.50026292      -0.52755551      -1.17225294
14
Frame=15 idx=004019 GeodesicLength=0.7865178395367932 rxn_smarts="[C:1]([C:2]([C:3]([H:9])([H:10])[H:11])([C:4]([H:12])([H:13])[H:14])[H:8])([H:5])([H:6])[H:7]>>[C:1]([C:2][C:4]([H:12])([H:13])[H:14])([H:5])([H:6])[H:7].[C:3]([H:8])([H:9])([H:10])[H:11]"
C       -0.94685523      -1.20431450      -0.19259200
C        0.09691573      -0.35669783       0.45165066
C       -0.47238497       1.64865247       0.17898696
C        1.47294220      -0.56949875      -0.08091524
H       -0.89714646      -1.16573686      -1.28813511
H       -0.77101524      -2.23420595       0.14401503
H       -1.95804821      -0.96256292       0.13966296
H       -0.27195306       0.80307014       1.31953209
H        0.05421566       2.52892469       0.55404918
H       -1.54888910       1.81480926       0.25532980
H       -0.26413027       1.67348672      -0.89490901
H        1.79467492      -1.56102758       0.26340456
H        2.20647940       0.12788158       0.32748930
H        1.50519463      -0.54278048      -1.17756918
14
Frame=16 idx=004019 GeodesicLength=0.8390607281250021 rxn_smarts="[C:1]([C:2]([C:3]([H:9])([H:10])[H:11])([C:4]([H:12])([H:13])[H:14])[H:8])([H:5])([H:6])[H:7]>>[C:1]([C:2][C:4]([H:12])([H:13])[H:14])([H:5])([H:6])[H:7].[C:3]([H:8])([H:9])([H:10])[H:11]"
C       -0.94580714      -1.20616998      -0.19523436
C        0.09625990      -0.34503450       0.43393926
C       -0.47204052       1.65146587       0.18021739
C        1.47446693      -0.57414365      -0.08633530
H       -0.89593162      -1.18001994      -1.29089499
H       -0.76941989      -2.23101775       0.15634098
H       -1.95749425      -0.96199823       0.13401045
H       -0.27157622       0.80132335       1.33980475
H        0.04226767       2.53549981       0.56403926
H       -1.55033895       1.80967267       0.25070571
H       -0.26119825       1.69800009      -0.89316463
H        1.79027737      -1.56270430       0.27193133
H        2.21034676       0.12355254       0.31750654
H        1.51018821      -0.55842598      -1.18286637
