8
Frame=0 idx=005759 GeodesicLength=0.0 rxn_smarts="[o:1]1[c:2]([H:6])[c:3]([H:7])[n:4][c:5]1[H:8]>>[O:1]=[C:5]=[N:4][C:3](=[C:2]([H:6])[H:8])[H:7]"
O        0.53789841       0.91165753       1.01595789
C       -0.27524881       0.63696726      -0.12368864
C       -0.58353840      -0.81686262       0.00541479
N        0.51779023      -1.28062504       0.46758144
C        1.25608500      -0.03432769       0.30187813
H       -0.79219874       1.48772033      -0.54731905
H       -1.47351487      -1.37825775      -0.25724676
H        0.81272721       0.47372797      -0.86257781
8
Frame=1 idx=005759 GeodesicLength=0.23212312143886416 rxn_smarts="[o:1]1[c:2]([H:6])[c:3]([H:7])[n:4][c:5]1[H:8]>>[O:1]=[C:5]=[N:4][C:3](=[C:2]([H:6])[H:8])[H:7]"
O        0.60679736       0.93357176       1.01604373
C       -0.28844452       0.62583078      -0.13739706
C       -0.58822030      -0.81917662      -0.02190045
N        0.50705851      -1.28772571       0.46814823
C        1.24863781      -0.06167970       0.32840646
H       -0.83561326       1.45581710      -0.56486983
H       -1.49082250      -1.37572484      -0.24662339
H        0.84060690       0.52908723      -0.84180768
8
Frame=2 idx=005759 GeodesicLength=0.4642041593245517 rxn_smarts="[o:1]1[c:2]([H:6])[c:3]([H:7])[n:4][c:5]1[H:8]>>[O:1]=[C:5]=[N:4][C:3](=[C:2]([H:6])[H:8])[H:7]"
O        0.67994058       0.95342167       1.01614107
C       -0.30265420       0.61444006      -0.15262500
C       -0.59302020      -0.82223037      -0.04924810
N        0.49589123      -1.29384379       0.46988119
C        1.23898657      -0.08698711       0.35449850
H       -0.87716427       1.42424133      -0.58351729
H       -1.50661452      -1.37358950      -0.23699171
H        0.86463482       0.58454771      -0.81813866
8
Frame=3 idx=005759 GeodesicLength=0.6962141919346991 rxn_smarts="[o:1]1[c:2]([H:6])[c:3]([H:7])[n:4][c:5]1[H:8]>>[O:1]=[C:5]=[N:4][C:3](=[C:2]([H:6])[H:8])[H:7]"
O        0.75966887       0.97110639       1.01626454
C       -0.31821778       0.60311492      -0.16853424
C       -0.59890351      -0.82533643      -0.07363931
N        0.48395269      -1.29851149       0.47410123
C        1.22721729      -0.11007922       0.37995503
H       -0.91708972       1.39318457      -0.60342031
H       -1.51983878      -1.37285875      -0.23209527
H        0.88321095       0.63938000      -0.79263167
8
Frame=4 idx=005759 GeodesicLength=0.9281072684012424 rxn_smarts="[o:1]1[c:2]([H:6])[c:3]([H:7])[n:4][c:5]1[H:8]>>[O:1]=[C:5]=[N:4][C:3](=[C:2]([H:6])[H:8])[H:7]"
O        0.84847535       0.98608908       1.01604037
C       -0.33557892       0.59215952      -0.18432718
C       -0.60660905      -0.82794961      -0.09307999
N        0.47084410      -1.30126868       0.48205431
C        1.21342689      -0.13075831       0.40487299
H       -0.95572380       1.36261846      -0.62505531
H       -1.53020025      -1.37479029      -0.23468021
H        0.89536568       0.69389984      -0.76582498
8
Frame=5 idx=005759 GeodesicLength=1.1597903267521625 rxn_smarts="[o:1]1[c:2]([H:6])[c:3]([H:7])[n:4][c:5]1[H:8]>>[O:1]=[C:5]=[N:4][C:3](=[C:2]([H:6])[H:8])[H:7]"
O        0.94887463       0.99710892       1.01473825
C       -0.35535138       0.58178812      -0.19935424
C       -0.61658153      -0.82977232      -0.10679418
N        0.45610814      -1.30167232       0.49471181
C        1.19759748      -0.14876661       0.42957854
H       -0.99338757       1.33218881      -0.64951679
H       -1.53771315      -1.38038679      -0.24604133
H        0.90045337       0.74951219      -0.73732207
8
Frame=6 idx=005759 GeodesicLength=1.391025419276657 rxn_smarts="[o:1]1[c:2]([H:6])[c:3]([H:7])[n:4][c:5]1[H:8]>>[O:1]=[C:5]=[N:4][C:3](=[C:2]([H:6])[H:8])[H:7]"
O        1.06315841       1.00197923       1.01121430
C       -0.37824285       0.57202641      -0.21353563
C       -0.62893392      -0.83081841      -0.11523653
N        0.43938019      -1.29933251       0.51240926
C        1.17948807      -0.16369406       0.45473283
H       -1.03036932       1.30114877      -0.67859783
H       -1.54246324      -1.38998446      -0.26559505
H        0.89798266       0.80867502      -0.70539133
8
Frame=7 idx=005759 GeodesicLength=1.6211573508485562 rxn_smarts="[o:1]1[c:2]([H:6])[c:3]([H:7])[n:4][c:5]1[H:8]>>[O:1]=[C:5]=[N:4][C:3](=[C:2]([H:6])[H:8])[H:7]"
O        1.19408990       0.99830259       1.00223801
C       -0.40468947       0.56250532      -0.22809411
C       -0.64368272      -0.83131362      -0.11916330
N        0.41987137      -1.29356860       0.53623026
C        1.15831928      -0.17476222       0.48205396
H       -1.06767656       1.26909368      -0.71244808
H       -1.54384708      -1.40382323      -0.29345320
H        0.88761528       0.87356608      -0.66736353
8
Frame=8 idx=005759 GeodesicLength=1.8492558102392809 rxn_smarts="[o:1]1[c:2]([H:6])[c:3]([H:7])[n:4][c:5]1[H:8]>>[O:1]=[C:5]=[N:4][C:3](=[C:2]([H:6])[H:8])[H:7]"
O        1.34566821       0.98123338       0.98239978
C       -0.43501849       0.55276556      -0.24525832
C       -0.66077674      -0.83150310      -0.11961478
N        0.39597005      -1.28284498       0.56864133
C        1.13272418      -0.18058687       0.51363944
H       -1.10660391       1.23551160      -0.75157484
H       -1.54017517      -1.42259353      -0.32990682
H        0.86821187       0.94801793      -0.61832579
8
Frame=9 idx=005759 GeodesicLength=2.074229886660302 rxn_smarts="[o:1]1[c:2]([H:6])[c:3]([H:7])[n:4][c:5]1[H:8]>>[O:1]=[C:5]=[N:4][C:3](=[C:2]([H:6])[H:8])[H:7]"
O        1.51615970       0.94054477       0.95272354
C       -0.46765363       0.53997645      -0.27406341
C       -0.67178046      -0.83625273      -0.13488921
N        0.37292534      -1.26948720       0.59664555
C        1.09983360      -0.17765390       0.55284982
H       -1.14362652       1.19470242      -0.81083277
H       -1.54242749      -1.43995308      -0.34404544
H        0.83656946       1.04812327      -0.53838809
8
Frame=10 idx=005759 GeodesicLength=2.284991813052754 rxn_smarts="[o:1]1[c:2]([H:6])[c:3]([H:7])[n:4][c:5]1[H:8]>>[O:1]=[C:5]=[N:4][C:3](=[C:2]([H:6])[H:8])[H:7]"
O        1.71752873       0.86552832       0.87886211
C       -0.50011304       0.52300659      -0.31950812
C       -0.67346504      -0.84591866      -0.16564427
N        0.35218382      -1.25238866       0.62054554
C        1.04846806      -0.15616855       0.62383551
H       -1.17686089       1.14670850      -0.89092550
H       -1.54690859      -1.45542984      -0.34317253
H        0.77916695       1.17466231      -0.40399275
8
Frame=11 idx=005759 GeodesicLength=2.432730915227676 rxn_smarts="[o:1]1[c:2]([H:6])[c:3]([H:7])[n:4][c:5]1[H:8]>>[O:1]=[C:5]=[N:4][C:3](=[C:2]([H:6])[H:8])[H:7]"
O        1.90374322       0.72726830       0.70647033
C       -0.51394692       0.50678400      -0.38777652
C       -0.66570706      -0.84924563      -0.18980911
N        0.33687969      -1.22128975       0.65403209
C        0.99071359      -0.11411706       0.72413835
H       -1.18958288       1.09311443      -0.99838805
H       -1.53825009      -1.46774110      -0.33786838
H        0.67615044       1.32522681      -0.17079872
8
Frame=12 idx=005759 GeodesicLength=2.6000319288702722 rxn_smarts="[o:1]1[c:2]([H:6])[c:3]([H:7])[n:4][c:5]1[H:8]>>[O:1]=[C:5]=[N:4][C:3](=[C:2]([H:6])[H:8])[H:7]"
O        1.96131774       0.61223318       0.46906861
C       -0.48035881       0.49328891      -0.46731373
C       -0.65767399      -0.83641908      -0.18623900
N        0.32732037      -1.18589379       0.69893128
C        0.99139629      -0.09573928       0.79140529
H       -1.14608366       1.04834551      -1.11636888
H       -1.52976209      -1.45655990      -0.32607966
H        0.53384416       1.42074445       0.13659608
8
Frame=13 idx=005759 GeodesicLength=2.8357211843142323 rxn_smarts="[o:1]1[c:2]([H:6])[c:3]([H:7])[n:4][c:5]1[H:8]>>[O:1]=[C:5]=[N:4][C:3](=[C:2]([H:6])[H:8])[H:7]"
O        1.93181674       0.54115047       0.25058476
C       -0.44337493       0.49662607      -0.51846228
C       -0.65339234      -0.80496620      -0.16759088
N        0.31617365      -1.14108092       0.75148975
C        1.02971172      -0.09064942       0.83617985
H       -1.08732448       1.01712827      -1.21606340
H       -1.50930993      -1.44053049      -0.32962805
H        0.41569957       1.42232221       0.39349026
8
Frame=14 idx=005759 GeodesicLength=3.088678852296589 rxn_smarts="[o:1]1[c:2]([H:6])[c:3]([H:7])[n:4][c:5]1[H:8]>>[O:1]=[C:5]=[N:4][C:3](=[C:2]([H:6])[H:8])[H:7]"
O        1.87078052       0.47796935       0.07338323
C       -0.42770708       0.51518919      -0.54311428
C       -0.65358092      -0.76419853      -0.14464950
N        0.30808794      -1.08641339       0.80063799
C        1.08040328      -0.08441301       0.86543153
H       -1.03240948       0.98783467      -1.30652974
H       -1.47670964      -1.43068890      -0.34266055
H        0.33113538       1.38472062       0.59750133
8
Frame=15 idx=005759 GeodesicLength=3.3458469755514053 rxn_smarts="[o:1]1[c:2]([H:6])[c:3]([H:7])[n:4][c:5]1[H:8]>>[O:1]=[C:5]=[N:4][C:3](=[C:2]([H:6])[H:8])[H:7]"
O        1.79659300       0.41201918      -0.07334750
C       -0.42719451       0.54386298      -0.55724777
C       -0.65996220      -0.71617160      -0.11852160
N        0.30434987      -1.02371243       0.84311889
C        1.13515961      -0.07421680       0.88002684
H       -0.97893919       0.95347213      -1.39371294
H       -1.43501758      -1.42420052      -0.35816035
H        0.26501100       1.32894706       0.77784442
8
Frame=16 idx=005759 GeodesicLength=3.6039611571541377 rxn_smarts="[o:1]1[c:2]([H:6])[c:3]([H:7])[n:4][c:5]1[H:8]>>[O:1]=[C:5]=[N:4][C:3](=[C:2]([H:6])[H:8])[H:7]"
O        1.71851622       0.34148904      -0.19271713
C       -0.43081276       0.57612037      -0.57398408
C       -0.66950451      -0.66365446      -0.09375499
N        0.30692251      -0.95706184       0.87575448
C        1.18751845      -0.05713346       0.88394859
H       -0.93020475       0.91477990      -1.47313597
H       -1.38948878      -1.41484193      -0.36902084
H        0.20705362       1.26030238       0.94290994
