15
Frame=0 idx=008917 GeodesicLength=0.0 rxn_smarts="[C:1]([n:2]1[c:3]([H:11])[c:4]([H:12])[c:5]([H:13])[c:6]1[N:7]([H:14])[H:15])([H:8])([H:9])[H:10]>>[C-:1]([N+:2]1=[C:6]([N:7]([H:14])[H:15])[C:5]([H:10])([H:13])[C:4]([H:12])=[C:3]1[H:11])([H:8])[H:9]"
C       -1.03066069      -1.00808407       0.78310693
N       -0.30635102      -0.74649693      -0.55078225
C        1.01855069      -1.24197101      -0.32541130
C        1.81820961      -0.25873490       0.06833841
C        0.94047813       0.92753092       0.19818913
C       -0.19479555       0.60652978      -0.59557992
N       -1.25275312       1.37302707      -0.87260353
H       -2.03861273      -0.58901175       0.72250533
H       -1.13497089      -2.08991224       0.89955727
H        0.19814203       0.41962856       1.15696738
H        1.19199982      -2.30249364      -0.41715604
H        2.84896337      -0.32020663       0.37704423
H        1.30166572       1.93343350       0.36896716
H       -2.12258440       0.93973879      -1.12555910
H       -1.23728092       2.35702257      -0.68758371
15
Frame=1 idx=008917 GeodesicLength=0.08387940847730349 rxn_smarts="[C:1]([n:2]1[c:3]([H:11])[c:4]([H:12])[c:5]([H:13])[c:6]1[N:7]([H:14])[H:15])([H:8])([H:9])[H:10]>>[C-:1]([N+:2]1=[C:6]([N:7]([H:14])[H:15])[C:5]([H:10])([H:13])[C:4]([H:12])=[C:3]1[H:11])([H:8])[H:9]"
C       -1.03997385      -1.00949197       0.77550737
N       -0.30377132      -0.74547015      -0.54145493
C        1.02138569      -1.24125149      -0.32596388
C        1.82306905      -0.25551733       0.06277694
C        0.94410935       0.92791598       0.20272375
C       -0.18773124       0.60759516      -0.59955581
N       -1.24608593       1.37509607      -0.88808963
H       -2.04866026      -0.59571944       0.70329334
H       -1.13303716      -2.09092272       0.89901249
H        0.18233638       0.41661323       1.18000101
H        1.18864124      -2.30449863      -0.39504519
H        2.85690165      -0.31714376       0.36103755
H        1.31496986       1.93452555       0.34876912
H       -2.12436338       0.94673086      -1.12086502
H       -1.24779008       2.35153864      -0.66214711
15
Frame=2 idx=008917 GeodesicLength=0.16771640455226425 rxn_smarts="[C:1]([n:2]1[c:3]([H:11])[c:4]([H:12])[c:5]([H:13])[c:6]1[N:7]([H:14])[H:15])([H:8])([H:9])[H:10]>>[C-:1]([N+:2]1=[C:6]([N:7]([H:14])[H:15])[C:5]([H:10])([H:13])[C:4]([H:12])=[C:3]1[H:11])([H:8])[H:9]"
C       -1.04907718      -1.01158144       0.76819852
N       -0.30143331      -0.74416447      -0.53172588
C        1.02407124      -1.24025643      -0.32696050
C        1.82780730      -0.25205419       0.05677085
C        0.94759012       0.92837765       0.20776307
C       -0.18117098       0.60885062      -0.60254875
N       -1.24017887       1.37740646      -0.90143633
H       -2.05851468      -0.60348623       0.68461922
H       -1.13063446      -2.09251376       0.89847450
H        0.16598103       0.41262496       1.20405605
H        1.18545359      -2.30564029      -0.37394731
H        2.86454303      -0.31398995       0.34478160
H        1.32764524       1.93511838       0.32983038
H       -2.12649719       0.95435991      -1.11435846
H       -1.25558488       2.34694877      -0.64351696
15
Frame=3 idx=008917 GeodesicLength=0.2514962174420487 rxn_smarts="[C:1]([n:2]1[c:3]([H:11])[c:4]([H:12])[c:5]([H:13])[c:6]1[N:7]([H:14])[H:15])([H:8])([H:9])[H:10]>>[C-:1]([N+:2]1=[C:6]([N:7]([H:14])[H:15])[C:5]([H:10])([H:13])[C:4]([H:12])=[C:3]1[H:11])([H:8])[H:9]"
C       -1.05801241      -1.01415698       0.76110177
N       -0.29925131      -0.74265186      -0.52164966
C        1.02663739      -1.23907478      -0.32827101
C        1.83247008      -0.24840056       0.05032676
C        0.95103602       0.92891239       0.21301701
C       -0.17498350       0.61022161      -0.60485291
N       -1.23487179       1.37982997      -0.91323140
H       -2.06818642      -0.61207655       0.66624361
H       -1.12787068      -2.09445939       0.89803739
H        0.14905463       0.40780278       1.22893265
H        1.18244795      -2.30605807      -0.35357439
H        2.87191196      -0.31079479       0.32839131
H        1.33979448       1.93528114       0.31182523
H       -2.12887522       0.96248912      -1.10646364
H       -1.26130117       2.34313597      -0.62983271
15
Frame=4 idx=008917 GeodesicLength=0.3352281466080018 rxn_smarts="[C:1]([n:2]1[c:3]([H:11])[c:4]([H:12])[c:5]([H:13])[c:6]1[N:7]([H:14])[H:15])([H:8])([H:9])[H:10]>>[C-:1]([N+:2]1=[C:6]([N:7]([H:14])[H:15])[C:5]([H:10])([H:13])[C:4]([H:12])=[C:3]1[H:11])([H:8])[H:9]"
C       -1.06680945      -1.01708600       0.75416289
N       -0.29716297      -0.74097604      -0.51125758
C        1.02910419      -1.23776708      -0.32980163
C        1.83709139      -0.24459677       0.04344863
C        0.95453717       0.92952519       0.21827933
C       -0.16907609       0.61166197      -0.60666569
N       -1.23005121       1.38228520      -0.92387446
H       -2.07768003      -0.62133068       0.64800236
H       -1.12482791      -2.09660610       0.89775734
H        0.13152371       0.40224910       1.25450468
H        1.17962893      -2.30584802      -0.33373171
H        2.87903058      -0.30760777       0.31194055
H        1.35150097       1.93508029       0.29452453
H       -2.13141321       0.97102318      -1.09747786
H       -1.26539606       2.33999353      -0.61981137
15
Frame=5 idx=008917 GeodesicLength=0.4189262454109459 rxn_smarts="[C:1]([n:2]1[c:3]([H:11])[c:4]([H:12])[c:5]([H:13])[c:6]1[N:7]([H:14])[H:15])([H:8])([H:9])[H:10]>>[C-:1]([N+:2]1=[C:6]([N:7]([H:14])[H:15])[C:5]([H:10])([H:13])[C:4]([H:12])=[C:3]1[H:11])([H:8])[H:9]"
C       -1.07549432      -1.02026231       0.74733071
N       -0.29511886      -0.73916929      -0.50057764
C        1.03148795      -1.23638219      -0.33148586
C        1.84169808      -0.24067718       0.03612731
C        0.95816561       0.93021967       0.22337538
C       -0.16337687       0.61313547      -0.60815694
N       -1.22562724       1.38470520      -0.93368890
H       -2.08699541      -0.63113113       0.62973817
H       -1.12157462      -2.09882152       0.89768368
H        0.11334821       0.39604094       1.28067172
H        1.17700542      -2.30508743      -0.31424867
H        2.88591698      -0.30446510       0.29551914
H        1.36283554       1.93457842       0.27771613
H       -2.13402461       0.97993286      -1.08758840
H       -1.26824586       2.33738357      -0.61241582
15
Frame=6 idx=008917 GeodesicLength=0.5026159207769483 rxn_smarts="[C:1]([n:2]1[c:3]([H:11])[c:4]([H:12])[c:5]([H:13])[c:6]1[N:7]([H:14])[H:15])([H:8])([H:9])[H:10]>>[C-:1]([N+:2]1=[C:6]([N:7]([H:14])[H:15])[C:5]([H:10])([H:13])[C:4]([H:12])=[C:3]1[H:11])([H:8])[H:9]"
C       -1.08408173      -1.02363530       0.74057939
N       -0.29308759      -0.73724472      -0.48961048
C        1.03379682      -1.23494588      -0.33327547
C        1.84630683      -0.23666232       0.02835894
C        0.96197081       0.93100491       0.22820360
C       -0.15784895       0.61462333      -0.60940790
N       -1.22155977       1.38705090      -0.94283494
H       -2.09612824      -0.64142106       0.61136548
H       -1.11815856      -2.10104294       0.89783269
H        0.09447692       0.38920117       1.30740871
H        1.17458225      -2.30381825      -0.29503838
H        2.89259128      -0.30139586       0.27916156
H        1.37385299       1.93383451       0.26126392
H       -2.13666580       0.98917623      -1.07691679
H       -1.27004727       2.33527529      -0.60709033
15
Frame=7 idx=008917 GeodesicLength=0.5863078214527122 rxn_smarts="[C:1]([n:2]1[c:3]([H:11])[c:4]([H:12])[c:5]([H:13])[c:6]1[N:7]([H:14])[H:15])([H:8])([H:9])[H:10]>>[C-:1]([N+:2]1=[C:6]([N:7]([H:14])[H:15])[C:5]([H:10])([H:13])[C:4]([H:12])=[C:3]1[H:11])([H:8])[H:9]"
C       -1.09258722      -1.02717365       0.73388681
N       -0.29104479      -0.73520338      -0.47834428
C        1.03603429      -1.23347086      -0.33513032
C        1.85093064      -0.23256675       0.02014469
C        0.96599627       0.93189366       0.23269568
C       -0.15246428       0.61612016      -0.61046616
N       -1.21782205       1.38931406      -0.95139233
H       -2.10507377      -0.65216947       0.59281033
H       -1.11461959      -2.10322649       0.89820883
H        0.07484783       0.38173169       1.33471586
H        1.17236074      -2.30206722      -0.27603800
H        2.89907846      -0.29842401       0.26286777
H        1.38460699       1.93289996       0.24506667
H       -2.13930392       0.99872878      -1.06553045
H       -1.27093960       2.33361351      -0.60349511
15
Frame=8 idx=008917 GeodesicLength=0.6700186314301659 rxn_smarts="[C:1]([n:2]1[c:3]([H:11])[c:4]([H:12])[c:5]([H:13])[c:6]1[N:7]([H:14])[H:15])([H:8])([H:9])[H:10]>>[C-:1]([N+:2]1=[C:6]([N:7]([H:14])[H:15])[C:5]([H:10])([H:13])[C:4]([H:12])=[C:3]1[H:11])([H:8])[H:9]"
C       -1.10102690      -1.03085145       0.72723040
N       -0.28896574      -0.73304748      -0.46676494
C        1.03820594      -1.23197319      -0.33700758
C        1.85557927      -0.22840366       0.01148486
C        0.97028197       0.93289737       0.23678518
C       -0.14719876       0.61761573      -0.61137640
N       -1.21438751       1.39147162      -0.95945442
H       -2.11382469      -0.66335318       0.57399376
H       -1.11100272      -2.10533463       0.89881250
H        0.05438241       0.37363015       1.36259895
H        1.17034837      -2.29985546      -0.25717478
H        2.90540394      -0.29556179       0.24663420
H        1.39515144       1.93182261       0.22899823
H       -2.14190042       1.00857975      -1.05348287
H       -1.27104659       2.33236361      -0.60127708
15
Frame=9 idx=008917 GeodesicLength=0.753712987343035 rxn_smarts="[C:1]([n:2]1[c:3]([H:11])[c:4]([H:12])[c:5]([H:13])[c:6]1[N:7]([H:14])[H:15])([H:8])([H:9])[H:10]>>[C-:1]([N+:2]1=[C:6]([N:7]([H:14])[H:15])[C:5]([H:10])([H:13])[C:4]([H:12])=[C:3]1[H:11])([H:8])[H:9]"
C       -1.10941790      -1.03466827       0.72058839
N       -0.28682907      -0.73077303      -0.45485521
C        1.04031659      -1.23045390      -0.33886223
C        1.86025924      -0.22417913       0.00240447
C        0.97485120       0.93403374       0.24043596
C       -0.14203827       0.61910144      -0.61215461
N       -1.21124435       1.39350030      -0.96708052
H       -2.12237753      -0.67498321       0.55485715
H       -1.10733891      -2.10736174       0.89961652
H        0.03299333       0.36487987       1.39107656
H        1.16855247      -2.29719514      -0.23839640
H        2.91158990      -0.29281370       0.23041875
H        1.40552107       1.93064431       0.21297158
H       -2.14441582       1.01877973      -1.04069850
H       -1.27042194       2.33148873      -0.60032190
15
Frame=10 idx=008917 GeodesicLength=0.8374447165325921 rxn_smarts="[C:1]([n:2]1[c:3]([H:11])[c:4]([H:12])[c:5]([H:13])[c:6]1[N:7]([H:14])[H:15])([H:8])([H:9])[H:10]>>[C-:1]([N+:2]1=[C:6]([N:7]([H:14])[H:15])[C:5]([H:10])([H:13])[C:4]([H:12])=[C:3]1[H:11])([H:8])[H:9]"
C       -1.11776840      -1.03860705       0.71394693
N       -0.28461532      -0.72836604      -0.44257773
C        1.04236890      -1.22892141      -0.34066428
C        1.86498453      -0.21990567      -0.00711813
C        0.97975421       0.93532386       0.24358862
C       -0.13696685       0.62058486      -0.61281854
N       -1.20838229       1.39540969      -0.97428238
H       -2.13071228      -0.68704244       0.53532918
H       -1.10367571      -2.10928619       0.90061853
H        0.01058217       0.35544033       1.42018309
H        1.16697584      -2.29409895      -0.21964577
H        2.91766292      -0.29019781       0.21423262
H        1.41578783       1.92941056       0.19684210
H       -2.14683609       1.02926755      -1.02727041
H       -1.26915946       2.33098871      -0.60036384
15
Frame=11 idx=008917 GeodesicLength=0.921216740952904 rxn_smarts="[C:1]([n:2]1[c:3]([H:11])[c:4]([H:12])[c:5]([H:13])[c:6]1[N:7]([H:14])[H:15])([H:8])([H:9])[H:10]>>[C-:1]([N+:2]1=[C:6]([N:7]([H:14])[H:15])[C:5]([H:10])([H:13])[C:4]([H:12])=[C:3]1[H:11])([H:8])[H:9]"
C       -1.12609212      -1.04267178       0.70729170
N       -0.28230397      -0.72581256      -0.42989089
C        1.04436710      -1.22737574      -0.34236745
C        1.86976463      -0.21558933      -0.01707383
C        0.98502704       0.93679335       0.24620292
C       -0.13197352       0.62206611      -0.61336622
N       -1.20579155       1.39718778      -0.98108995
H       -2.13881610      -0.69954164       0.51535117
H       -1.10004827      -2.11111692       0.90179063
H       -0.01297468       0.34526764       1.44995430
H        1.16562612      -2.29056728      -0.20087784
H        2.92364724      -0.28772059       0.19804201
H        1.42600563       1.92815937       0.18048629
H       -2.14913845       1.04005529      -1.01316202
H       -1.26729910       2.33086629      -0.60129082
15
Frame=12 idx=008917 GeodesicLength=1.005032056318359 rxn_smarts="[C:1]([n:2]1[c:3]([H:11])[c:4]([H:12])[c:5]([H:13])[c:6]1[N:7]([H:14])[H:15])([H:8])([H:9])[H:10]>>[C-:1]([N+:2]1=[C:6]([N:7]([H:14])[H:15])[C:5]([H:10])([H:13])[C:4]([H:12])=[C:3]1[H:11])([H:8])[H:9]"
C       -1.13440137      -1.04686999       0.70060244
N       -0.27987458      -0.72309588      -0.41674877
C        1.04631508      -1.22581479      -0.34393479
C        1.87460785      -0.21123524      -0.02746416
C        0.99070661       0.93846657       0.24824183
C       -0.12704962       0.62354924      -0.61379387
N       -1.20347008       1.39883383      -0.98750264
H       -2.14666791      -0.71249656       0.49485233
H       -1.09649437      -2.11285520       0.90310905
H       -0.03781048       0.33430600       1.48043709
H        1.16451513      -2.28660177      -0.18202988
H        2.92956806      -0.28538444       0.18180368
H        1.43622621       1.92692228       0.16378108
H       -2.15130586       1.05115171      -0.99833508
H       -1.26486467       2.33112424      -0.60301830
15
Frame=13 idx=008917 GeodesicLength=1.088864059402014 rxn_smarts="[C:1]([n:2]1[c:3]([H:11])[c:4]([H:12])[c:5]([H:13])[c:6]1[N:7]([H:14])[H:15])([H:8])([H:9])[H:10]>>[C-:1]([N+:2]1=[C:6]([N:7]([H:14])[H:15])[C:5]([H:10])([H:13])[C:4]([H:12])=[C:3]1[H:11])([H:8])[H:9]"
C       -1.14270840      -1.05121167       0.69386738
N       -0.27730735      -0.72019512      -0.40309102
C        1.04821573      -1.22423312      -0.34531496
C        1.87952341      -0.20684749      -0.03827826
C        0.99682823       0.94037423       0.24967100
C       -0.12218647       0.62503787      -0.61409011
N       -1.20141464       1.40034212      -0.99352561
H       -2.15424760      -0.72592266       0.47377036
H       -1.09304849      -2.11452468       0.90453772
H       -0.06406604       0.32249066       1.51167651
H        1.16364968      -2.28219649      -0.16305919
H        2.93545111      -0.28318926       0.16546342
H        1.44649680       1.92572741       0.14660535
H       -2.15331420       1.06257913      -0.98271991
H       -1.26187176       2.33176908      -0.60551267
15
Frame=14 idx=008917 GeodesicLength=1.1727253459817961 rxn_smarts="[C:1]([n:2]1[c:3]([H:11])[c:4]([H:12])[c:5]([H:13])[c:6]1[N:7]([H:14])[H:15])([H:8])([H:9])[H:10]>>[C-:1]([N+:2]1=[C:6]([N:7]([H:14])[H:15])[C:5]([H:10])([H:13])[C:4]([H:12])=[C:3]1[H:11])([H:8])[H:9]"
C       -1.15102633      -1.05571586       0.68706668
N       -0.27457873      -0.71708401      -0.38884240
C        1.05007271      -1.22262448      -0.34646287
C        1.88452189      -0.20243080      -0.04952399
C        1.00343902       0.94255128       0.25044644
C       -0.11737924       0.62654033      -0.61423031
N       -1.19962822       1.40170913      -0.99914054
H       -2.16152083      -0.73985344       0.45201677
H       -1.08975387      -2.11614251       0.90604006
H       -0.09192597       0.30973974       1.54372376
H        1.16304673      -2.27734156      -0.14388889
H        2.94132316      -0.28113637       0.14896403
H        1.45687654       1.92460315       0.12880371
H       -2.15514923       1.07435741      -0.96623691
H       -1.25831763       2.33282800      -0.60873554
15
Frame=15 idx=008917 GeodesicLength=1.2565859830710706 rxn_smarts="[C:1]([n:2]1[c:3]([H:11])[c:4]([H:12])[c:5]([H:13])[c:6]1[N:7]([H:14])[H:15])([H:8])([H:9])[H:10]>>[C-:1]([N+:2]1=[C:6]([N:7]([H:14])[H:15])[C:5]([H:10])([H:13])[C:4]([H:12])=[C:3]1[H:11])([H:8])[H:9]"
C       -1.15936729      -1.06040307       0.68018547
N       -0.27166525      -0.71373325      -0.37391651
C        1.05188938      -1.22098011      -0.34732065
C        1.88961260      -0.19798742      -0.06120085
C        1.01058090       0.94503485       0.25052722
C       -0.11262303       0.62806152      -0.61418916
N       -1.19811343       1.40292494      -1.00433710
H       -2.16845432      -0.75431615       0.42951449
H       -1.08664866      -2.11774415       0.90757032
H       -0.12157842       0.29596466       1.57662847
H        1.16272093      -2.27202228      -0.12445628
H        2.94720979      -0.27922194       0.13223328
H        1.46741278       1.92357023       0.11023311
H       -2.15678726       1.08652026      -0.94877837
H       -1.25418872       2.33433190      -0.61269344
15
Frame=16 idx=008917 GeodesicLength=1.340429046208658 rxn_smarts="[C:1]([n:2]1[c:3]([H:11])[c:4]([H:12])[c:5]([H:13])[c:6]1[N:7]([H:14])[H:15])([H:8])([H:9])[H:10]>>[C-:1]([N+:2]1=[C:6]([N:7]([H:14])[H:15])[C:5]([H:10])([H:13])[C:4]([H:12])=[C:3]1[H:11])([H:8])[H:9]"
C       -1.16774456      -1.06530217       0.67320400
N       -0.26854016      -0.71010855      -0.35820498
C        1.05366915      -1.21928931      -0.34782743
C        1.89480538      -0.19351898      -0.07331755
C        1.01830149       0.94786596       0.24986681
C       -0.10791540       0.62960805      -0.61393188
N       -1.19687806       1.40397569      -1.00909427
H       -2.17500389      -0.76935877       0.40615925
H       -1.08377275      -2.11936933       0.90908062
H       -0.15325187       0.28106131       1.61043919
H        1.16269321      -2.26621815      -0.10467579
H        2.95313725      -0.27743993       0.11518336
H        1.47815273       1.92264736       0.09073372
H       -2.15820674       1.09912230      -0.93018895
H       -1.24944578       2.33632453      -0.61742612
