16
Frame=0 idx=003248 GeodesicLength=0.0 rxn_smarts="[C:1]([C@@:2]1([H:10])[C:3]([H:11])([H:12])[C:4]([H:13])([H:14])[O:5][C:6]1([H:15])[H:16])([H:7])([H:8])[H:9]>>[C:1]([C:2]([C:3](=[C:4]([H:13])[H:14])[H:12])([H:10])[H:11])([H:7])([H:8])[H:9].[O:5]=[C:6]([H:15])[H:16]"
C        1.88433506       0.23885960      -0.12139518
C        0.39810248       0.47757507      -0.07902894
C       -0.52960556      -0.24511510      -1.00223724
C       -1.88471393      -0.09681448      -0.90617220
O       -1.60137812      -0.67871635       1.39558292
C       -0.41561729      -0.43396599       1.65139292
H        2.43739046       0.93775742      -0.75371255
H        2.28744205       0.33809365       0.88882924
H        2.10539997      -0.77588671      -0.45817265
H        0.06614016       1.46409129       0.23244767
H        0.04151129       0.72628489      -1.43956289
H       -0.11593106      -1.13919195      -1.45646061
H       -2.54859104      -0.80663812      -1.37740014
H       -2.32352862       0.79267873      -0.47846088
H       -0.14117839       0.44120754       2.26563761
H        0.34022256      -1.24021953       1.63871291
16
Frame=1 idx=003248 GeodesicLength=0.06550352598260988 rxn_smarts="[C:1]([C@@:2]1([H:10])[C:3]([H:11])([H:12])[C:4]([H:13])([H:14])[O:5][C:6]1([H:15])[H:16])([H:7])([H:8])[H:9]>>[C:1]([C:2]([C:3](=[C:4]([H:13])[H:14])[H:12])([H:10])[H:11])([H:7])([H:8])[H:9].[O:5]=[C:6]([H:15])[H:16]"
C        1.88762521       0.23958562      -0.12286292
C        0.40203972       0.48627287      -0.08875248
C       -0.52671939      -0.23948607      -1.00818225
C       -1.88354891      -0.09974111      -0.88627391
O       -1.60845354      -0.69519539       1.38953624
C       -0.42094057      -0.43997435       1.64590377
H        2.44480434       0.93422453      -0.75611360
H        2.28765208       0.34298454       0.88818434
H        2.10736266      -0.77714056      -0.45468641
H        0.07437187       1.47478884       0.22168914
H        0.05061439       0.73904870      -1.45366980
H       -0.11776981      -1.14168149      -1.45106026
H       -2.55022974      -0.81573635      -1.34494092
H       -2.32075675       0.80503539      -0.48846747
H       -0.16338266       0.43063779       2.27323770
H        0.33733112      -1.24362298       1.63645883
16
Frame=2 idx=003248 GeodesicLength=0.1309743671596295 rxn_smarts="[C:1]([C@@:2]1([H:10])[C:3]([H:11])([H:12])[C:4]([H:13])([H:14])[O:5][C:6]1([H:15])[H:16])([H:7])([H:8])[H:9]>>[C:1]([C:2]([C:3](=[C:4]([H:13])[H:14])[H:12])([H:10])[H:11])([H:7])([H:8])[H:9].[O:5]=[C:6]([H:15])[H:16]"
C        1.89079053       0.24033511      -0.12439180
C        0.40593423       0.49498356      -0.09856650
C       -0.52409664      -0.23394195      -1.01386760
C       -1.88213573      -0.10215381      -0.86622914
O       -1.61522607      -0.71217494       1.38367486
C       -0.42613409      -0.44593071       1.64058763
H        2.45208559       0.93049627      -0.75873911
H        2.28781247       0.34814733       0.88735509
H        2.10911749      -0.77839569      -0.45102650
H        0.08266078       1.48555635       0.21058208
H        0.05995048       0.75150243      -1.46793163
H       -0.11989479      -1.14419852      -1.44501773
H       -2.55141952      -0.82356602      -1.31336727
H       -2.31835171       0.81638954      -0.49837678
H       -0.18578545       0.41975261       2.28083418
H        0.33469245      -1.24680157       1.63448022
16
Frame=3 idx=003248 GeodesicLength=0.1965026124005485 rxn_smarts="[C:1]([C@@:2]1([H:10])[C:3]([H:11])([H:12])[C:4]([H:13])([H:14])[O:5][C:6]1([H:15])[H:16])([H:7])([H:8])[H:9]>>[C:1]([C:2]([C:3](=[C:4]([H:13])[H:14])[H:12])([H:10])[H:11])([H:7])([H:8])[H:9].[O:5]=[C:6]([H:15])[H:16]"
C        1.89383696       0.24110908      -0.12596508
C        0.40978386       0.50372572      -0.10848325
C       -0.52174669      -0.22850351      -1.01934766
C       -1.88050989      -0.10405428      -0.84610410
O       -1.62166126      -0.72967111       1.37801889
C       -0.43117704      -0.45184816       1.63551610
H        2.45922975       0.92659861      -0.76158464
H        2.28793801       0.35359312       0.88640930
H        2.11068052      -0.77969857      -0.44718520
H        0.09100081       1.49646158       0.19911412
H        0.06949062       0.76366559      -1.48242577
H       -0.12230389      -1.14676361      -1.43845483
H       -2.55225488      -0.83022065      -1.28271553
H       -2.31629351       0.82686920      -0.50820298
H       -0.20835334       0.40854405       2.28855390
H        0.33233997      -1.24980706       1.63285673
16
Frame=4 idx=003248 GeodesicLength=0.2620676635424809 rxn_smarts="[C:1]([C@@:2]1([H:10])[C:3]([H:11])([H:12])[C:4]([H:13])([H:14])[O:5][C:6]1([H:15])[H:16])([H:7])([H:8])[H:9]>>[C:1]([C:2]([C:3](=[C:4]([H:13])[H:14])[H:12])([H:10])[H:11])([H:7])([H:8])[H:9].[O:5]=[C:6]([H:15])[H:16]"
C        1.89676642       0.24190985      -0.12758087
C        0.41359452       0.51249524      -0.11851216
C       -0.51965266      -0.22316685      -1.02461010
C       -1.87866956      -0.10545271      -0.82587627
O       -1.62776169      -0.74768376       1.37251834
C       -0.43609544      -0.45772828       1.63066879
H        2.46625324       0.92252487      -0.76463176
H        2.28801494       0.35931816       0.88533486
H        2.11205297      -0.78102742      -0.44315671
H        0.09940299       1.50748756       0.18726201
H        0.07925299       0.77553171      -1.49714239
H       -0.12497045      -1.14932565      -1.43139591
H       -2.55277227      -0.83576137      -1.25288836
H       -2.31454344       0.83652311      -0.51792639
H       -0.23111942       0.39697691       2.29636966
H        0.33024685      -1.25262136       1.63156725
16
Frame=5 idx=003248 GeodesicLength=0.3276706309429014 rxn_smarts="[C:1]([C@@:2]1([H:10])[C:3]([H:11])([H:12])[C:4]([H:13])([H:14])[O:5][C:6]1([H:15])[H:16])([H:7])([H:8])[H:9]>>[C:1]([C:2]([C:3](=[C:4]([H:13])[H:14])[H:12])([H:10])[H:11])([H:7])([H:8])[H:9].[O:5]=[C:6]([H:15])[H:16]"
C        1.89958215       0.24273906      -0.12922895
C        0.41736895       0.52129539      -0.12866112
C       -0.51780921      -0.21793109      -1.02966033
C       -1.87662564      -0.10635692      -0.80554586
O       -1.63351728      -0.76620331       1.36713969
C       -0.44089624      -0.46357549       1.62604985
H        2.47316420       0.91827518      -0.76786127
H        2.28804250       0.36531944       0.88414510
H        2.11323948      -0.78237902      -0.43893160
H        0.10787257       1.51864168       0.17500695
H        0.08923839       0.78710309      -1.51209225
H       -0.12787868      -1.15185700      -1.42388572
H       -2.55301622      -0.84025237      -1.22382573
H       -2.31308354       0.84540779      -0.52754904
H       -0.25408559       0.38502329       2.30429035
H        0.32840415      -1.25524974       1.63060991
16
Frame=6 idx=003248 GeodesicLength=0.39329659777100145 rxn_smarts="[C:1]([C@@:2]1([H:10])[C:3]([H:11])([H:12])[C:4]([H:13])([H:14])[O:5][C:6]1([H:15])[H:16])([H:7])([H:8])[H:9]>>[C:1]([C:2]([C:3](=[C:4]([H:13])[H:14])[H:12])([H:10])[H:11])([H:7])([H:8])[H:9].[O:5]=[C:6]([H:15])[H:16]"
C        1.90227771       0.24360363      -0.13090806
C        0.42110888       0.53012264      -0.13894161
C       -0.51620114      -0.21279657      -1.03448897
C       -1.87437306      -0.10677685      -0.78509629
O       -1.63893128      -0.78519999       1.36184899
C       -0.44560202      -0.46938983       1.62165088
H        2.47996487       0.91385409      -0.77125704
H        2.28799724       0.37159715       0.88283236
H        2.11423601      -0.78372845      -0.43450741
H        0.11641503       1.52990968       0.16232129
H        0.09946390       0.79836802      -1.52727602
H       -0.13100737      -1.15431985      -1.41594961
H       -2.55300753      -0.84374637      -1.19544385
H       -2.31186137       0.85356249      -0.53706573
H       -0.27725355       0.37262985       2.31231941
H        0.32677369      -1.25768963       1.62996166
16
Frame=7 idx=003248 GeodesicLength=0.45894622741984936 rxn_smarts="[C:1]([C@@:2]1([H:10])[C:3]([H:11])([H:12])[C:4]([H:13])([H:14])[O:5][C:6]1([H:15])[H:16])([H:7])([H:8])[H:9]>>[C:1]([C:2]([C:3](=[C:4]([H:13])[H:14])[H:12])([H:10])[H:11])([H:7])([H:8])[H:9].[O:5]=[C:6]([H:15])[H:16]"
C        1.90485735       0.24450464      -0.13260337
C        0.42481415       0.53898059      -0.14935729
C       -0.51482935      -0.20776980      -1.03910227
C       -1.87192945      -0.10673125      -0.76453449
O       -1.64400476      -0.80460661       1.35663744
C       -0.45021224      -0.47516840       1.61749608
H        2.48665873       0.90928555      -0.77477872
H        2.28788581       0.37812241       0.88142361
H        2.11505496      -0.78507230      -0.42989936
H        0.12502767       1.54130506       0.14919317
H        0.10991691       0.80933055      -1.54270593
H       -0.13434091      -1.15670056      -1.40764886
H       -2.55278002      -0.84630858      -1.16772007
H       -2.31088618       0.86101904      -0.54649893
H       -0.30056729       0.35977736       2.32048259
H        0.32533461      -1.25996771       1.62961641
16
Frame=8 idx=003248 GeodesicLength=0.5245982990846383 rxn_smarts="[C:1]([C@@:2]1([H:10])[C:3]([H:11])([H:12])[C:4]([H:13])([H:14])[O:5][C:6]1([H:15])[H:16])([H:7])([H:8])[H:9]>>[C:1]([C:2]([C:3](=[C:4]([H:13])[H:14])[H:12])([H:10])[H:11])([H:7])([H:8])[H:9].[O:5]=[C:6]([H:15])[H:16]"
C        1.90731651       0.24544670      -0.13430846
C        0.42848425       0.54786615      -0.15991526
C       -0.51368555      -0.20285439      -1.04349401
C       -1.86929747      -0.10623978      -0.74385573
O       -1.64875272      -0.82433838       1.35149571
C       -0.45473982      -0.48090332       1.61359627
H        2.49324462       0.90459574      -0.77838751
H        2.28769379       0.38486698       0.87992642
H        2.11570028      -0.78638785      -0.42512946
H        0.13370897       1.55281825       0.13560450
H        0.12060041       0.81998350      -1.55838255
H       -0.13785852      -1.15897216      -1.39903025
H       -2.55234455      -0.84800091      -1.14060255
H       -2.31013640       0.86779444      -0.55586509
H       -0.32397506       0.34642765       2.32880106
H        0.32404127      -1.26210262       1.62954690
16
Frame=9 idx=003248 GeodesicLength=0.5902685844311882 rxn_smarts="[C:1]([C@@:2]1([H:10])[C:3]([H:11])([H:12])[C:4]([H:13])([H:14])[O:5][C:6]1([H:15])[H:16])([H:7])([H:8])[H:9]>>[C:1]([C:2]([C:3](=[C:4]([H:13])[H:14])[H:12])([H:10])[H:11])([H:7])([H:8])[H:9].[O:5]=[C:6]([H:15])[H:16]"
C        1.90965439       0.24643574      -0.13601680
C        0.43212144       0.55678716      -0.17062856
C       -0.51276319      -0.19803754      -1.04767219
C       -1.86647877      -0.10529069      -0.72305434
O       -1.65316508      -0.84439877       1.34638046
C       -0.45919402      -0.48660732       1.60994634
H        2.49973256       0.89976368      -0.78208974
H        2.28741094       0.39186056       0.87834473
H        2.11616582      -0.78767457      -0.42016418
H        0.14246548       1.56445749       0.12153052
H        0.13153043       0.83033038      -1.57432195
H       -0.14155306      -1.16111898      -1.39010703
H       -2.55172103      -0.84886186      -1.11400912
H       -2.30958999       0.87392309      -0.56515779
H       -0.34750016       0.33253424       2.33728156
H        0.32288426      -1.26410261       1.62973810
16
Frame=10 idx=003248 GeodesicLength=0.6559479794264202 rxn_smarts="[C:1]([C@@:2]1([H:10])[C:3]([H:11])([H:12])[C:4]([H:13])([H:14])[O:5][C:6]1([H:15])[H:16])([H:7])([H:8])[H:9]>>[C:1]([C:2]([C:3](=[C:4]([H:13])[H:14])[H:12])([H:10])[H:11])([H:7])([H:8])[H:9].[O:5]=[C:6]([H:15])[H:16]"
C        1.91186803       0.24747741      -0.13771921
C        0.43572411       0.56574310      -0.18150647
C       -0.51205923      -0.19332411      -1.05163678
C       -1.86347986      -0.10389605      -0.70213105
O       -1.65725748      -0.86470488       1.34127959
C       -0.46358232      -0.49227558       1.60655770
H        2.50612138       0.89481770      -0.78584600
H        2.28702675       0.39908207       0.87669347
H        2.11645947      -0.78891551      -0.41501802
H        0.15129246       1.57622224       0.10694991
H        0.14270900       0.84036304      -1.59053564
H       -0.14541251      -1.16313350      -1.38090700
H       -2.55091992      -0.84893493      -1.08790937
H       -2.30923504       0.87941171      -0.57437812
H       -0.37108186       0.31805911       2.34594278
H        0.32182704      -1.26599181       1.63016421
16
Frame=11 idx=003248 GeodesicLength=0.7216077559109091 rxn_smarts="[C:1]([C@@:2]1([H:10])[C:3]([H:11])([H:12])[C:4]([H:13])([H:14])[O:5][C:6]1([H:15])[H:16])([H:7])([H:8])[H:9]>>[C:1]([C:2]([C:3](=[C:4]([H:13])[H:14])[H:12])([H:10])[H:11])([H:7])([H:8])[H:9].[O:5]=[C:6]([H:15])[H:16]"
C        1.91395019       0.24858187      -0.13940835
C        0.43928955       0.57473069      -0.19255827
C       -0.51156578      -0.18871569      -1.05538162
C       -1.86030395      -0.10207362      -0.68109179
O       -1.66106275      -0.88513895       1.33618998
C       -0.46791585      -0.49789831       1.60344076
H        2.51240746       0.88978629      -0.78962013
H        2.28652210       0.40651608       0.87497872
H        2.11658321      -0.79008440      -0.40970430
H        0.16018409       1.58809633       0.09184112
H        0.15414602       0.85006673      -1.60702189
H       -0.14941937      -1.16500068      -1.37146786
H       -2.54993914      -0.84827883      -1.06226851
H       -2.30905873       0.88426469      -0.58353714
H       -0.39463307       0.30295392       2.35482890
H        0.32081602      -1.26780615       1.63078039
16
Frame=12 idx=003248 GeodesicLength=0.7872734964957028 rxn_smarts="[C:1]([C@@:2]1([H:10])[C:3]([H:11])([H:12])[C:4]([H:13])([H:14])[O:5][C:6]1([H:15])[H:16])([H:7])([H:8])[H:9]>>[C:1]([C:2]([C:3](=[C:4]([H:13])[H:14])[H:12])([H:10])[H:11])([H:7])([H:8])[H:9].[O:5]=[C:6]([H:15])[H:16]"
C        1.91590129       0.24975437      -0.14107675
C        0.44282020       0.58375887      -0.20380207
C       -0.51128084      -0.18420062      -1.05892248
C       -1.85695141      -0.09980718      -0.65993591
O       -1.66456938      -0.90570954       1.33106417
C       -0.47220087      -0.50348599       1.60059051
H        2.51860251       0.88465122      -0.79341367
H        2.28588830       0.41419183       0.87321131
H        2.11653514      -0.79118481      -0.40418953
H        0.16914567       1.60009601       0.07617091
H        0.16585712       0.85944220      -1.62381112
H       -0.15357215      -1.16672061      -1.36178486
H       -2.54879405      -0.84690871      -1.03702577
H       -2.30904593       0.88849932      -0.59258867
H       -0.41818269       0.28717558       2.36393682
H        0.31984709      -1.26955192       1.63157713
16
Frame=13 idx=003248 GeodesicLength=0.8529326548922131 rxn_smarts="[C:1]([C@@:2]1([H:10])[C:3]([H:11])([H:12])[C:4]([H:13])([H:14])[O:5][C:6]1([H:15])[H:16])([H:7])([H:8])[H:9]>>[C:1]([C:2]([C:3](=[C:4]([H:13])[H:14])[H:12])([H:10])[H:11])([H:7])([H:8])[H:9].[O:5]=[C:6]([H:15])[H:16]"
C        1.91771630       0.25100090      -0.14271714
C        0.44631489       0.59282398      -0.21525014
C       -0.51119836      -0.17978192      -1.06225831
C       -1.85342585      -0.09711665      -0.63866948
O       -1.66781126      -0.92631791       1.32589971
C       -0.47644998      -0.50902680       1.59801932
H        2.52470732       0.87944314      -0.79718485
H        2.28510565       0.42208353       0.87140325
H        2.11632309      -0.79219555      -0.39849863
H        0.17817244       1.61221064       0.05991439
H        0.17785364       0.86847800      -1.64090963
H       -0.15785223      -1.16828179      -1.35190112
H       -2.54748386      -0.84487421      -1.01215638
H       -2.30917914       0.89211278      -0.60150352
H       -0.44166820       0.27069786       2.37328931
H        0.31887556      -1.27125602       1.63252323
16
Frame=14 idx=003248 GeodesicLength=0.9186023847315283 rxn_smarts="[C:1]([C@@:2]1([H:10])[C:3]([H:11])([H:12])[C:4]([H:13])([H:14])[O:5][C:6]1([H:15])[H:16])([H:7])([H:8])[H:9]>>[C:1]([C:2]([C:3](=[C:4]([H:13])[H:14])[H:12])([H:10])[H:11])([H:7])([H:8])[H:9].[O:5]=[C:6]([H:15])[H:16]"
C        1.91939468       0.25233346      -0.14431691
C        0.44977025       0.60193451      -0.22692201
C       -0.51132108      -0.17545416      -1.06540864
C       -1.84973558      -0.09398786      -0.61730705
O       -1.67079056      -0.94693866       1.32065644
C       -0.48065992      -0.51452774       1.59572716
H        2.53072556       0.87414431      -0.80093893
H        2.28416766       0.43024911       0.86956957
H        2.11594724      -0.79312067      -0.39257533
H        0.18725916       1.62445477       0.04303435
H        0.19014596       0.87716103      -1.65835146
H       -0.16226430      -1.16969995      -1.34181350
H       -2.54602809      -0.84219026      -0.98763057
H       -2.30944904       0.89514131      -0.61025853
H       -0.46506346       0.25344744       2.38293807
H        0.31790152      -1.27294664       1.63359733
16
Frame=15 idx=003248 GeodesicLength=0.9842763360016684 rxn_smarts="[C:1]([C@@:2]1([H:10])[C:3]([H:11])([H:12])[C:4]([H:13])([H:14])[O:5][C:6]1([H:15])[H:16])([H:7])([H:8])[H:9]>>[C:1]([C:2]([C:3](=[C:4]([H:13])[H:14])[H:12])([H:10])[H:11])([H:7])([H:8])[H:9].[O:5]=[C:6]([H:15])[H:16]"
C        1.92091703       0.25376673      -0.14588574
C        0.45319439       0.61108353      -0.23884180
C       -0.51162716      -0.17119933      -1.06835548
C       -1.84584977      -0.09041476      -0.59581681
O       -1.67350408      -0.96758645       1.31527750
C       -0.48486202      -0.52000322       1.59368464
H        2.53666123       0.86873844      -0.80468454
H        2.28302563       0.43871418       0.86767223
H        2.11537418      -0.79392153      -0.38639334
H        0.19642890       1.63679257       0.02547655
H        0.20279151       0.88546892      -1.67613068
H       -0.16679936      -1.17094056      -1.33147057
H       -2.54440476      -0.83884723      -0.96336444
H       -2.30978322       0.89757154      -0.61873334
H       -0.48844578       0.23538162       2.39280110
H        0.31688327      -1.27460445       1.63476473
16
Frame=16 idx=003248 GeodesicLength=1.0499769843035534 rxn_smarts="[C:1]([C@@:2]1([H:10])[C:3]([H:11])([H:12])[C:4]([H:13])([H:14])[O:5][C:6]1([H:15])[H:16])([H:7])([H:8])[H:9]>>[C:1]([C:2]([C:3](=[C:4]([H:13])[H:14])[H:12])([H:10])[H:11])([H:7])([H:8])[H:9].[O:5]=[C:6]([H:15])[H:16]"
C        1.92229446       0.25531121      -0.14739849
C        0.45657884       0.62028018      -0.25102812
C       -0.51213156      -0.16703048      -1.07113211
C       -1.84179847      -0.08640490      -0.57424038
O       -1.67598276      -0.98816666       1.30975750
C       -0.48904200      -0.52544496       1.59191867
H        2.54252231       0.86324267      -0.80838756
H        2.28169083       0.44750740       0.86576084
H        2.11463513      -0.79460994      -0.37992767
H        0.20565707       1.64925485       0.00721116
H        0.21577620       0.89338479      -1.69429648
H       -0.17145501      -1.17204358      -1.32092027
H       -2.54265059      -0.83488960      -0.93938005
H       -2.31020507       0.89945595      -0.62691532
H       -0.51170825       0.21644509       2.40297484
H        0.31581888      -1.27629202       1.63600344
