14
Frame=0 idx=002140 GeodesicLength=0.0 rxn_smarts="[C:1]([C@@:2]1([H:10])[C:3]([H:11])([H:12])[C@@:4]2([H:13])[O:5][C@@:6]12[H:14])([H:7])([H:8])[H:9]>>[C:1]([C@@:2]1([H:10])[C:3]([H:11])([H:12])[O:5][C@@:6]1([C:4][H:13])[H:14])([H:7])([H:8])[H:9]"
C        1.60007170       0.55143535       0.43693990
C        0.35380312       0.33583132      -0.40361757
C       -0.05218132      -1.13546477      -0.55908698
C       -1.94086572      -0.24054688      -0.46742832
O       -1.18743268      -0.73450917       0.84459540
C       -0.96881236       0.58511554       0.26618554
H        1.49937457       0.07183073       1.41304621
H        1.77276582       1.61669712       0.59995030
H        2.48629328       0.14259476      -0.05272841
H        0.42542184       0.83867167      -1.37030018
H        0.47372421      -1.85036620       0.07287494
H       -0.27823118      -1.53150193      -1.53862085
H       -2.98069684      -0.05850493      -0.17773532
H       -1.20323442       1.40871742       0.93592532
14
Frame=1 idx=002140 GeodesicLength=0.0241785225643045 rxn_smarts="[C:1]([C@@:2]1([H:10])[C:3]([H:11])([H:12])[C@@:4]2([H:13])[O:5][C@@:6]12[H:14])([H:7])([H:8])[H:9]>>[C:1]([C@@:2]1([H:10])[C:3]([H:11])([H:12])[O:5][C@@:6]1([C:4][H:13])[H:14])([H:7])([H:8])[H:9]"
C        1.60063904       0.55089598       0.43706926
C        0.35393667       0.33604196      -0.40252746
C       -0.06004614      -1.13414583      -0.55681222
C       -1.93601953      -0.24338621      -0.46477749
O       -1.18824373      -0.73004140       0.84930356
C       -0.96964909       0.58844311       0.26808032
H        1.50053758       0.07171825       1.41343590
H        1.77506025       1.61601589       0.59957432
H        2.48589604       0.14052916      -0.05311619
H        0.42610213       0.83887515      -1.36908878
H        0.47103012      -1.85259979       0.06691379
H       -0.27654900      -1.52755025      -1.54009390
H       -2.97866198      -0.06983173      -0.18182818
H       -1.20403235       1.41503569       0.93386708
14
Frame=2 idx=002140 GeodesicLength=0.04835490337434112 rxn_smarts="[C:1]([C@@:2]1([H:10])[C:3]([H:11])([H:12])[C@@:4]2([H:13])[O:5][C@@:6]12[H:14])([H:7])([H:8])[H:9]>>[C:1]([C@@:2]1([H:10])[C:3]([H:11])([H:12])[O:5][C@@:6]1([C:4][H:13])[H:14])([H:7])([H:8])[H:9]"
C        1.60117838       0.55035872       0.43720040
C        0.35406263       0.33621276      -0.40144857
C       -0.06783952      -1.13282276      -0.55453939
C       -1.93120916      -0.24613086      -0.46212520
O       -1.18905275      -0.72561116       0.85389933
C       -0.97047232       0.59172634       0.26993816
H        1.50168020       0.07162735       1.41382304
H        1.77728514       1.61531969       0.59918290
H        2.48547860       0.13850130      -0.05346783
H        0.42675323       0.83902607      -1.36788236
H        0.46833121      -1.85476451       0.06091948
H       -0.27491009      -1.52358891      -1.54142778
H       -2.97652299      -0.08109018      -0.18588407
H       -1.20476258       1.42123613       0.93181187
14
Frame=3 idx=002140 GeodesicLength=0.07252006630696543 rxn_smarts="[C:1]([C@@:2]1([H:10])[C:3]([H:11])([H:12])[C@@:4]2([H:13])[O:5][C@@:6]12[H:14])([H:7])([H:8])[H:9]>>[C:1]([C@@:2]1([H:10])[C:3]([H:11])([H:12])[O:5][C@@:6]1([C:4][H:13])[H:14])([H:7])([H:8])[H:9]"
C        1.60171173       0.54984024       0.43733529
C        0.35420080       0.33635349      -0.40038702
C       -0.07556182      -1.13152780      -0.55228497
C       -1.92645872      -0.24879650      -0.45946656
O       -1.18990182      -0.72123391       0.85840235
C       -0.97129762       0.59498604       0.27177193
H        1.50279580       0.07155805       1.41421907
H        1.77947163       1.61465682       0.59879139
H        2.48508334       0.13651473      -0.05379642
H        0.42742487       0.83914937      -1.36669773
H        0.46561432      -1.85691628       0.05487410
H       -0.27330452      -1.51966824      -1.54266097
H       -2.97432479      -0.09228977      -0.18988321
H       -1.20545319       1.42737375       0.92978277
14
Frame=4 idx=002140 GeodesicLength=0.09667977374609338 rxn_smarts="[C:1]([C@@:2]1([H:10])[C:3]([H:11])([H:12])[C@@:4]2([H:13])[O:5][C@@:6]12[H:14])([H:7])([H:8])[H:9]>>[C:1]([C@@:2]1([H:10])[C:3]([H:11])([H:12])[O:5][C@@:6]1([C:4][H:13])[H:14])([H:7])([H:8])[H:9]"
C        1.60223319       0.54933329       0.43747548
C        0.35434543       0.33646268      -0.39933958
C       -0.08321505      -1.13024928      -0.55004392
C       -1.92176047      -0.25137999      -0.45680147
O       -1.19077422      -0.71689870       0.86281419
C       -0.97212091       0.59821991       0.27357718
H        1.50388888       0.07150516       1.41462221
H        1.78161459       1.61400964       0.59839751
H        2.48469714       0.13456392      -0.05409734
H        0.42810333       0.83924005      -1.36552870
H        0.46288237      -1.85903904       0.04878223
H       -0.27173769      -1.51576536      -1.54379014
H       -2.97205686      -0.10344773      -0.19382827
H       -1.20609973       1.43344544       0.92776061
14
Frame=5 idx=002140 GeodesicLength=0.12084057908640071 rxn_smarts="[C:1]([C@@:2]1([H:10])[C:3]([H:11])([H:12])[C@@:4]2([H:13])[O:5][C@@:6]12[H:14])([H:7])([H:8])[H:9]>>[C:1]([C@@:2]1([H:10])[C:3]([H:11])([H:12])[O:5][C@@:6]1([C:4][H:13])[H:14])([H:7])([H:8])[H:9]"
C        1.60274402       0.54883662       0.43762084
C        0.35449691       0.33654041      -0.39830425
C       -0.09080239      -1.12898614      -0.54781364
C       -1.91711292      -0.25388322      -0.45412986
O       -1.19166905      -0.71259983       0.86713878
C       -0.97294155       0.60143046       0.27535254
H        1.50496428       0.07145989       1.41502758
H        1.78371240       1.61337555       0.59800893
H        2.48432106       0.13265502      -0.05437533
H        0.42879134       0.83929714      -1.36437216
H        0.46012879      -1.86113285       0.04264735
H       -0.27021158      -1.51187433      -1.54481782
H       -2.96971931      -0.11457735      -0.19771957
H       -1.20670199       1.43945864       0.92573662
14
Frame=6 idx=002140 GeodesicLength=0.14500389849153747 rxn_smarts="[C:1]([C@@:2]1([H:10])[C:3]([H:11])([H:12])[C@@:4]2([H:13])[O:5][C@@:6]12[H:14])([H:7])([H:8])[H:9]>>[C:1]([C@@:2]1([H:10])[C:3]([H:11])([H:12])[O:5][C@@:6]1([C:4][H:13])[H:14])([H:7])([H:8])[H:9]"
C        1.60324520       0.54835009       0.43777193
C        0.35465589       0.33658797      -0.39728086
C       -0.09832477      -1.12773743      -0.54559584
C       -1.91251562      -0.25630783      -0.45145123
O       -1.19258322      -0.70833468       0.87137998
C       -0.97375940       0.60461997       0.27709783
H        1.50601939       0.07142744       1.41543874
H        1.78576883       1.61275518       0.59762236
H        2.48395566       0.13077952      -0.05462479
H        0.42949096       0.83932222      -1.36322830
H        0.45735275      -1.86319990       0.03646592
H       -0.26873029      -1.50799100      -1.54575076
H       -2.96731273      -0.12568910      -0.20155392
H       -1.20726264       1.44541754       0.92370893
14
Frame=7 idx=002140 GeodesicLength=0.16917401796889922 rxn_smarts="[C:1]([C@@:2]1([H:10])[C:3]([H:11])([H:12])[C@@:4]2([H:13])[O:5][C@@:6]12[H:14])([H:7])([H:8])[H:9]>>[C:1]([C@@:2]1([H:10])[C:3]([H:11])([H:12])[O:5][C@@:6]1([C:4][H:13])[H:14])([H:7])([H:8])[H:9]"
C        1.60373784       0.54787255       0.43792891
C        0.35482243       0.33660754      -0.39626851
C       -0.10578412      -1.12650090      -0.54339114
C       -1.90796812      -0.25865632      -0.44876453
O       -1.19351391      -0.70409907       0.87554197
C       -0.97457523       0.60779132       0.27881220
H        1.50705422       0.07140884       1.41585676
H        1.78778767       1.61214675       0.59723879
H        2.48360104       0.12892980      -0.05484240
H        0.43020345       0.83931732      -1.36209625
H        0.45455181      -1.86523972       0.03023650
H       -0.26729623      -1.50410898      -1.54659507
H       -2.96483778      -0.13679889      -0.20532798
H       -1.20778307       1.45132977       0.92167076
14
Frame=8 idx=002140 GeodesicLength=0.1933543519904829 rxn_smarts="[C:1]([C@@:2]1([H:10])[C:3]([H:11])([H:12])[C@@:4]2([H:13])[O:5][C@@:6]12[H:14])([H:7])([H:8])[H:9]>>[C:1]([C@@:2]1([H:10])[C:3]([H:11])([H:12])[O:5][C@@:6]1([C:4][H:13])[H:14])([H:7])([H:8])[H:9]"
C        1.60422319       0.54740321       0.43809274
C        0.35499659       0.33660151      -0.39526509
C       -0.11318174      -1.12527385      -0.54120039
C       -1.90346961      -0.26092877      -0.44606899
O       -1.19445877      -0.69989069       0.87962779
C       -0.97538913       0.61094635       0.28049700
H        1.50806762       0.07140909       1.41628483
H        1.78977777       1.61154891       0.59685344
H        2.48325578       0.12709737      -0.05502493
H        0.43093006       0.83928558      -1.36097280
H        0.45172242      -1.86725272       0.02395674
H       -0.26591396      -1.50022216      -1.54735577
H       -2.96229510      -0.14792490      -0.20904269
H       -1.20826512       1.45720107       0.91961812
14
Frame=9 idx=002140 GeodesicLength=0.21754184725213999 rxn_smarts="[C:1]([C@@:2]1([H:10])[C:3]([H:11])([H:12])[C@@:4]2([H:13])[O:5][C@@:6]12[H:14])([H:7])([H:8])[H:9]>>[C:1]([C@@:2]1([H:10])[C:3]([H:11])([H:12])[O:5][C@@:6]1([C:4][H:13])[H:14])([H:7])([H:8])[H:9]"
C        1.60470081       0.54694252       0.43826387
C        0.35517803       0.33656968      -0.39427048
C       -0.12051675      -1.12405796      -0.53902315
C       -1.89901970      -0.26312851      -0.44336568
O       -1.19541873      -0.69571319       0.88363812
C       -0.97620093       0.61408277       0.28215476
H        1.50906060       0.07142894       1.41672419
H        1.79173916       1.61096272       0.59646524
H        2.48292000       0.12528508      -0.05517419
H        0.43166755       0.83922711      -1.35985871
H        0.44886866      -1.86923853       0.01762907
H       -0.26458556      -1.49633522      -1.54803480
H       -2.95968371      -0.15905408      -0.21270286
H       -1.20870944       1.46302869       0.91755462
14
Frame=10 idx=002140 GeodesicLength=0.24173377977468835 rxn_smarts="[C:1]([C@@:2]1([H:10])[C:3]([H:11])([H:12])[C@@:4]2([H:13])[O:5][C@@:6]12[H:14])([H:7])([H:8])[H:9]>>[C:1]([C@@:2]1([H:10])[C:3]([H:11])([H:12])[O:5][C@@:6]1([C:4][H:13])[H:14])([H:7])([H:8])[H:9]"
C        1.60517042       0.54649096       0.43844233
C        0.35536611       0.33651141      -0.39328401
C       -0.12778858      -1.12285462      -0.53685802
C       -1.89461789      -0.26525871      -0.44065558
O       -1.19639463      -0.69157066       0.88757316
C       -0.97701009       0.61719709       0.28378813
H        1.51003493       0.07146964       1.41717489
H        1.79367202       1.61038845       0.59607265
H        2.48259346       0.12349688      -0.05529240
H        0.43241193       0.83914091      -1.35875313
H        0.44599420      -1.87119495       0.01125634
H       -0.26331384      -1.49245178      -1.54863237
H       -2.95700221      -0.17017261      -0.21631609
H       -1.20911582       1.46880800       0.91548412
14
Frame=11 idx=002140 GeodesicLength=0.26593212240486 rxn_smarts="[C:1]([C@@:2]1([H:10])[C:3]([H:11])([H:12])[C@@:4]2([H:13])[O:5][C@@:6]12[H:14])([H:7])([H:8])[H:9]>>[C:1]([C@@:2]1([H:10])[C:3]([H:11])([H:12])[O:5][C@@:6]1([C:4][H:13])[H:14])([H:7])([H:8])[H:9]"
C        1.60563486       0.54604839       0.43862922
C        0.35556154       0.33642924      -0.39230491
C       -0.13499943      -1.12166351      -0.53470598
C       -1.89026535      -0.26732033      -0.43793795
O       -1.19738769      -0.68745937       0.89143795
C       -0.97781859       0.62029328       0.28539806
H        1.51099152       0.07153039       1.41763843
H        1.79558386       1.60982723       0.59567610
H        2.48227815       0.12172670      -0.05538005
H        0.43316688       0.83903118      -1.35765508
H        0.44309620      -1.87312431       0.00483691
H       -0.26209813      -1.48857082      -1.54915530
H       -2.95425426      -0.18129620      -0.21988058
H       -1.20948956       1.47454813       0.91340320
14
Frame=12 idx=002140 GeodesicLength=0.29014004304852853 rxn_smarts="[C:1]([C@@:2]1([H:10])[C:3]([H:11])([H:12])[C@@:4]2([H:13])[O:5][C@@:6]12[H:14])([H:7])([H:8])[H:9]>>[C:1]([C@@:2]1([H:10])[C:3]([H:11])([H:12])[O:5][C@@:6]1([C:4][H:13])[H:14])([H:7])([H:8])[H:9]"
C        1.60609028       0.54561205       0.43882374
C        0.35576268       0.33632486      -0.39133264
C       -0.14214847      -1.12047893      -0.53256489
C       -1.88595826      -0.26931582      -0.43521139
O       -1.19838801      -0.68337596       0.89523393
C       -0.97862407       0.62337109       0.28698278
H        1.51192956       0.07160886       1.41811321
H        1.79747269       1.60927210       0.59527342
H        2.48196688       0.11996906      -0.05543245
H        0.43392816       0.83890124      -1.35656231
H        0.44017264      -1.87502255      -0.00162635
H       -0.26094206      -1.48468243      -1.54960350
H       -2.95143284      -0.19243327      -0.22339648
H       -1.20982917       1.48024969       0.91130292
14
Frame=13 idx=002140 GeodesicLength=0.31435211055442397 rxn_smarts="[C:1]([C@@:2]1([H:10])[C:3]([H:11])([H:12])[C@@:4]2([H:13])[O:5][C@@:6]12[H:14])([H:7])([H:8])[H:9]>>[C:1]([C@@:2]1([H:10])[C:3]([H:11])([H:12])[O:5][C@@:6]1([C:4][H:13])[H:14])([H:7])([H:8])[H:9]"
C        1.60653680       0.54518460       0.43902325
C        0.35596916       0.33619502      -0.39036800
C       -0.14923502      -1.11930746      -0.53043122
C       -1.88169476      -0.27124496      -0.43248073
O       -1.19940421      -0.67932648       0.89895989
C       -0.97942638       0.62642735       0.28854411
H        1.51285461       0.07169547       1.41859164
H        1.79932587       1.60872820       0.59487493
H        2.48166268       0.11824447      -0.05546589
H        0.43469428       0.83874615      -1.35547668
H        0.43722630      -1.87688950      -0.00812012
H       -0.25984337      -1.48080323      -1.54997335
H       -2.94853559      -0.20355191      -0.22687611
H       -1.21013035       1.48590228       0.90919829
14
Frame=14 idx=002140 GeodesicLength=0.3385666009508225 rxn_smarts="[C:1]([C@@:2]1([H:10])[C:3]([H:11])([H:12])[C@@:4]2([H:13])[O:5][C@@:6]12[H:14])([H:7])([H:8])[H:9]>>[C:1]([C@@:2]1([H:10])[C:3]([H:11])([H:12])[O:5][C@@:6]1([C:4][H:13])[H:14])([H:7])([H:8])[H:9]"
C        1.60697798       0.54476704       0.43923038
C        0.35618320       0.33603996      -0.38941135
C       -0.15626170      -1.11815003      -0.52830849
C       -1.87747882      -0.27311185      -0.42974543
O       -1.20043587      -0.67530815       0.90261928
C       -0.98022619       0.62946388       0.29008261
H        1.51376696       0.07179660       1.41907901
H        1.80114958       1.60819739       0.59448339
H        2.48137047       0.11655003      -0.05547619
H        0.43546950       0.83856416      -1.35439989
H        0.43425467      -1.87872821      -0.01465059
H       -0.25880719      -1.47693158      -1.55027429
H       -2.94556820      -0.21466314      -0.23031395
H       -1.21039440       1.49151390       0.90708550
14
Frame=15 idx=002140 GeodesicLength=0.3627880346449235 rxn_smarts="[C:1]([C@@:2]1([H:10])[C:3]([H:11])([H:12])[C@@:4]2([H:13])[O:5][C@@:6]12[H:14])([H:7])([H:8])[H:9]>>[C:1]([C@@:2]1([H:10])[C:3]([H:11])([H:12])[O:5][C@@:6]1([C:4][H:13])[H:14])([H:7])([H:8])[H:9]"
C        1.60741302       0.54435762       0.43944536
C        0.35640347       0.33586219      -0.38846025
C       -0.16322883      -1.11700339      -0.52619616
C       -1.87330802      -0.27491757      -0.42700331
O       -1.20147955      -0.67132058       0.90621514
C       -0.98102383       0.63248120       0.29160025
H        1.51466322       0.07191783       1.41957876
H        1.80295148       1.60767746       0.59408598
H        2.48108631       0.11487234      -0.05545680
H        0.43625182       0.83836020      -1.35332828
H        0.43125856      -1.88053781      -0.02122041
H       -0.25783404      -1.47305902      -1.55051018
H       -2.94252754      -0.22577661      -0.23371175
H       -1.21062606       1.49708613       0.90496164
14
Frame=16 idx=002140 GeodesicLength=0.3870131892855022 rxn_smarts="[C:1]([C@@:2]1([H:10])[C:3]([H:11])([H:12])[C@@:4]2([H:13])[O:5][C@@:6]12[H:14])([H:7])([H:8])[H:9]>>[C:1]([C@@:2]1([H:10])[C:3]([H:11])([H:12])[O:5][C@@:6]1([C:4][H:13])[H:14])([H:7])([H:8])[H:9]"
C        1.60784170       0.54395776       0.43966716
C        0.35662974       0.33566046      -0.38751523
C       -0.17013625      -1.11586971      -0.52409319
C       -1.86918151      -0.27666407      -0.42425690
O       -1.20253676      -0.66736677       0.90974715
C       -0.98181871       0.63547700       0.29309824
H        1.51554468       0.07205964       1.42008947
H        1.80472803       1.60717035       0.59368305
H        2.48081104       0.11321634      -0.05540996
H        0.43703979       0.83813250      -1.35226270
H        0.42823960      -1.88231755      -0.02782461
H       -0.25692558      -1.46919067      -1.55068184
H       -2.93941222      -0.23687814      -0.23707466
H       -1.21082356       1.50261286       0.90283400
