12
Frame=0 idx=001263 GeodesicLength=0.0 rxn_smarts="[C:1]([c:2]1[c:3]([H:10])[n:4]([H:11])[c:5]([H:12])[n:6]1)([H:7])([H:8])[H:9]>>[C:1]([C@:2]1([H:10])[C-:3]=[N+:4]([H:11])[C:5]([H:12])=[N:6]1)([H:7])([H:8])[H:9]"
C       -1.86914314      -0.09143266      -0.01036271
C       -0.37641118       0.00013352       0.05131544
C        0.40839568       1.19622895      -0.14020596
N        1.66517898       0.62695261      -0.20067215
C        1.60423664      -0.73397024      -0.14767859
N        0.40206315      -1.17165105       0.01126651
H       -2.31606242       0.88812294       0.15423716
H       -2.24985648      -0.80137116       0.72372401
H       -2.16461839      -0.44020735      -1.00039800
H       -0.10065673       0.72127404       1.04120731
H        2.51133409       1.16448863      -0.26286920
H        2.48553981      -1.35856825      -0.21956382
12
Frame=1 idx=001263 GeodesicLength=0.044240400065866915 rxn_smarts="[C:1]([c:2]1[c:3]([H:10])[n:4]([H:11])[c:5]([H:12])[n:6]1)([H:7])([H:8])[H:9]>>[C:1]([C@:2]1([H:10])[C-:3]=[N+:4]([H:11])[C:5]([H:12])=[N:6]1)([H:7])([H:8])[H:9]"
C       -1.86782111      -0.09357388      -0.01295960
C       -0.37608959       0.00021712       0.06892436
C        0.40935369       1.19184701      -0.13799867
N        1.66473612       0.62551299      -0.20538491
C        1.60314958      -0.73685361      -0.14928944
N        0.40308468      -1.17196318       0.02807120
H       -2.31923475       0.88454938       0.14809635
H       -2.25555268      -0.80472443       0.71635421
H       -2.15154145      -0.44209141      -1.00658850
H       -0.10353018       0.74634782       1.05651505
H        2.51155038       1.16282725      -0.26275989
H        2.48189530      -1.36209507      -0.24298016
12
Frame=2 idx=001263 GeodesicLength=0.0884943031304463 rxn_smarts="[C:1]([c:2]1[c:3]([H:10])[n:4]([H:11])[c:5]([H:12])[n:6]1)([H:7])([H:8])[H:9]>>[C:1]([C@:2]1([H:10])[C-:3]=[N+:4]([H:11])[C:5]([H:12])=[N:6]1)([H:7])([H:8])[H:9]"
C       -1.86620026      -0.09586870      -0.01556521
C       -0.37572483       0.00047156       0.08675620
C        0.41033313       1.18747441      -0.13555534
N        1.66425787       0.62401798      -0.20974753
C        1.60191086      -0.73979826      -0.15073526
N        0.40420130      -1.17211564       0.04525576
H       -2.32229621       0.88074997       0.14163711
H       -2.26088800      -0.80815371       0.70898530
H       -2.13793638      -0.44433843      -1.01262498
H       -0.10671664       0.77234628       1.07137457
H        2.51178127       1.16100545      -0.26220442
H        2.47727790      -1.36579091      -0.26757619
12
Frame=3 idx=001263 GeodesicLength=0.13276402422332434 rxn_smarts="[C:1]([c:2]1[c:3]([H:10])[n:4]([H:11])[c:5]([H:12])[n:6]1)([H:7])([H:8])[H:9]>>[C:1]([C@:2]1([H:10])[C-:3]=[N+:4]([H:11])[C:5]([H:12])=[N:6]1)([H:7])([H:8])[H:9]"
C       -1.86431523      -0.09827768      -0.01810564
C       -0.37533522       0.00087753       0.10461246
C        0.41131832       1.18313621      -0.13283284
N        1.66370575       0.62248437      -0.21406238
C        1.60044675      -0.74280235      -0.15266754
N        0.40536332      -1.17213643       0.06215950
H       -2.32522218       0.87673556       0.13526335
H       -2.26576925      -0.81179331       0.70159340
H       -2.12404831      -0.44664752      -1.01846441
H       -0.11008069       0.79896612       1.08574225
H        2.51199768       1.15903487      -0.26134372
H        2.47193906      -1.36957736      -0.29189445
12
Frame=4 idx=001263 GeodesicLength=0.177017756909493 rxn_smarts="[C:1]([c:2]1[c:3]([H:10])[n:4]([H:11])[c:5]([H:12])[n:6]1)([H:7])([H:8])[H:9]>>[C:1]([C@:2]1([H:10])[C-:3]=[N+:4]([H:11])[C:5]([H:12])=[N:6]1)([H:7])([H:8])[H:9]"
C       -1.86224419      -0.10071600      -0.02047014
C       -0.37495295       0.00137335       0.12220419
C        0.41227176       1.17886235      -0.12975097
N        1.66299489       0.62093424      -0.21881020
C        1.59861403      -0.74586896      -0.15614731
N        0.40647293      -1.17210167       0.07774887
H       -2.32799457       0.87254884       0.12963804
H       -2.27010581      -0.81584028       0.69410655
H       -2.11026800      -0.44848107      -1.02407419
H       -0.11340076       0.82567762       1.09963069
H        2.51213042       1.15693194      -0.26053899
H        2.46648225      -1.37332036      -0.31353654
12
Frame=5 idx=001263 GeodesicLength=0.2211227790916706 rxn_smarts="[C:1]([c:2]1[c:3]([H:10])[n:4]([H:11])[c:5]([H:12])[n:6]1)([H:7])([H:8])[H:9]>>[C:1]([C@:2]1([H:10])[C-:3]=[N+:4]([H:11])[C:5]([H:12])=[N:6]1)([H:7])([H:8])[H:9]"
C       -1.86003032      -0.10314587      -0.02264096
C       -0.37458048       0.00189904       0.13945402
C        0.41318039       1.17464836      -0.12628228
N        1.66210444       0.61939237      -0.22399418
C        1.59637903      -0.74896273      -0.16125226
N        0.40748877      -1.17205101       0.09178135
H       -2.33061889       0.86821778       0.12488272
H       -2.27391186      -0.82028486       0.68651648
H       -2.09674147      -0.44969868      -1.02944538
H       -0.11663362       0.85232253       1.11302047
H        2.51212527       1.15467553      -0.25995429
H        2.46123875      -1.37701245      -0.33208570
12
Frame=6 idx=001263 GeodesicLength=0.2653465188950964 rxn_smarts="[C:1]([c:2]1[c:3]([H:10])[n:4]([H:11])[c:5]([H:12])[n:6]1)([H:7])([H:8])[H:9]>>[C:1]([C@:2]1([H:10])[C-:3]=[N+:4]([H:11])[C:5]([H:12])=[N:6]1)([H:7])([H:8])[H:9]"
C       -1.85756562      -0.10569125      -0.02478102
C       -0.37418496       0.00256373       0.15676121
C        0.41411449       1.17045730      -0.12254887
N        1.66116747       0.61780376      -0.22889719
C        1.59392600      -0.75212750      -0.16629497
N        0.40857429      -1.17190292       0.10589868
H       -2.33312685       0.86372347       0.11990805
H       -2.27733317      -0.82476345       0.67903359
H       -2.08289165      -0.45121043      -1.03461472
H       -0.12026379       0.87977322       1.12587939
H        2.51214584       1.15226191      -0.25884598
H        2.45543795      -1.38088783      -0.35149818
12
Frame=7 idx=001263 GeodesicLength=0.30940579406525076 rxn_smarts="[C:1]([c:2]1[c:3]([H:10])[n:4]([H:11])[c:5]([H:12])[n:6]1)([H:7])([H:8])[H:9]>>[C:1]([C@:2]1([H:10])[C-:3]=[N+:4]([H:11])[C:5]([H:12])=[N:6]1)([H:7])([H:8])[H:9]"
C       -1.85508724      -0.10810036      -0.02660146
C       -0.37382159       0.00310950       0.17338902
C        0.41496893       1.16633058      -0.11834517
N        1.65992290       0.61622876      -0.23483596
C        1.59085218      -0.75534259      -0.17430647
N        0.40944076      -1.17190250       0.11724932
H       -2.33548895       0.85917678       0.11665884
H       -2.28017802      -0.82987193       0.67131859
H       -2.06980885      -0.45136168      -1.03956570
H       -0.12350731       0.90647693       1.13834022
H        2.51192776       1.14966404      -0.25852708
H        2.45077943      -1.38440753      -0.36477415
12
Frame=8 idx=001263 GeodesicLength=0.35350282642695335 rxn_smarts="[C:1]([c:2]1[c:3]([H:10])[n:4]([H:11])[c:5]([H:12])[n:6]1)([H:7])([H:8])[H:9]>>[C:1]([C@:2]1([H:10])[C-:3]=[N+:4]([H:11])[C:5]([H:12])=[N:6]1)([H:7])([H:8])[H:9]"
C       -1.85250429      -0.11048453      -0.02825910
C       -0.37346310       0.00363191       0.18972795
C        0.41580327       1.16222824      -0.11377747
N        1.65849576       0.61462492      -0.24108972
C        1.58733373      -0.75863386      -0.18363982
N        0.41023140      -1.17196245       0.12740289
H       -2.33774267       0.85456045       0.11406683
H       -2.28260462      -0.83523422       0.66357412
H       -2.05695897      -0.45102925      -1.04431881
H       -0.12682163       0.93326418       1.15036957
H        2.51160376       1.14687697      -0.25830154
H        2.44662737      -1.38784237      -0.37575489
12
Frame=9 idx=001263 GeodesicLength=0.3976029979636452 rxn_smarts="[C:1]([c:2]1[c:3]([H:10])[n:4]([H:11])[c:5]([H:12])[n:6]1)([H:7])([H:8])[H:9]>>[C:1]([C@:2]1([H:10])[C-:3]=[N+:4]([H:11])[C:5]([H:12])=[N:6]1)([H:7])([H:8])[H:9]"
C       -1.84972512      -0.11293747      -0.02984921
C       -0.37306884       0.00416931       0.20603248
C        0.41667838       1.15813723      -0.10888636
N        1.65699183       0.61300050      -0.24716685
C        1.58351830      -0.76194674      -0.19323957
N        0.41106181      -1.17200120       0.13735820
H       -2.33987969       0.84981114       0.11150102
H       -2.28468023      -0.84067308       0.65588226
H       -2.04395720      -0.45072955      -1.04888505
H       -0.13047892       0.96063144       1.16185411
H        2.51127447       1.14386912      -0.25779077
H        2.44226520      -1.39133068      -0.38681026
12
Frame=10 idx=001263 GeodesicLength=0.4417080351095699 rxn_smarts="[C:1]([c:2]1[c:3]([H:10])[n:4]([H:11])[c:5]([H:12])[n:6]1)([H:7])([H:8])[H:9]>>[C:1]([C@:2]1([H:10])[C-:3]=[N+:4]([H:11])[C:5]([H:12])=[N:6]1)([H:7])([H:8])[H:9]"
C       -1.84662052      -0.11557736      -0.03148383
C       -0.37259764       0.00483872       0.22260991
C        0.41766260       1.15404482      -0.10370763
N        1.65553789       0.61132441      -0.25248701
C        1.57958724      -0.76529883      -0.20184035
N        0.41207845      -1.17189506       0.14830739
H       -2.34187698       0.84484969       0.10818116
H       -2.28645110      -0.84598142       0.64836794
H       -2.03031488      -0.45113260      -1.05326621
H       -0.13481799       0.98919951       1.17262522
H        2.51106685       1.14062902      -0.25646249
H        2.43674608      -1.39500090      -0.40084410
12
Frame=11 idx=001263 GeodesicLength=0.4858108515412086 rxn_smarts="[C:1]([c:2]1[c:3]([H:10])[n:4]([H:11])[c:5]([H:12])[n:6]1)([H:7])([H:8])[H:9]>>[C:1]([C@:2]1([H:10])[C-:3]=[N+:4]([H:11])[C:5]([H:12])=[N:6]1)([H:7])([H:8])[H:9]"
C       -1.84344082      -0.11815786      -0.03293776
C       -0.37212687       0.00539543       0.23884834
C        0.41865049       1.14996851      -0.09806409
N        1.65388494       0.60963672      -0.25818187
C        1.57517760      -0.76868580      -0.21190081
N        0.41300259      -1.17190597       0.15785981
H       -2.34375435       0.83983715       0.10572020
H       -2.28782503      -0.85160778       0.64073942
H       -2.01699865      -0.45082394      -1.05748645
H       -0.13922592       1.01768706       1.18296150
H        2.51072709       1.13716393      -0.25554235
H        2.43192894      -1.39850743      -0.41201594
12
Frame=12 idx=001263 GeodesicLength=0.5299244737453176 rxn_smarts="[C:1]([c:2]1[c:3]([H:10])[n:4]([H:11])[c:5]([H:12])[n:6]1)([H:7])([H:8])[H:9]>>[C:1]([C@:2]1([H:10])[C-:3]=[N+:4]([H:11])[C:5]([H:12])=[N:6]1)([H:7])([H:8])[H:9]"
C       -1.84006074      -0.12080321      -0.03432947
C       -0.37161143       0.00593914       0.25506917
C        0.41971672       1.14589541      -0.09199822
N        1.65216934       0.60791834      -0.26364975
C        1.57049382      -0.77209911      -0.22205915
N        0.41398530      -1.17191685       0.16726498
H       -2.34550019       0.83469227       0.10331168
H       -2.28886467      -0.85733833       0.63311834
H       -2.00351036      -0.45049150      -1.06155405
H       -0.14405858       1.04674759       1.19269555
H        2.51040015       1.13347030      -0.25448829
H        2.42684062      -1.40201403      -0.42338077
12
Frame=13 idx=001263 GeodesicLength=0.5740671558463619 rxn_smarts="[C:1]([c:2]1[c:3]([H:10])[n:4]([H:11])[c:5]([H:12])[n:6]1)([H:7])([H:8])[H:9]>>[C:1]([C@:2]1([H:10])[C-:3]=[N+:4]([H:11])[C:5]([H:12])=[N:6]1)([H:7])([H:8])[H:9]"
C       -1.83641604      -0.12357158      -0.03570331
C       -0.37104158       0.00652457       0.27142148
C        0.42089663       1.14183064      -0.08550311
N        1.65045482       0.60616858      -0.26863958
C        1.56562329      -0.77552415      -0.23175523
N        0.41509874      -1.17186488       0.17708459
H       -2.34709757       0.82937287       0.10060175
H       -2.28958244      -0.86309557       0.62555768
H       -1.98960762      -0.45043870      -1.06546091
H       -0.14949308       1.07668237       1.20171341
H        2.51014490       1.12954129      -0.25302509
H        2.42101995      -1.40562545      -0.43629168
12
Frame=14 idx=001263 GeodesicLength=0.6182540861757109 rxn_smarts="[C:1]([c:2]1[c:3]([H:10])[n:4]([H:11])[c:5]([H:12])[n:6]1)([H:7])([H:8])[H:9]>>[C:1]([C@:2]1([H:10])[C-:3]=[N+:4]([H:11])[C:5]([H:12])=[N:6]1)([H:7])([H:8])[H:9]"
C       -1.83248200      -0.12647958      -0.03706797
C       -0.37041536       0.00716981       0.28796178
C        0.42220669       1.13778608      -0.07852467
N        1.64875556       0.60439171      -0.27309329
C        1.56057228      -0.77895422      -0.24088787
N        0.41637226      -1.17172847       0.18747382
H       -2.34853662       0.82385904       0.09752033
H       -2.28997418      -0.86888962       0.61804702
H       -1.97520115      -0.45071494      -1.06921369
H       -0.15559164       1.10756461       1.20996012
H        2.50998356       1.12537586      -0.25112528
H        2.41431058      -1.40938029      -0.45105028
12
Frame=15 idx=001263 GeodesicLength=0.6624709938985949 rxn_smarts="[C:1]([c:2]1[c:3]([H:10])[n:4]([H:11])[c:5]([H:12])[n:6]1)([H:7])([H:8])[H:9]>>[C:1]([C@:2]1([H:10])[C-:3]=[N+:4]([H:11])[C:5]([H:12])=[N:6]1)([H:7])([H:8])[H:9]"
C       -1.82832750      -0.12945864      -0.03836810
C       -0.36974815       0.00778664       0.30452272
C        0.42363080       1.13374673      -0.07101679
N        1.64700836       0.60259059      -0.27729503
C        1.55528863      -0.78238855      -0.24993608
N        0.41773268      -1.17159529       0.19781212
H       -2.34981585       0.81820387       0.09447488
H       -2.29002612      -0.87481125       0.61051841
H       -1.96055943      -0.45095494      -1.07281906
H       -0.16221109       1.13905544       1.21747535
H        2.50984739       1.12098263      -0.24910980
H        2.40718028      -1.41315722      -0.46625862
12
Frame=16 idx=001263 GeodesicLength=0.7067265078535097 rxn_smarts="[C:1]([c:2]1[c:3]([H:10])[n:4]([H:11])[c:5]([H:12])[n:6]1)([H:7])([H:8])[H:9]>>[C:1]([C@:2]1([H:10])[C-:3]=[N+:4]([H:11])[C:5]([H:12])=[N:6]1)([H:7])([H:8])[H:9]"
C       -1.82391590      -0.13253709      -0.03962154
C       -0.36903592       0.00840005       0.32119257
C        0.42519447       1.12972056      -0.06293613
N        1.64523982       0.60076829      -0.28113060
C        1.54979604      -0.78581847      -0.25868349
N        0.41922088      -1.17143315       0.20837797
H       -2.35092145       0.81238180       0.09131256
H       -2.28974227      -0.88084481       0.60297649
H       -1.94554405      -0.45128179      -1.07627614
H       -0.16944180       1.17129012       1.22418034
H        2.50977030       1.11635710      -0.24687583
H        2.39937988      -1.41700261      -0.48251621
