11
Frame=0 idx=000192 GeodesicLength=0.0 rxn_smarts="[C:1]([c:2]1[n:3][c:4]([H:10])[c:5]([H:11])[o:6]1)([H:7])([H:8])[H:9]>>[C:1](=[C:2]1[N:3]=[C:4]([H:10])[C:5]([H:7])([H:11])[O:6]1)([H:8])[H:9]"
C        1.59725431       0.12358852       0.07918072
C        0.51414264       0.44994456      -0.72296904
N       -0.37928770       1.37414226      -0.26177621
C       -1.35135910       0.60063517       0.16007839
C       -1.00852317      -0.76099669      -0.07135893
O       -0.09844192      -0.70720058      -1.12374563
H        0.35133357      -0.60220437       0.79067477
H        2.07045503       0.89999370       0.66593598
H        2.18764642      -0.74857018      -0.17097790
H       -2.20066201       0.97794320       0.71337690
H       -1.68255809      -1.60727556      -0.05841903
11
Frame=1 idx=000192 GeodesicLength=0.053347608196164575 rxn_smarts="[C:1]([c:2]1[n:3][c:4]([H:10])[c:5]([H:11])[o:6]1)([H:7])([H:8])[H:9]>>[C:1](=[C:2]1[N:3]=[C:4]([H:10])[C:5]([H:7])([H:11])[O:6]1)([H:8])[H:9]"
C        1.60381378       0.12174016       0.08425482
C        0.51671756       0.44743252      -0.71657779
N       -0.37941453       1.37107902      -0.26097008
C       -1.35790639       0.60135372       0.15703674
C       -1.01434467      -0.76228936      -0.06450786
O       -0.10180945      -0.70796683      -1.11584985
H        0.35609704      -0.62189672       0.80746894
H        2.07765199       0.90702326       0.65853055
H        2.20498538      -0.73723928      -0.18553295
H       -2.20891594       0.98280860       0.70468993
H       -1.69687477      -1.60204510      -0.06854244
11
Frame=2 idx=000192 GeodesicLength=0.10669808036121481 rxn_smarts="[C:1]([c:2]1[n:3][c:4]([H:10])[c:5]([H:11])[o:6]1)([H:7])([H:8])[H:9]>>[C:1](=[C:2]1[N:3]=[C:4]([H:10])[C:5]([H:7])([H:11])[O:6]1)([H:8])[H:9]"
C        1.61039175       0.11978931       0.08932751
C        0.51930067       0.44487191      -0.71019328
N       -0.37948084       1.36802437      -0.26024893
C       -1.36449787       0.60219299       0.15373040
C       -1.02028182      -0.76347119      -0.05762156
O       -0.10520752      -0.70877608      -1.10787305
H        0.36092318      -0.64227586       0.82419673
H        2.08447896       0.91375628       0.65134343
H        2.22218596      -0.72528998      -0.20027795
H       -2.21702030       0.98784991       0.69591204
H       -1.71079219      -1.59667165      -0.07829535
11
Frame=3 idx=000192 GeodesicLength=0.16002686679536923 rxn_smarts="[C:1]([c:2]1[n:3][c:4]([H:10])[c:5]([H:11])[o:6]1)([H:7])([H:8])[H:9]>>[C:1](=[C:2]1[N:3]=[C:4]([H:10])[C:5]([H:7])([H:11])[O:6]1)([H:8])[H:9]"
C        1.61700614       0.11772354       0.09436949
C        0.52188415       0.44226777      -0.70379951
N       -0.37948118       1.36497843      -0.25956160
C       -1.37111415       0.60315831       0.15020988
C       -1.02631877      -0.76453020      -0.05065935
O       -0.10865267      -0.70961193      -1.09979508
H        0.36585702      -0.66339567       0.84082384
H        2.09096347       0.92017735       0.64437294
H        2.23925026      -0.71269373      -0.21522627
H       -2.22506775       0.99307694       0.68690823
H       -1.72432652      -1.59115081      -0.08764255
11
Frame=4 idx=000192 GeodesicLength=0.2133870161258957 rxn_smarts="[C:1]([c:2]1[n:3][c:4]([H:10])[c:5]([H:11])[o:6]1)([H:7])([H:8])[H:9]>>[C:1](=[C:2]1[N:3]=[C:4]([H:10])[C:5]([H:7])([H:11])[O:6]1)([H:8])[H:9]"
C        1.62366227       0.11556433       0.09934010
C        0.52447657       0.43962915      -0.69744984
N       -0.37942434       1.36197182      -0.25897960
C       -1.37776842       0.60427202       0.14642313
C       -1.03245012      -0.76546249      -0.04363390
O       -0.11212486      -0.71049443      -1.09165007
H        0.37089867      -0.68526785       0.85732865
H        2.09702714       0.92627887       0.63771379
H        2.25614374      -0.69947459      -0.23033792
H       -2.23298632       0.99851645       0.67779146
H       -1.73745431      -1.58553327      -0.09654580
11
Frame=5 idx=000192 GeodesicLength=0.266660580413534 rxn_smarts="[C:1]([c:2]1[n:3][c:4]([H:10])[c:5]([H:11])[o:6]1)([H:7])([H:8])[H:9]>>[C:1](=[C:2]1[N:3]=[C:4]([H:10])[C:5]([H:7])([H:11])[O:6]1)([H:8])[H:9]"
C        1.63036903       0.11330764       0.10422735
C        0.52705411       0.43694162      -0.69109501
N       -0.37929617       1.35893800      -0.25845474
C       -1.38442952       0.60549316       0.14238894
C       -1.03867105      -0.76622672      -0.03650844
O       -0.11567782      -0.71138287      -1.08336718
H        0.37609085      -0.70791569       0.87367342
H        2.10271667       0.93202203       0.63135831
H        2.27285929      -0.68555260      -0.24564441
H       -2.24081317       1.00413219       0.66839915
H       -1.75020222      -1.57975675      -0.10497740
11
Frame=6 idx=000192 GeodesicLength=0.31997510157778014 rxn_smarts="[C:1]([c:2]1[n:3][c:4]([H:10])[c:5]([H:11])[o:6]1)([H:7])([H:8])[H:9]>>[C:1](=[C:2]1[N:3]=[C:4]([H:10])[C:5]([H:7])([H:11])[O:6]1)([H:8])[H:9]"
C        1.63713828       0.11096012       0.10899290
C        0.52963245       0.43422871      -0.68478953
N       -0.37910337       1.35595046      -0.25801848
C       -1.39110796       0.60686941       0.13810816
C       -1.04497101      -0.76684390      -0.02927411
O       -0.11928126      -0.71230878      -1.07500103
H        0.38144533      -0.73140637       0.88983619
H        2.10799613       0.93744255       0.62536674
H        2.28938442      -0.67097306      -0.26110398
H       -2.24856180       1.00998071       0.65878408
H       -1.76257120      -1.57389985      -0.11290094
11
Frame=7 idx=000192 GeodesicLength=0.3732951166091291 rxn_smarts="[C:1]([c:2]1[n:3][c:4]([H:10])[c:5]([H:11])[o:6]1)([H:7])([H:8])[H:9]>>[C:1](=[C:2]1[N:3]=[C:4]([H:10])[C:5]([H:7])([H:11])[O:6]1)([H:8])[H:9]"
C        1.64397545       0.10852771       0.11361082
C        0.53220379       0.43148833      -0.67853742
N       -0.37884801       1.35299675      -0.25768100
C       -1.39779729       0.60839846       0.13356867
C       -1.05134136      -0.76729215      -0.02191508
O       -0.12294827      -0.71326366      -1.06653616
H        0.38698695      -0.75576953       0.90577463
H        2.11285434       0.94253015       0.61977257
H        2.30570004      -0.65571882      -0.27669510
H       -2.25622157       1.01605905       0.64892235
H       -1.77456409      -1.56795628      -0.12028426
11
Frame=8 idx=000192 GeodesicLength=0.42661968048008037 rxn_smarts="[C:1]([c:2]1[n:3][c:4]([H:10])[c:5]([H:11])[o:6]1)([H:7])([H:8])[H:9]>>[C:1](=[C:2]1[N:3]=[C:4]([H:10])[C:5]([H:7])([H:11])[O:6]1)([H:8])[H:9]"
C        1.65088650       0.10601817       0.11805579
C        0.53476713       0.42872377      -0.67235019
N       -0.37853031       1.35008020      -0.25745627
C       -1.40449416       0.61008506       0.12876019
C       -1.05777467      -0.76755714      -0.01441491
O       -0.12668340      -0.71424656      -1.05796719
H        0.39273365      -0.78104471       0.92144986
H        2.11728034       0.94728652       0.61461128
H        2.32179079      -0.63978396      -0.29239562
H       -2.26378817       1.02237450       0.63880098
H       -1.78618770      -1.56193585      -0.12709391
11
Frame=9 idx=000192 GeodesicLength=0.4799308748278056 rxn_smarts="[C:1]([c:2]1[n:3][c:4]([H:10])[c:5]([H:11])[o:6]1)([H:7])([H:8])[H:9]>>[C:1](=[C:2]1[N:3]=[C:4]([H:10])[C:5]([H:7])([H:11])[O:6]1)([H:8])[H:9]"
C        1.65787562       0.10343610       0.12230618
C        0.53731711       0.42593685      -0.66623405
N       -0.37815395       1.34720009      -0.25735168
C       -1.41119135       0.61193275       0.12367810
C       -1.06426088      -0.76762408      -0.00675342
O       -0.13049434      -0.71525321      -1.04928479
H        0.39871517      -0.80727691       0.93681320
H        2.12127143       0.95171548       0.60991053
H        2.33763549      -0.62316128      -0.30817868
H       -2.27126565       1.02893225       0.62838973
H       -1.79744864      -1.55583804      -0.13329512
11
Frame=10 idx=000192 GeodesicLength=0.5332403165948618 rxn_smarts="[C:1]([c:2]1[n:3][c:4]([H:10])[c:5]([H:11])[o:6]1)([H:7])([H:8])[H:9]>>[C:1](=[C:2]1[N:3]=[C:4]([H:10])[C:5]([H:7])([H:11])[O:6]1)([H:8])[H:9]"
C        1.66493453       0.10080415       0.12634293
C        0.53985614       0.42313313      -0.66022503
N       -0.37772840       1.34436818      -0.25743545
C       -1.41789893       0.61395009       0.11826220
C       -1.07079556      -0.76747513       0.00105880
O       -0.13437226      -0.71629267      -1.04050155
H        0.40491870      -0.83448481       0.95183127
H        2.12478851       0.95582997       0.60571535
H        2.35321070      -0.60587358      -0.32397927
H       -2.27857326       1.03573366       0.61779407
H       -1.80834018      -1.54969298      -0.13886334
11
Frame=11 idx=000192 GeodesicLength=0.5865652428558663 rxn_smarts="[C:1]([c:2]1[n:3][c:4]([H:10])[c:5]([H:11])[o:6]1)([H:7])([H:8])[H:9]>>[C:1](=[C:2]1[N:3]=[C:4]([H:10])[C:5]([H:7])([H:11])[O:6]1)([H:8])[H:9]"
C        1.67206841       0.09812603       0.13015180
C        0.54238399       0.42031855      -0.65433040
N       -0.37725674       1.34159673      -0.25771268
C       -1.42461268       0.61614526       0.11251487
C       -1.07737012      -0.76710026       0.00904738
O       -0.13831909      -0.71736689      -1.03161206
H        0.41136580      -0.86272762       0.96646230
H        2.12783895       0.95964484       0.60204738
H        2.36850902      -0.58792050      -0.33978156
H       -2.28573412       1.04279531       0.60697664
H       -1.81887343      -1.54351145      -0.14376367
11
Frame=12 idx=000192 GeodesicLength=0.6398699921642902 rxn_smarts="[C:1]([c:2]1[n:3][c:4]([H:10])[c:5]([H:11])[o:6]1)([H:7])([H:8])[H:9]>>[C:1](=[C:2]1[N:3]=[C:4]([H:10])[C:5]([H:7])([H:11])[O:6]1)([H:8])[H:9]"
C        1.67927684       0.09541257       0.13371850
C        0.54489688       0.41749202      -0.64855388
N       -0.37674425       1.33887413      -0.25820067
C       -1.43132823       0.61851551       0.10642535
C       -1.08397531      -0.76647657       0.01723085
O       -0.14234062      -0.71846773      -1.02259832
H        0.41807524      -0.89204864       0.98064292
H        2.13042327       0.96316693       0.59891433
H        2.38351333      -0.56929807      -0.35553747
H       -2.29274064       1.05011148       0.59592249
H       -1.82905652      -1.53728164      -0.14796409
11
Frame=13 idx=000192 GeodesicLength=0.6931335834312574 rxn_smarts="[C:1]([c:2]1[n:3][c:4]([H:10])[c:5]([H:11])[o:6]1)([H:7])([H:8])[H:9]>>[C:1](=[C:2]1[N:3]=[C:4]([H:10])[C:5]([H:7])([H:11])[O:6]1)([H:8])[H:9]"
C        1.68654785       0.09268835       0.13703832
C        0.54739132       0.41465807      -0.64291744
N       -0.37620050       1.33620191      -0.25895039
C       -1.43804563       0.62105951       0.09995153
C       -1.09060273      -0.76558571       0.02560598
O       -0.14643734      -0.71959733      -1.01346273
H        0.42504690      -0.92247560       0.99431747
H        2.13253297       0.96642945       0.59631907
H        2.39818595      -0.55003615      -0.37115701
H       -2.29952623       1.05766939       0.58470372
H       -1.83889256      -1.53101191      -0.15144853
11
Frame=14 idx=000192 GeodesicLength=0.7464008495752186 rxn_smarts="[C:1]([c:2]1[n:3][c:4]([H:10])[c:5]([H:11])[o:6]1)([H:7])([H:8])[H:9]>>[C:1](=[C:2]1[N:3]=[C:4]([H:10])[C:5]([H:7])([H:11])[O:6]1)([H:8])[H:9]"
C        1.69388943       0.08994649       0.14010575
C        0.54987369       0.41182229      -0.63741233
N       -0.37561375       1.33359697      -0.25994912
C       -1.44474729       0.62378305       0.09312770
C       -1.09724587      -0.76441596       0.03422623
O       -0.15061202      -0.72076155      -1.00417768
H        0.43229266      -0.95409319       1.00745334
H        2.13417476       0.96941435       0.59430253
H        2.41255378      -0.53008405      -0.38670917
H       -2.30616513       1.06550564       0.57318923
H       -1.84840025      -1.52471404      -0.15415649
11
Frame=15 idx=000192 GeodesicLength=0.7996362459397268 rxn_smarts="[C:1]([c:2]1[n:3][c:4]([H:10])[c:5]([H:11])[o:6]1)([H:7])([H:8])[H:9]>>[C:1](=[C:2]1[N:3]=[C:4]([H:10])[C:5]([H:7])([H:11])[O:6]1)([H:8])[H:9]"
C        1.70129398       0.08720145       0.14291523
C        0.55233531       0.40898379      -0.63205581
N       -0.37500810       1.33105038      -0.26124183
C       -1.45144049       0.62668465       0.08592253
C       -1.10388894      -0.76293860       0.04309859
O       -0.15486314      -0.72195358      -0.99473502
H        0.43982651      -0.98692993       1.01998136
H        2.13533847       0.97213107       0.59286205
H        2.42659765      -0.50946478      -0.40210755
H       -2.31262129       1.07360997       0.56142202
H       -1.85756995      -1.51837443      -0.15606156
11
Frame=16 idx=000192 GeodesicLength=0.8528777860231552 rxn_smarts="[C:1]([c:2]1[n:3][c:4]([H:10])[c:5]([H:11])[o:6]1)([H:7])([H:8])[H:9]>>[C:1](=[C:2]1[N:3]=[C:4]([H:10])[C:5]([H:7])([H:11])[O:6]1)([H:8])[H:9]"
C        1.70875984       0.08446878       0.14546543
C        0.55478365       0.40615506      -0.62685918
N       -0.37438050       1.32858512      -0.26284594
C       -1.45811554       0.62977059       0.07834585
C       -1.11052422      -0.76114629       0.05225173
O       -0.15918591      -0.72318048      -0.98513010
H        0.44764571      -1.02106161       1.03184695
H        2.13603423       0.97461128       0.59199954
H        2.44030906      -0.48818907      -0.41732110
H       -2.31891149       1.08199969       0.54937075
H       -1.86641481      -1.51201307      -0.15712392
