10
Frame=0 idx=001260 GeodesicLength=0.0 rxn_smarts="[n:1]1([H:6])[c:2]([H:7])[c:3]([H:8])[c:4]([H:9])[c:5]1[H:10]>>[N:1]([C:2](=[C:3])[H:7])([C:5](=[C:4]([H:8])[H:9])[H:10])[H:6]"
N        0.29921453       1.00039717      -0.17161150
C        1.35160684       0.13686605       0.03606166
C        1.24247484      -1.18639058       0.20104957
C       -0.97907875      -0.90578082       0.08607289
C       -0.92442732       0.40400973      -0.16008838
H        0.41678319       1.99595496      -0.18987228
H        2.35999801       0.53614055       0.02699841
H       -0.12432404      -1.47255330       0.58792800
H       -1.86074694      -1.52301214      -0.00261150
H       -1.78150036       1.01436838      -0.41392687
10
Frame=1 idx=001260 GeodesicLength=0.07210203804095679 rxn_smarts="[n:1]1([H:6])[c:2]([H:7])[c:3]([H:8])[c:4]([H:9])[c:5]1[H:10]>>[N:1]([C:2](=[C:3])[H:7])([C:5](=[C:4]([H:8])[H:9])[H:10])[H:6]"
N        0.29862810       1.00660645      -0.16067274
C        1.35269278       0.14065839       0.02142652
C        1.23279024      -1.17399533       0.23511107
C       -0.97035392      -0.90707801       0.07336573
C       -0.92304069       0.40530097      -0.16419463
H        0.41623065       2.00178699      -0.18890316
H        2.36192959       0.53808566       0.01672782
H       -0.12322839      -1.51673019       0.57256889
H       -1.86485190      -1.51010092       0.01116845
H       -1.78079646       1.01546597      -0.41659797
10
Frame=2 idx=001260 GeodesicLength=0.1438560813225917 rxn_smarts="[n:1]1([H:6])[c:2]([H:7])[c:3]([H:8])[c:4]([H:9])[c:5]1[H:10]>>[N:1]([C:2](=[C:3])[H:7])([C:5](=[C:4]([H:8])[H:9])[H:10])[H:6]"
N        0.29795378       1.01287149      -0.14791293
C        1.35255330       0.14420775       0.00848290
C        1.22130673      -1.15638167       0.28931884
C       -0.96121144      -0.90807237       0.05955745
C       -0.92153003       0.40705599      -0.16701029
H        0.41626744       2.00722388      -0.19004867
H        2.36355995       0.53706662      -0.00713932
H       -0.12271346      -1.56373720       0.55090330
H       -1.86565388      -1.49839739       0.01592657
H       -1.78053240       1.01816290      -0.41207786
10
Frame=3 idx=001260 GeodesicLength=0.21517256968364346 rxn_smarts="[n:1]1([H:6])[c:2]([H:7])[c:3]([H:8])[c:4]([H:9])[c:5]1[H:10]>>[N:1]([C:2](=[C:3])[H:7])([C:5](=[C:4]([H:8])[H:9])[H:10])[H:6]"
N        0.29794658       1.01855760      -0.14181068
C        1.35170752       0.14694851      -0.00206322
C        1.20704588      -1.13400979       0.35209407
C       -0.95279223      -0.90787546       0.04984095
C       -0.92141719       0.41097082      -0.16023109
H        0.41907907       2.01120839      -0.21169593
H        2.36449983       0.53609825      -0.01863449
H       -0.11770354      -1.61811884       0.50811244
H       -1.86559337      -1.48704088       0.01968916
H       -1.78277256       1.02326140      -0.39530121
10
Frame=4 idx=001260 GeodesicLength=0.2855829321462489 rxn_smarts="[n:1]1([H:6])[c:2]([H:7])[c:3]([H:8])[c:4]([H:9])[c:5]1[H:10]>>[N:1]([C:2](=[C:3])[H:7])([C:5](=[C:4]([H:8])[H:9])[H:10])[H:6]"
N        0.29900693       1.02241524      -0.15238406
C        1.35034146       0.15045156      -0.00012725
C        1.18803505      -1.10871229       0.41841505
C       -0.94641538      -0.90520468       0.05091566
C       -0.92102721       0.41451897      -0.16073842
H        0.42124970       2.01378591      -0.23465929
H        2.36467846       0.53412934      -0.01932810
H       -0.10342375      -1.67716855       0.43222708
H       -1.86718751      -1.47362070       0.04214437
H       -1.78525776       1.02940521      -0.37646504
10
Frame=5 idx=001260 GeodesicLength=0.3547490460598152 rxn_smarts="[n:1]1([H:6])[c:2]([H:7])[c:3]([H:8])[c:4]([H:9])[c:5]1[H:10]>>[N:1]([C:2](=[C:3])[H:7])([C:5](=[C:4]([H:8])[H:9])[H:10])[H:6]"
N        0.30062607       1.02264767      -0.17646862
C        1.34855901       0.15302108       0.00755826
C        1.16370021      -1.08792487       0.46825444
C       -0.94272174      -0.90000190       0.06775724
C       -0.92011836       0.41537740      -0.17612842
H        0.42343727       2.01334513      -0.26199215
H        2.36374394       0.53440375       0.00926292
H       -0.08006984      -1.72717944       0.32691660
H       -1.86920758      -1.45939008       0.09096352
H       -1.78794898       1.03570126      -0.35612378
10
Frame=6 idx=001260 GeodesicLength=0.42554246507270055 rxn_smarts="[n:1]1([H:6])[c:2]([H:7])[c:3]([H:8])[c:4]([H:9])[c:5]1[H:10]>>[N:1]([C:2](=[C:3])[H:7])([C:5](=[C:4]([H:8])[H:9])[H:10])[H:6]"
N        0.30209695       1.02172509      -0.19865639
C        1.34641016       0.15525052       0.01812899
C        1.13858681      -1.07583464       0.49588348
C       -0.93871483      -0.89576197       0.08304763
C       -0.91981207       0.41465542      -0.19393795
H        0.42540811       2.01238883      -0.28550594
H        2.36207530       0.53427860       0.04392480
H       -0.05784072      -1.75884051       0.23459812
H       -1.86818422      -1.44775892       0.14415530
H       -1.79002549       1.03989758      -0.34163805
10
Frame=7 idx=001260 GeodesicLength=0.4974271448977518 rxn_smarts="[n:1]1([H:6])[c:2]([H:7])[c:3]([H:8])[c:4]([H:9])[c:5]1[H:10]>>[N:1]([C:2](=[C:3])[H:7])([C:5](=[C:4]([H:8])[H:9])[H:10])[H:6]"
N        0.30347367       1.01996828      -0.21911310
C        1.34397605       0.15724042       0.02643583
C        1.11459266      -1.06800856       0.51156849
C       -0.93390118      -0.89299906       0.09040407
C       -0.92029967       0.41418846      -0.20793291
H        0.42698954       2.01085338      -0.30080183
H        2.35960532       0.53396182       0.07456970
H       -0.03877928      -1.78101449       0.16548936
H       -1.86423859      -1.43751904       0.19130159
H       -1.79141853       1.04332880      -0.33192120
10
Frame=8 idx=001260 GeodesicLength=0.5693781798645801 rxn_smarts="[n:1]1([H:6])[c:2]([H:7])[c:3]([H:8])[c:4]([H:9])[c:5]1[H:10]>>[N:1]([C:2](=[C:3])[H:7])([C:5](=[C:4]([H:8])[H:9])[H:10])[H:6]"
N        0.30447751       1.01860574      -0.23571876
C        1.34091183       0.15871283       0.03362551
C        1.09070307      -1.06087301       0.52409054
C       -0.92893285      -0.89118575       0.09279077
C       -0.92126192       0.41468784      -0.21787383
H        0.42860990       2.00956038      -0.31370575
H        2.35665333       0.53180998       0.09885608
H       -0.02068965      -1.79886733       0.11129030
H       -1.85807061      -1.42922667       0.22986459
H       -1.79240060       1.04677598      -0.32321944
10
Frame=9 idx=001260 GeodesicLength=0.6414797570161096 rxn_smarts="[n:1]1([H:6])[c:2]([H:7])[c:3]([H:8])[c:4]([H:9])[c:5]1[H:10]>>[N:1]([C:2](=[C:3])[H:7])([C:5](=[C:4]([H:8])[H:9])[H:10])[H:6]"
N        0.30522737       1.01769460      -0.24950812
C        1.33776825       0.15980799       0.03927050
C        1.06741260      -1.05397935       0.53511970
C       -0.92430778      -0.88936480       0.09514210
C       -0.92255494       0.41564177      -0.22585715
H        0.43009076       2.00877815      -0.32363511
H        2.35406354       0.52837288       0.11737476
H       -0.00291830      -1.81462111       0.06775905
H       -1.85142864      -1.42261022       0.26016783
H       -1.79335288       1.05028008      -0.31583356
10
Frame=10 idx=001260 GeodesicLength=0.7136137528441961 rxn_smarts="[n:1]1([H:6])[c:2]([H:7])[c:3]([H:8])[c:4]([H:9])[c:5]1[H:10]>>[N:1]([C:2](=[C:3])[H:7])([C:5](=[C:4]([H:8])[H:9])[H:10])[H:6]"
N        0.30576930       1.01712544      -0.26130288
C        1.33448355       0.16066988       0.04408907
C        1.04448409      -1.04707812       0.54520048
C       -0.91999982      -0.88747798       0.09734239
C       -0.92401623       0.41681246      -0.23306003
H        0.43138378       2.00838636      -0.33097530
H        2.35177031       0.52384031       0.13154728
H        0.01510671      -1.82907603       0.03141908
H       -1.84475790      -1.41693920       0.28527189
H       -1.79422378       1.05373689      -0.30953198
10
Frame=11 idx=001260 GeodesicLength=0.7857873562859924 rxn_smarts="[n:1]1([H:6])[c:2]([H:7])[c:3]([H:8])[c:4]([H:9])[c:5]1[H:10]>>[N:1]([C:2](=[C:3])[H:7])([C:5](=[C:4]([H:8])[H:9])[H:10])[H:6]"
N        0.30613509       1.01683351      -0.27156076
C        1.33108076       0.16137211       0.04829453
C        1.02191066      -1.04021999       0.55433132
C       -0.91602187      -0.88548576       0.09946857
C       -0.92559987       0.41811005      -0.23990795
H        0.43246203       2.00830891      -0.33602649
H        2.34972621       0.51847437       0.14249697
H        0.03363372      -1.84277959       0.00033816
H       -1.83828583      -1.41174694       0.30696275
H       -1.79504091       1.05713333      -0.30439710
10
Frame=12 idx=001260 GeodesicLength=0.8580129349209522 rxn_smarts="[n:1]1([H:6])[c:2]([H:7])[c:3]([H:8])[c:4]([H:9])[c:5]1[H:10]>>[N:1]([C:2](=[C:3])[H:7])([C:5](=[C:4]([H:8])[H:9])[H:10])[H:6]"
N        0.30634184       1.01678501      -0.28057231
C        1.32758468       0.16194746       0.05198699
C        0.99968168      -1.03349227       0.56243515
C       -0.91238478      -0.88337245       0.10155027
C       -0.92728726       0.41949894      -0.24658788
H        0.43331705       2.00850768      -0.33904411
H        2.34787246       0.51246161       0.15104759
H        0.05279365      -1.85607280      -0.02674036
H       -1.83208917      -1.40673283       0.32644122
H       -1.79583016       1.06046965      -0.30051657
10
Frame=13 idx=001260 GeodesicLength=0.9303306888702485 rxn_smarts="[n:1]1([H:6])[c:2]([H:7])[c:3]([H:8])[c:4]([H:9])[c:5]1[H:10]>>[N:1]([C:2](=[C:3])[H:7])([C:5](=[C:4]([H:8])[H:9])[H:10])[H:6]"
N        0.30641398       1.01693244      -0.28856331
C        1.32399552       0.16243563       0.05520586
C        0.97780399      -1.02695164       0.56952723
C       -0.90910007      -0.88111590       0.10362055
C       -0.92906452       0.42095259      -0.25317202
H        0.43396151       2.00892049      -0.34027007
H        2.34614305       0.50593951       0.15773423
H        0.07270330      -1.86919149      -0.05060692
H       -1.82623520      -1.40169247       0.34434454
H       -1.79662156       1.06377084      -0.29782008
10
Frame=14 idx=001260 GeodesicLength=1.0026456522162015 rxn_smarts="[n:1]1([H:6])[c:2]([H:7])[c:3]([H:8])[c:4]([H:9])[c:5]1[H:10]>>[N:1]([C:2](=[C:3])[H:7])([C:5](=[C:4]([H:8])[H:9])[H:10])[H:6]"
N        0.30636151       1.01726452      -0.29575485
C        1.32032591       0.16280661       0.05810132
C        0.95623128      -1.02060176       0.57555269
C       -0.90618547      -0.87873309       0.10561970
C       -0.93094061       0.42248405      -0.25974916
H        0.43441946       2.00950973      -0.34009261
H        2.34449260       0.49896399       0.16310153
H        0.09344478      -1.88219515      -0.07192553
H       -1.82072052      -1.39656393       0.36122866
H       -1.79742894       1.06706501      -0.29608174
10
Frame=15 idx=001260 GeodesicLength=1.0750164070442156 rxn_smarts="[n:1]1([H:6])[c:2]([H:7])[c:3]([H:8])[c:4]([H:9])[c:5]1[H:10]>>[N:1]([C:2](=[C:3])[H:7])([C:5](=[C:4]([H:8])[H:9])[H:10])[H:6]"
N        0.30618340       1.01774585      -0.30225425
C        1.31657654       0.16308590       0.06067764
C        0.93497462      -1.01452883       0.58048310
C       -0.90363520      -0.87619583       0.10764391
C       -0.93290856       0.42409647      -0.26627338
H        0.43469983       2.01022501      -0.33876445
H        2.34284384       0.49164863       0.16747366
H        0.11506542      -1.89523416      -0.09107747
H       -1.81555100      -1.39125131       0.37729059
H       -1.79824888       1.07040826      -0.29519936
10
Frame=16 idx=001260 GeodesicLength=1.1473739619128964 rxn_smarts="[n:1]1([H:6])[c:2]([H:7])[c:3]([H:8])[c:4]([H:9])[c:5]1[H:10]>>[N:1]([C:2](=[C:3])[H:7])([C:5](=[C:4]([H:8])[H:9])[H:10])[H:6]"
N        0.30589988       1.01836055      -0.30808591
C        1.31274945       0.16328939       0.06304089
C        0.91405388      -1.00879695       0.58422677
C       -0.90147980      -0.87348467       0.10981570
C       -0.93496942       0.42580559      -0.27260771
H        0.43487412       2.01101321      -0.33661928
H        2.34116604       0.48407666       0.17113190
H        0.13759699      -1.90828611      -0.10848609
H       -1.81078927      -1.38575500       0.39273836
H       -1.79910186       1.07377733      -0.29515462
