14
Frame=0 idx=004186 GeodesicLength=0.0 rxn_smarts="[C:1]1([H:7])([H:8])[N:2]([H:9])[C@:3]1([C@@:4]1([H:11])[C:5]([H:12])([H:13])[N:6]1[H:14])[H:10]>>[C:1]1([H:7])([H:8])[N+:2]([H:9])([H:10])[C-:3]1[C@@:4]1([H:11])[C:5]([H:12])([H:13])[N:6]1[H:14]"
C        1.84912927       0.02115476      -0.26101351
N        1.23498340      -1.20305991       0.25613920
C        0.60323133      -0.20450762      -1.01018423
C       -0.57958562       0.54054550      -0.47592842
C       -1.77692173      -0.09219918       0.09627628
N       -0.82618877       0.60350413       0.97060387
H        2.81057200      -0.12778120      -0.74183319
H        1.84677357       0.81269681       0.48403060
H        0.62420782      -0.96506931       1.03940941
H        0.69222036      -1.53535003      -0.71580797
H       -0.74950575       1.45092218      -1.04611511
H       -1.80688687      -1.16982188       0.22225842
H       -2.74363538       0.36453110      -0.08191918
H       -1.17839359       1.50443460       1.26408385
14
Frame=1 idx=004186 GeodesicLength=0.05422381693459649 rxn_smarts="[C:1]1([H:7])([H:8])[N:2]([H:9])[C@:3]1([C@@:4]1([H:11])[C:5]([H:12])([H:13])[N:6]1[H:14])[H:10]>>[C:1]1([H:7])([H:8])[N+:2]([H:9])([H:10])[C-:3]1[C@@:4]1([H:11])[C:5]([H:12])([H:13])[N:6]1[H:14]"
C        1.85162833       0.02442376      -0.25866276
N        1.22873572      -1.19774055       0.25208768
C        0.60331830      -0.20833426      -1.00161473
C       -0.58058534       0.53939890      -0.47481844
C       -1.77892760      -0.09121500       0.09790983
N       -0.82829493       0.60523037       0.97159228
H        2.81145894      -0.12798044      -0.74145610
H        1.85103197       0.81610904       0.48630287
H        0.62587680      -0.96486091       1.04254224
H        0.69940017      -1.54837294      -0.73342591
H       -0.74917903       1.44884960      -1.04674960
H       -1.80924583      -1.16864245       0.22518492
H       -2.74517645       0.36601984      -0.08158361
H       -1.18004106       1.50711503       1.26269133
14
Frame=2 idx=004186 GeodesicLength=0.10844525554515125 rxn_smarts="[C:1]1([H:7])([H:8])[N:2]([H:9])[C@:3]1([C@@:4]1([H:11])[C:5]([H:12])([H:13])[N:6]1[H:14])[H:10]>>[C:1]1([H:7])([H:8])[N+:2]([H:9])([H:10])[C-:3]1[C@@:4]1([H:11])[C:5]([H:12])([H:13])[N:6]1[H:14]"
C        1.85401315       0.02759746      -0.25630712
N        1.22245844      -1.19252322       0.24810964
C        0.60333567      -0.21220852      -0.99311510
C       -0.58159913       0.53823323      -0.47372997
C       -1.78094592      -0.09022314       0.09955171
N       -0.83039023       0.60696137       0.97256189
H        2.81223739      -0.12824562      -0.74103891
H        1.85524073       0.81943349       0.48856570
H        0.62766559      -0.96469655       1.04569684
H        0.70684112      -1.56095304      -0.75104520
H       -0.74886624       1.44674590      -1.04741514
H       -1.81161533      -1.16745261       0.22813667
H       -2.74672610       0.36752168      -0.08123430
H       -1.18164915       1.50980956       1.26126329
14
Frame=3 idx=004186 GeodesicLength=0.16266394889836672 rxn_smarts="[C:1]1([H:7])([H:8])[N:2]([H:9])[C@:3]1([C@@:4]1([H:11])[C:5]([H:12])([H:13])[N:6]1[H:14])[H:10]>>[C:1]1([H:7])([H:8])[N+:2]([H:9])([H:10])[C-:3]1[C@@:4]1([H:11])[C:5]([H:12])([H:13])[N:6]1[H:14]"
C        1.85628539       0.03067611      -0.25394778
N        1.21616707      -1.18740417       0.24421835
C        0.60328630      -0.21612834      -0.98468545
C       -0.58262534       0.53704592      -0.47266213
C       -1.78297620      -0.08922356       0.10120171
N       -0.83247333       0.60869549       0.97351175
H        2.81290998      -0.12857104      -0.74058337
H        1.85940184       0.82267353       0.49081313
H        0.62956074      -0.96458119       1.04886300
H        0.71452469      -1.57309309      -0.76866095
H       -0.74856566       1.44460842      -1.04810914
H       -1.81399669      -1.16625112       0.23111373
H       -2.74828314       0.36903739      -0.08087158
H       -1.18321566       1.51251566       1.25979870
14
Frame=4 idx=004186 GeodesicLength=0.21687655732101693 rxn_smarts="[C:1]1([H:7])([H:8])[N:2]([H:9])[C@:3]1([C@@:4]1([H:11])[C:5]([H:12])([H:13])[N:6]1[H:14])[H:10]>>[C:1]1([H:7])([H:8])[N+:2]([H:9])([H:10])[C-:3]1[C@@:4]1([H:11])[C:5]([H:12])([H:13])[N:6]1[H:14]"
C        1.85844832       0.03366068      -0.25158738
N        1.20987715      -1.18238019       0.24042781
C        0.60317319      -0.22009333      -0.97632640
C       -0.58366161       0.53583572      -0.47161418
C       -1.78501814      -0.08821707       0.10285851
N       -0.83454395       0.61043074       0.97444287
H        2.81348056      -0.12895218      -0.74009475
H        1.86351804       0.82583548       0.49303773
H        0.63154958      -0.96451819       1.05203520
H        0.72242833      -1.58479817      -0.78626590
H       -0.74827354       1.44243814      -1.04882848
H       -1.81639111      -1.16503953       0.23411232
H       -2.74984680       0.37056687      -0.08049795
H       -1.18474001       1.51523103       1.25830060
14
Frame=5 idx=004186 GeodesicLength=0.2710832278458837 rxn_smarts="[C:1]1([H:7])([H:8])[N:2]([H:9])[C@:3]1([C@@:4]1([H:11])[C:5]([H:12])([H:13])[N:6]1[H:14])[H:10]>>[C:1]1([H:7])([H:8])[N+:2]([H:9])([H:10])[C-:3]1[C@@:4]1([H:11])[C:5]([H:12])([H:13])[N:6]1[H:14]"
C        1.86050238       0.03655238      -0.24922804
N        1.20360216      -1.17744769       0.23675204
C        0.60299925      -0.22410259      -0.96803790
C       -0.58470575       0.53460200      -0.47058660
C       -1.78706852      -0.08720435       0.10451985
N       -0.83660061       0.61216510       0.97535430
H        2.81394890      -0.12938306      -0.73957641
H        1.86758755       0.82892454       0.49523314
H        0.63362245      -0.96451127       1.05520891
H        0.73052753      -1.59607797      -0.80385426
H       -0.74798701       1.44023857      -1.04956941
H       -1.81879466      -1.16381919       0.23712943
H       -2.75141303       0.37211052      -0.08011562
H       -1.18622063       1.51795301       1.25677055
14
Frame=6 idx=004186 GeodesicLength=0.32527872829536175 rxn_smarts="[C:1]1([H:7])([H:8])[N:2]([H:9])[C@:3]1([C@@:4]1([H:11])[C:5]([H:12])([H:13])[N:6]1[H:14])[H:10]>>[C:1]1([H:7])([H:8])[N+:2]([H:9])([H:10])[C-:3]1[C@@:4]1([H:11])[C:5]([H:12])([H:13])[N:6]1[H:14]"
C        1.86245227       0.03935221      -0.24686802
N        1.19735271      -1.17260491       0.23319706
C        0.60276794      -0.22815361      -0.95981762
C       -0.58575749       0.53334157      -0.46957749
C       -1.78912799      -0.08618526       0.10618820
N       -0.83864275       0.61390027       0.97624650
H        2.81432131      -0.12986175      -0.73902735
H        1.87161565       0.83194270       0.49739874
H        0.63576648      -0.96456487       1.05837792
H        0.73881091      -1.60693165      -0.82143550
H       -0.74770882       1.43800205      -1.05033434
H       -1.82120944      -1.16258826       0.24017127
H       -2.75298303       0.37366791      -0.07972402
H       -1.18765774       1.52068361       1.25520465
14
Frame=7 idx=004186 GeodesicLength=0.3794716770704437 rxn_smarts="[C:1]1([H:7])([H:8])[N:2]([H:9])[C@:3]1([C@@:4]1([H:11])[C:5]([H:12])([H:13])[N:6]1[H:14])[H:10]>>[C:1]1([H:7])([H:8])[N+:2]([H:9])([H:10])[C-:3]1[C@@:4]1([H:11])[C:5]([H:12])([H:13])[N:6]1[H:14]"
C        1.86430261       0.04206242      -0.24450955
N        1.19113815      -1.16784670       0.22977517
C        0.60248308      -0.23224671      -0.95166377
C       -0.58681375       0.53205384      -0.46858521
C       -1.79119585      -0.08516151       0.10786235
N       -0.84067111       0.61563509       0.97712116
H        2.81460216      -0.13038547      -0.73845300
H        1.87560619       0.83489744       0.49952772
H        0.63797165      -0.96467821       1.06154301
H        0.74725459      -1.61736854      -0.83901175
H       -0.74743351       1.43572998      -1.05112004
H       -1.82363621      -1.16134941       0.24323443
H       -2.75455542       0.37523678      -0.07932672
H       -1.18905259       1.52342100       1.25360619
14
Frame=8 idx=004186 GeodesicLength=0.43364859684408696 rxn_smarts="[C:1]1([H:7])([H:8])[N:2]([H:9])[C@:3]1([C@@:4]1([H:11])[C:5]([H:12])([H:13])[N:6]1[H:14])[H:10]>>[C:1]1([H:7])([H:8])[N+:2]([H:9])([H:10])[C-:3]1[C@@:4]1([H:11])[C:5]([H:12])([H:13])[N:6]1[H:14]"
C        1.86605657       0.04468353      -0.24215633
N        1.18496935      -1.16316809       0.22649937
C        0.60214643      -0.23637961      -0.94357131
C       -0.58787229       0.53073932      -0.46760708
C       -1.79326952      -0.08413443       0.10953774
N       -0.84268749       0.61736412       0.97797857
H        2.81479027      -0.13095618      -0.73786173
H        1.87956164       0.83779450       0.50160913
H        0.64023531      -0.96484258       1.06470554
H        0.75583220      -1.62739776      -0.85657244
H       -0.74715543       1.43342752      -1.05191623
H       -1.82607149      -1.16010408       0.24630501
H       -2.75612811       0.37681529      -0.07892746
H       -1.19040745       1.52615845       1.25197723
14
Frame=9 idx=004186 GeodesicLength=0.48782275612694337 rxn_smarts="[C:1]1([H:7])([H:8])[N:2]([H:9])[C@:3]1([C@@:4]1([H:11])[C:5]([H:12])([H:13])[N:6]1[H:14])[H:10]>>[C:1]1([H:7])([H:8])[N+:2]([H:9])([H:10])[C-:3]1[C@@:4]1([H:11])[C:5]([H:12])([H:13])[N:6]1[H:14]"
C        1.86771813       0.04721859      -0.23980422
N        1.17885033      -1.15856908       0.22337248
C        0.60176310      -0.24055315      -0.93553967
C       -0.58893246       0.52939439      -0.46664383
C       -1.79534901      -0.08310452       0.11121967
N       -0.84468995       0.61909425       0.97881930
H        2.81489429      -0.13156824      -0.73724728
H        1.88348435       0.84063656       0.50364884
H        0.64254217      -0.96506755       1.06786431
H        0.76453635      -1.63702143      -0.87414663
H       -0.74687850       1.43108594      -1.05273302
H       -1.82851631      -1.15885253       0.24940097
H       -2.75770049       0.37840264      -0.07852497
H       -1.19172200       1.52890412       1.25031404
14
Frame=10 idx=004186 GeodesicLength=0.5419825876740592 rxn_smarts="[C:1]1([H:7])([H:8])[N:2]([H:9])[C@:3]1([C@@:4]1([H:11])[C:5]([H:12])([H:13])[N:6]1[H:14])[H:10]>>[C:1]1([H:7])([H:8])[N+:2]([H:9])([H:10])[C-:3]1[C@@:4]1([H:11])[C:5]([H:12])([H:13])[N:6]1[H:14]"
C        1.86929188       0.04966842      -0.23745834
N        1.17278803      -1.15404427       0.22040209
C        0.60133446      -0.24476307      -0.92756533
C       -0.58999205       0.52802075      -0.46569227
C       -1.79743225      -0.08207340       0.11290574
N       -0.84667965       0.62082260       0.97964437
H        2.81491782      -0.13222790      -0.73661095
H        1.88737933       0.84342990       0.50563500
H        0.64489242      -0.96534183       1.07102086
H        0.77333820      -1.64624932      -0.89172951
H       -0.74659800       1.42871074      -1.05355983
H       -1.83096741      -1.15759578       0.25251694
H       -2.75927099       0.37999200      -0.07813097
H       -1.19300181       1.53165116       1.24862220
14
Frame=11 idx=004186 GeodesicLength=0.5961365920879746 rxn_smarts="[C:1]1([H:7])([H:8])[N:2]([H:9])[C@:3]1([C@@:4]1([H:11])[C:5]([H:12])([H:13])[N:6]1[H:14])[H:10]>>[C:1]1([H:7])([H:8])[N+:2]([H:9])([H:10])[C-:3]1[C@@:4]1([H:11])[C:5]([H:12])([H:13])[N:6]1[H:14]"
C        1.87077993       0.05203500      -0.23511168
N        1.16678607      -1.14959349       0.21759341
C        0.60086493      -0.24901163      -0.91964338
C       -0.59105084       0.52661352      -0.46475301
C       -1.79951787      -0.08104134       0.11459935
N       -0.84865509       0.62255366       0.98045231
H        2.81486336      -0.13292851      -0.73595077
H        1.89124609       0.84617446       0.50757497
H        0.64727231      -0.96567295       1.07417715
H        0.78223447      -1.65507976      -0.90935038
H       -0.74631811       1.42629106      -1.05440673
H       -1.83342355      -1.15633321       0.25566318
H       -2.76083791       0.38158619      -0.07773637
H       -1.19424380       1.53440699       1.24689196
14
Frame=12 idx=004186 GeodesicLength=0.650277112267503 rxn_smarts="[C:1]1([H:7])([H:8])[N:2]([H:9])[C@:3]1([C@@:4]1([H:11])[C:5]([H:12])([H:13])[N:6]1[H:14])[H:10]>>[C:1]1([H:7])([H:8])[N+:2]([H:9])([H:10])[C-:3]1[C@@:4]1([H:11])[C:5]([H:12])([H:13])[N:6]1[H:14]"
C        1.87218747       0.05431958      -0.23276864
N        1.16084864      -1.14521249       0.21495413
C        0.60035733      -0.25329662      -0.91177068
C       -0.59210662       0.52517367      -0.46382407
C       -1.80160541      -0.08000960       0.11629767
N       -0.85061815       0.62428531       0.98124434
H        2.81473533      -0.13367304      -0.73526914
H        1.89508891       0.84887448       0.50946250
H        0.64968228      -0.96605074       1.07733698
H        0.79120375      -1.66352293      -0.92701131
H       -0.74603559       1.42382932      -1.05526916
H       -1.83588391      -1.15506607       0.25883647
H       -2.76240080       0.38318232      -0.07734796
H       -1.19545322       1.53716681       1.24512886
14
Frame=13 idx=004186 GeodesicLength=0.7044124247187674 rxn_smarts="[C:1]1([H:7])([H:8])[N:2]([H:9])[C@:3]1([C@@:4]1([H:11])[C:5]([H:12])([H:13])[N:6]1[H:14])[H:10]>>[C:1]1([H:7])([H:8])[N+:2]([H:9])([H:10])[C-:3]1[C@@:4]1([H:11])[C:5]([H:12])([H:13])[N:6]1[H:14]"
C        1.87351792       0.05652353      -0.23042344
N        1.15497776      -1.14090058       0.21248837
C        0.59981514      -0.25761900      -0.90394203
C       -0.59315887       0.52369775      -0.46290482
C       -1.80369354      -0.07897984       0.11800454
N       -0.85256843       0.62602257       0.98202048
H        2.81453727      -0.13446100      -0.73456313
H        1.89891031       0.85153367       0.51129972
H        0.65211171      -0.96647758       1.08050466
H        0.80023751      -1.67157814      -0.94474021
H       -0.74575137       1.42131890      -1.05615162
H       -1.83834698      -1.15379575       0.26204426
H       -2.76395884       0.38477756      -0.07696219
H       -1.19662960       1.53993791       1.24332541
14
Frame=14 idx=004186 GeodesicLength=0.7585439433554466 rxn_smarts="[C:1]1([H:7])([H:8])[N:2]([H:9])[C@:3]1([C@@:4]1([H:11])[C:5]([H:12])([H:13])[N:6]1[H:14])[H:10]>>[C:1]1([H:7])([H:8])[N+:2]([H:9])([H:10])[C-:3]1[C@@:4]1([H:11])[C:5]([H:12])([H:13])[N:6]1[H:14]"
C        1.87477412       0.05864669      -0.22807079
N        1.14917266      -1.13665830       0.21019870
C        0.59924194      -0.26197755      -0.89615256
C       -0.59420762       0.52218254      -0.46199546
C       -1.80578062      -0.07795276       0.11972436
N       -0.85450434       0.62777175       0.98277911
H        2.81427189      -0.13528969      -0.73382870
H        1.90271313       0.85414870       0.51309420
H        0.65455417      -0.96695463       1.08368205
H        0.80933009      -1.67924309      -0.96256434
H       -0.74547029       1.41875095      -1.05706064
H       -1.84080991      -1.15252154       0.26529714
H       -2.76551112       0.38636940      -0.07657477
H       -1.19777411       1.54272753       1.24147171
14
Frame=15 idx=004186 GeodesicLength=0.8126673582533033 rxn_smarts="[C:1]1([H:7])([H:8])[N:2]([H:9])[C@:3]1([C@@:4]1([H:11])[C:5]([H:12])([H:13])[N:6]1[H:14])[H:10]>>[C:1]1([H:7])([H:8])[N+:2]([H:9])([H:10])[C-:3]1[C@@:4]1([H:11])[C:5]([H:12])([H:13])[N:6]1[H:14]"
C        1.87596004       0.06069111      -0.22571244
N        1.14343693      -1.13248177       0.20809209
C        0.59863963      -0.26637317      -0.88839757
C       -0.59525193       0.52062657      -0.46109412
C       -1.80786647      -0.07693028       0.12145594
N       -0.85642745       0.62953070       0.98352133
H        2.81394334      -0.13616494      -0.73306465
H        1.90649903       0.85672617       0.51483930
H        0.65700756      -0.96747289       1.08687593
H        0.81846572      -1.68652015      -0.98049663
H       -0.74518874       1.41612483      -1.05799414
H       -1.84327339      -1.15124513       0.26859547
H       -2.76705639       0.38795635      -0.07619119
H       -1.19888786       1.54553260       1.23957068
14
Frame=16 idx=004186 GeodesicLength=0.8667874539980818 rxn_smarts="[C:1]1([H:7])([H:8])[N:2]([H:9])[C@:3]1([C@@:4]1([H:11])[C:5]([H:12])([H:13])[N:6]1[H:14])[H:10]>>[C:1]1([H:7])([H:8])[N+:2]([H:9])([H:10])[C-:3]1[C@@:4]1([H:11])[C:5]([H:12])([H:13])[N:6]1[H:14]"
C        1.87707877       0.06265641      -0.22334508
N        1.13776890      -1.12837022       0.20617132
C        0.59801071      -0.27080570      -0.88067232
C       -0.59629142       0.51902829      -0.46019997
C       -1.80994935      -0.07591294       0.12320370
N       -0.85833742       0.63130637       0.98424665
H        2.81355671      -0.13709232      -0.73226315
H        1.91027194       0.85926604       0.51653663
H        0.65946585      -0.96803146       1.09009110
H        0.82763958      -1.69340371      -0.99856839
H       -0.74490938       1.41343368      -1.05895810
H       -1.84573424      -1.14996589       0.27195087
H       -2.76859512       0.38953186      -0.07580984
H       -1.19997552       1.54835958       1.23761659
