16
Frame=0 idx=010734 GeodesicLength=0.0 rxn_smarts="[N:1]([C:2](=[O:3])[C:4]([C:5]([C:6]([O:7][H:16])([H:14])[H:15])([H:12])[H:13])([H:10])[H:11])([H:8])[H:9]>>[N:1]1([H:8])[C:2](=[O:3])[C:4]([H:10])([H:11])[C:5]([H:12])([H:13])[C:6]1([H:14])[H:15].[O:7]([H:9])[H:16]"
N        1.20426766       0.47846289       0.56053246
C        1.32300487      -0.85687337       0.56464021
O        2.31717909      -1.51361677       0.84471619
C        0.05908928      -1.58427712       0.09970075
C       -1.05499793      -0.62055004      -0.25781104
C       -0.61147288       0.55814819      -1.00652038
O       -0.70422302       2.14905629       0.53529990
H        2.11918964       0.90132453       0.68573161
H        0.08075601       1.54106650       0.78760619
H        0.34907007      -2.18845312      -0.76331270
H       -0.25344210      -2.28401905       0.87458847
H       -1.82252761      -1.08297340      -0.90109342
H       -1.61013019      -0.27433794       0.61891098
H        0.29389546       0.52385854      -1.59488222
H       -1.36613263       1.26063976      -1.32455200
H       -0.32352570       2.99254416       0.27644497
16
Frame=1 idx=010734 GeodesicLength=0.11605175229895394 rxn_smarts="[N:1]([C:2](=[O:3])[C:4]([C:5]([C:6]([O:7][H:16])([H:14])[H:15])([H:12])[H:13])([H:10])[H:11])([H:8])[H:9]>>[N:1]1([H:8])[C:2](=[O:3])[C:4]([H:10])([H:11])[C:5]([H:12])([H:13])[C:6]1([H:14])[H:15].[O:7]([H:9])[H:16]"
N        1.17516662       0.46213973       0.60350632
C        1.32086442      -0.86858826       0.55496999
O        2.33782401      -1.50824407       0.78629389
C        0.06270883      -1.60037036       0.08558973
C       -1.05917685      -0.63523867      -0.24611188
C       -0.61903263       0.55454331      -0.98462192
O       -0.66596014       2.20156151       0.48935732
H        2.06370295       0.89727322       0.83332217
H        0.13421026       1.59756443       0.75910713
H        0.34939999      -2.18379881      -0.79285224
H       -0.23361539      -2.31860022       0.84948637
H       -1.83227065      -1.09635903      -0.88234238
H       -1.60363557      -0.29753512       0.64034541
H        0.26261964       0.51380230      -1.60863882
H       -1.39205200       1.22918390      -1.32264995
H       -0.30075349       3.05266615       0.23523887
16
Frame=2 idx=010734 GeodesicLength=0.23156826973282454 rxn_smarts="[N:1]([C:2](=[O:3])[C:4]([C:5]([C:6]([O:7][H:16])([H:14])[H:15])([H:12])[H:13])([H:10])[H:11])([H:8])[H:9]>>[N:1]1([H:8])[C:2](=[O:3])[C:4]([H:10])([H:11])[C:5]([H:12])([H:13])[C:6]1([H:14])[H:15].[O:7]([H:9])[H:16]"
N        1.14246256       0.44601960       0.64988745
C        1.31834717      -0.87702320       0.54466816
O        2.35847313      -1.49373638       0.72708608
C        0.06741728      -1.61556722       0.07073722
C       -1.06380768      -0.65121154      -0.23429742
C       -0.62881389       0.55129024      -0.96101898
O       -0.62025330       2.25328783       0.44030392
H        1.99456944       0.88198858       0.99015341
H        0.19847797       1.65429615       0.72026548
H        0.35167168      -2.17676965      -0.82302274
H       -0.21082721      -2.35275534       0.82288106
H       -1.84122807      -1.11191235      -0.86420426
H       -1.59846486      -0.32417916       0.66186312
H        0.22575700       0.50435131      -1.62243848
H       -1.41996123       1.19888289      -1.31406764
H       -0.27382001       3.11303823       0.19120362
16
Frame=3 idx=010734 GeodesicLength=0.34605927120038615 rxn_smarts="[N:1]([C:2](=[O:3])[C:4]([C:5]([C:6]([O:7][H:16])([H:14])[H:15])([H:12])[H:13])([H:10])[H:11])([H:8])[H:9]>>[N:1]1([H:8])[C:2](=[O:3])[C:4]([H:10])([H:11])[C:5]([H:12])([H:13])[C:6]1([H:14])[H:15].[O:7]([H:9])[H:16]"
N        1.10468266       0.43015804       0.70005359
C        1.31489007      -0.88123786       0.53488210
O        2.37804524      -1.46828535       0.67247329
C        0.07355996      -1.62956649       0.05491510
C       -1.06913888      -0.66899045      -0.22277456
C       -0.64173267       0.54849534      -0.93534583
O       -0.56441527       2.30284249       0.38901532
H        1.90918825       0.85603465       1.15130331
H        0.27805189       1.70941058       0.66636094
H        0.35737521      -2.16634030      -0.85399594
H       -0.18482187      -2.38667405       0.79381993
H       -1.84913035      -1.13036614      -0.84764185
H       -1.59546887      -0.35552163       0.68289707
H        0.18161860       0.49598929      -1.63620742
H       -1.45117367       1.17108769      -1.29620023
H       -0.24153030       3.17296418       0.14644518
16
Frame=4 idx=010734 GeodesicLength=0.45923129674971674 rxn_smarts="[N:1]([C:2](=[O:3])[C:4]([C:5]([C:6]([O:7][H:16])([H:14])[H:15])([H:12])[H:13])([H:10])[H:11])([H:8])[H:9]>>[N:1]1([H:8])[C:2](=[O:3])[C:4]([H:10])([H:11])[C:5]([H:12])([H:13])[C:6]1([H:14])[H:15].[O:7]([H:9])[H:16]"
N        1.05968489       0.41564628       0.75323419
C        1.30939549      -0.87954655       0.52781701
O        2.39544510      -1.42954990       0.62773257
C        0.08162986      -1.64162281       0.03807317
C       -1.07567833      -0.68936014      -0.21230691
C       -0.65941745       0.54621447      -0.90723148
O       -0.49425144       2.34851410       0.33569027
H        1.80504270       0.82261745       1.31092261
H        0.37542576       1.75761214       0.59480295
H        0.36871144      -2.15082150      -0.88566937
H       -0.15498491      -2.42007853       0.76149427
H       -1.85534150      -1.15310205      -0.83444804
H       -1.59617783      -0.39345783       0.70241232
H        0.12703614       0.48892528      -1.65042303
H       -1.48780303       1.14758623      -1.26541912
H       -0.19871691       3.23042336       0.10331858
16
Frame=5 idx=010734 GeodesicLength=0.5717996916359964 rxn_smarts="[N:1]([C:2](=[O:3])[C:4]([C:5]([C:6]([O:7][H:16])([H:14])[H:15])([H:12])[H:13])([H:10])[H:11])([H:8])[H:9]>>[N:1]1([H:8])[C:2](=[O:3])[C:4]([H:10])([H:11])[C:5]([H:12])([H:13])[C:6]1([H:14])[H:15].[O:7]([H:9])[H:16]"
N        1.00582976       0.40377948       0.80784303
C        1.30011996      -0.87127400       0.52802179
O        2.40906637      -1.37651767       0.59858850
C        0.09193604      -1.65090286       0.02038256
C       -1.08394560      -0.71311384      -0.20412589
C       -0.68301236       0.54463884      -0.87586464
O       -0.40809864       2.38934284       0.27752916
H        1.68793895       0.79233512       1.45228641
H        0.48097133       1.78845389       0.51800331
H        0.38810620      -2.12794520      -0.91761767
H       -0.12153660      -2.45287259       0.72463404
H       -1.85883653      -1.18105684      -0.82764586
H       -1.60273972      -0.44035065       0.71855570
H        0.05938144       0.48411246      -1.66450679
H       -1.53135209       1.12946609      -1.21876833
H       -0.13382851       3.28190494       0.06268467
16
Frame=6 idx=010734 GeodesicLength=0.6844762524166114 rxn_smarts="[N:1]([C:2](=[O:3])[C:4]([C:5]([C:6]([O:7][H:16])([H:14])[H:15])([H:12])[H:13])([H:10])[H:11])([H:8])[H:9]>>[N:1]1([H:8])[C:2](=[O:3])[C:4]([H:10])([H:11])[C:5]([H:12])([H:13])[C:6]1([H:14])[H:15].[O:7]([H:9])[H:16]"
N        0.94450236       0.39480381       0.86185891
C        1.28678722      -0.85754136       0.53672298
O        2.41800547      -1.31162219       0.58430905
C        0.10430262      -1.65676515       0.00208685
C       -1.09366840      -0.73970681      -0.19875060
C       -0.71176715       0.54395961      -0.84104271
O       -0.30961242       2.42414922       0.21037359
H        1.56793620       0.77201623       1.56854361
H        0.58317705       1.79751566       0.45228818
H        0.41480819      -2.09684343      -0.94929568
H       -0.08489692      -2.48408171       0.68320148
H       -1.85912148      -1.21304061      -0.82836024
H       -1.61489148      -0.49631908       0.73059314
H       -0.02125336       0.48274670      -1.67723439
H       -1.58080734       1.11644404      -1.15627946
H       -0.04350056       3.32428506       0.02098530
16
Frame=7 idx=010734 GeodesicLength=0.7971139211456313 rxn_smarts="[N:1]([C:2](=[O:3])[C:4]([C:5]([C:6]([O:7][H:16])([H:14])[H:15])([H:12])[H:13])([H:10])[H:11])([H:8])[H:9]>>[N:1]1([H:8])[C:2](=[O:3])[C:4]([H:10])([H:11])[C:5]([H:12])([H:13])[C:6]1([H:14])[H:15].[O:7]([H:9])[H:16]"
N        0.87958626       0.38857843       0.91229597
C        1.27021164      -0.84053784       0.55288192
O        2.42157067      -1.24025303       0.58418379
C        0.11828646      -1.65867399      -0.01667649
C       -1.10390116      -0.76736845      -0.19610480
C       -0.74364865       0.54418971      -0.80394000
O       -0.20308561       2.44926617       0.13422595
H        1.45078484       0.76297629       1.66219940
H        0.68034842       1.78746546       0.39975935
H        0.44657462      -2.05760169      -0.98019960
H       -0.04603961      -2.51215712       0.63771618
H       -1.85647580      -1.24617039      -0.83550392
H       -1.63013707      -0.55860664       0.73866934
H       -0.11303193       0.48502279      -1.68818474
H       -1.63312562       1.10831992      -1.07934610
H        0.06208256       3.35555036      -0.02197624
16
Frame=8 idx=010734 GeodesicLength=0.909983722530713 rxn_smarts="[N:1]([C:2](=[O:3])[C:4]([C:5]([C:6]([O:7][H:16])([H:14])[H:15])([H:12])[H:13])([H:10])[H:11])([H:8])[H:9]>>[N:1]1([H:8])[C:2](=[O:3])[C:4]([H:10])([H:11])[C:5]([H:12])([H:13])[C:6]1([H:14])[H:15].[O:7]([H:9])[H:16]"
N        0.81544575       0.38555317       0.95598292
C        1.25160768      -0.82231069       0.57479906
O        2.41973727      -1.16863155       0.59824605
C        0.13342393      -1.65634880      -0.03573680
C       -1.11368820      -0.79416524      -0.19577098
C       -0.77650784       0.54533866      -0.76645211
O       -0.09169345       2.46156386       0.05009443
H        1.33854054       0.76437296       1.73693112
H        0.77322777       1.76269768       0.35804571
H        0.48119961      -2.01067836      -1.00984090
H       -0.00609936      -2.53593631       0.58886751
H       -1.85158377      -1.27790153      -0.84694386
H       -1.64548710      -0.62343942       0.74341266
H       -0.21370698       0.49062015      -1.69748159
H       -1.68471541       1.10468670      -0.99065403
H        0.17029955       3.37457873      -0.06349918
16
Frame=9 idx=010734 GeodesicLength=1.0229467676642783 rxn_smarts="[N:1]([C:2](=[O:3])[C:4]([C:5]([C:6]([O:7][H:16])([H:14])[H:15])([H:12])[H:13])([H:10])[H:11])([H:8])[H:9]>>[N:1]1([H:8])[C:2](=[O:3])[C:4]([H:10])([H:11])[C:5]([H:12])([H:13])[C:6]1([H:14])[H:15].[O:7]([H:9])[H:16]"
N        0.75542906       0.38549921       0.99193114
C        1.23186996      -0.80495136       0.60114957
O        2.41309020      -1.10179134       0.62447537
C        0.14903137      -1.64992160      -0.05482805
C       -1.12226995      -0.81836954      -0.19724601
C       -0.80802342       0.54760149      -0.72995218
O        0.02121741       2.45943509      -0.03901432
H        1.23348241       0.77536262       1.79474052
H        0.86139532       1.72716567       0.32613387
H        0.51657149      -1.95721610      -1.03765590
H        0.03350916      -2.55474379       0.53751400
H       -1.84500080      -1.30585737      -0.86095248
H       -1.65893715      -0.68702095       0.74534158
H       -0.31954762       0.49950159      -1.70421459
H       -1.73169404       1.10466904      -0.89418639
H        0.26987658       3.38063735      -0.10323614
16
Frame=10 idx=010734 GeodesicLength=1.136359308412941 rxn_smarts="[N:1]([C:2](=[O:3])[C:4]([C:5]([C:6]([O:7][H:16])([H:14])[H:15])([H:12])[H:13])([H:10])[H:11])([H:8])[H:9]>>[N:1]1([H:8])[C:2](=[O:3])[C:4]([H:10])([H:11])[C:5]([H:12])([H:13])[C:6]1([H:14])[H:15].[O:7]([H:9])[H:16]"
N        0.70109842       0.38807639       1.02072996
C        1.21167237      -0.78958117       0.63067212
O        2.40253193      -1.04285312       0.66115313
C        0.16477853      -1.63972790      -0.07397569
C       -1.12938126      -0.83913465      -0.20009942
C       -0.83715203       0.55132417      -0.69495609
O        0.13390900       2.44310404      -0.13085599
H        1.13631789       0.79431884       1.83836890
H        0.94486971       1.68459241       0.30348859
H        0.55155010      -1.89787198      -1.06359656
H        0.07223298      -2.56871756       0.48375632
H       -1.83727617      -1.32907154      -0.87636773
H       -1.66949066      -0.74733597       0.74504775
H       -0.42806195       0.51215384      -1.70726965
H       -1.77200701       1.10738854      -0.79304398
H        0.35440814       3.37333565      -0.14305165
16
Frame=11 idx=010734 GeodesicLength=1.2507303658588993 rxn_smarts="[N:1]([C:2](=[O:3])[C:4]([C:5]([C:6]([O:7][H:16])([H:14])[H:15])([H:12])[H:13])([H:10])[H:11])([H:8])[H:9]>>[N:1]1([H:8])[C:2](=[O:3])[C:4]([H:10])([H:11])[C:5]([H:12])([H:13])[C:6]1([H:14])[H:15].[O:7]([H:9])[H:16]"
N        0.65219196       0.39259634       1.04435204
C        1.19107112      -0.77648208       0.66266526
O        2.38864713      -0.99249543       0.70661479
C        0.18075896      -1.62577423      -0.09359987
C       -1.13499338      -0.85634685      -0.20415246
C       -0.86408427       0.55690403      -0.66064007
O        0.24464354       2.41318385      -0.22203831
H        1.04663527       0.81949412       1.87080895
H        1.02313965       1.63750986       0.29035802
H        0.58608965      -1.83211027      -1.08800023
H        0.11048973      -2.57801785       0.42665922
H       -1.82834971      -1.34731464      -0.89310528
H       -1.67709257      -0.80445429       0.74273667
H       -0.53780540       0.52997314      -1.70466249
H       -1.80549073       1.11178380      -0.68829975
H        0.42414905       3.35155050      -0.18969648
16
Frame=12 idx=010734 GeodesicLength=1.3664618821074024 rxn_smarts="[N:1]([C:2](=[O:3])[C:4]([C:5]([C:6]([O:7][H:16])([H:14])[H:15])([H:12])[H:13])([H:10])[H:11])([H:8])[H:9]>>[N:1]1([H:8])[C:2](=[O:3])[C:4]([H:10])([H:11])[C:5]([H:12])([H:13])[C:6]1([H:14])[H:15].[O:7]([H:9])[H:16]"
N        0.60784208       0.39810373       1.06514951
C        1.17005899      -0.76553885       0.69632259
O        2.37203060      -0.94983081       0.75853382
C        0.19719460      -1.60806981      -0.11410769
C       -1.13922012      -0.87039596      -0.20944622
C       -0.88969670       0.56457034      -0.62563472
O        0.35059825       2.37074533      -0.30808062
H        0.96355300       0.84872392       1.89529706
H        1.09502571       1.58828560       0.28800213
H        0.62015948      -1.75956559      -1.11109405
H        0.14917647      -2.58260867       0.36559177
H       -1.81795070      -1.36073615      -0.91180761
H       -1.68209276      -0.85954987       0.73822027
H       -0.64755389       0.55426594      -1.69420657
H       -1.83350617       1.11607433      -0.58093061
H        0.48438114       3.31552654      -0.25180905
16
Frame=13 idx=010734 GeodesicLength=1.4840162580131357 rxn_smarts="[N:1]([C:2](=[O:3])[C:4]([C:5]([C:6]([O:7][H:16])([H:14])[H:15])([H:12])[H:13])([H:10])[H:11])([H:8])[H:9]>>[N:1]1([H:8])[C:2](=[O:3])[C:4]([H:10])([H:11])[C:5]([H:12])([H:13])[C:6]1([H:14])[H:15].[O:7]([H:9])[H:16]"
N        0.56684371       0.40404431       1.08471674
C        1.14840871      -0.75633496       0.73103834
O        2.35289638      -0.91338588       0.81515359
C        0.21434175      -1.58644003      -0.13567813
C       -1.14223839      -0.88188717      -0.21607239
C       -0.91528655       0.57407004      -0.58881842
O        0.44975960       2.31648806      -0.38741633
H        0.88577495       0.88063895       1.91402376
H        1.15962615       1.53875722       0.29636169
H        0.65385609      -1.67974444      -1.13271730
H        0.18937821      -2.58208194       0.30020979
H       -1.80573505      -1.36983502      -0.93306015
H       -1.68483254      -0.91402237       0.73114440
H       -0.75693853       0.58514720      -1.67450892
H       -1.85817510       1.11820573      -0.47140372
H        0.54232061       3.26638031      -0.33297295
16
Frame=14 idx=010734 GeodesicLength=1.6040224233854363 rxn_smarts="[N:1]([C:2](=[O:3])[C:4]([C:5]([C:6]([O:7][H:16])([H:14])[H:15])([H:12])[H:13])([H:10])[H:11])([H:8])[H:9]>>[N:1]1([H:8])[C:2](=[O:3])[C:4]([H:10])([H:11])[C:5]([H:12])([H:13])[C:6]1([H:14])[H:15].[O:7]([H:9])[H:16]"
N        0.52869047       0.41044541       1.10353619
C        1.12598709      -0.74850178       0.76628277
O        2.33137536      -0.88218036       0.87494599
C        0.23211556      -1.56077086      -0.15790742
C       -1.14417125      -0.89093775      -0.22412349
C       -0.94144447       0.58512171      -0.54999249
O        0.54214357       2.25045044      -0.46161475
H        0.81314968       0.91498547       1.92757295
H        1.21715606       1.49002262       0.31336354
H        0.68684989      -1.59309978      -1.15202392
H        0.23133619      -2.57572093       0.23143225
H       -1.79154486      -1.37465867      -0.95712487
H       -1.68551634      -0.96796620       0.72110791
H       -0.86506194       0.62161279      -1.64544091
H       -1.88077685       1.11689098      -0.36094818
H        0.59971185       3.20430690      -0.42906558
16
Frame=15 idx=010734 GeodesicLength=1.7273606938547694 rxn_smarts="[N:1]([C:2](=[O:3])[C:4]([C:5]([C:6]([O:7][H:16])([H:14])[H:15])([H:12])[H:13])([H:10])[H:11])([H:8])[H:9]>>[N:1]1([H:8])[C:2](=[O:3])[C:4]([H:10])([H:11])[C:5]([H:12])([H:13])[C:6]1([H:14])[H:15].[O:7]([H:9])[H:16]"
N        0.49334424       0.41736320       1.12186490
C        1.10290011      -0.74176459       0.80141411
O        2.30781634      -0.85539168       0.93602625
C        0.25024136      -1.53110577      -0.18019470
C       -1.14504939      -0.89727287      -0.23366466
C       -0.96809507       0.59765377      -0.50915704
O        0.62806101       2.17258042      -0.53179335
H        0.74610724       0.95157410       1.93622395
H        1.26807899       1.44285432       0.33686630
H        0.71852411      -1.50078990      -1.16813022
H        0.27474888      -2.56290021       0.16080571
H       -1.77530509      -1.37460082      -0.98418248
H       -1.68431532      -1.02074444       0.70772604
H       -0.97002848       0.66251505      -1.60739123
H       -1.90209292       1.11142307      -0.25124220
H        0.65506401       3.12860636      -0.53517137
16
Frame=16 idx=010734 GeodesicLength=1.8553976474608145 rxn_smarts="[N:1]([C:2](=[O:3])[C:4]([C:5]([C:6]([O:7][H:16])([H:14])[H:15])([H:12])[H:13])([H:10])[H:11])([H:8])[H:9]>>[N:1]1([H:8])[C:2](=[O:3])[C:4]([H:10])([H:11])[C:5]([H:12])([H:13])[C:6]1([H:14])[H:15].[O:7]([H:9])[H:16]"
N        0.46072015       0.42494997       1.13987488
C        1.07920915      -0.73588882       0.83609735
O        2.28253039      -0.83226061       0.99707933
C        0.26852374      -1.49756146      -0.20199005
C       -1.14489508      -0.90068490      -0.24478064
C       -0.99513679       0.61151228      -0.46632589
O        0.70699696       2.08326889      -0.59818269
H        0.68528719       0.99041689       1.94004544
H        1.31278518       1.39735820       0.36418753
H        0.74859710      -1.40385514      -1.18030687
H        0.31924228      -2.54331718       0.08965450
H       -1.75691912      -1.36911084      -1.01439841
H       -1.68139860      -1.07189658       0.69061813
H       -1.07008404       0.70689950      -1.56115425
H       -1.92278928       1.10142100      -0.14339766
H        0.70733077       3.03874880      -0.64702070
