13
Frame=0 idx=000680 GeodesicLength=0.0 rxn_smarts="[C:1]([c:2]1[c:3]([H:10])[n:4]([H:11])[c:5]([H:12])[c:6]1[H:13])([H:7])([H:8])[H:9]>>[C:1](=[C:2]1[C:3]([H:7])([H:10])[N:4]([H:11])[C:5]([H:12])=[C:6]1[H:13])([H:8])[H:9]"
C        1.93274048       0.08313662      -0.13027011
C        0.52975581       0.26170502      -0.27653597
C       -0.07470989      -1.00756814      -0.04444339
N       -1.39545666      -0.71375985       0.37466426
C       -1.60853276       0.61753495       0.18402774
C       -0.48443557       1.25464218      -0.27905130
H        1.25910471      -1.31559612       0.25705567
H        2.65601170       0.65053705      -0.71350509
H        2.26136129      -0.10085061       0.88600345
H       -0.01935828      -1.73002644      -0.85588846
H       -2.12650767      -1.38216098       0.52643772
H       -2.55258145       1.06143908       0.46925971
H       -0.37739170       2.32096730      -0.39775426
13
Frame=1 idx=000680 GeodesicLength=0.045014167539682126 rxn_smarts="[C:1]([c:2]1[c:3]([H:10])[n:4]([H:11])[c:5]([H:12])[c:6]1[H:13])([H:7])([H:8])[H:9]>>[C:1](=[C:2]1[C:3]([H:7])([H:10])[N:4]([H:11])[C:5]([H:12])=[C:6]1[H:13])([H:8])[H:9]"
C        1.93099864       0.08477965      -0.13229925
C        0.52879225       0.25674486      -0.28796308
C       -0.07810981      -1.01081567      -0.04301281
N       -1.39888299      -0.71432643       0.37366000
C       -1.61042250       0.61787923       0.18274868
C       -0.48090092       1.25512178      -0.26271300
H        1.26685025      -1.31228479       0.28306752
H        2.64714792       0.62848095      -0.74587240
H        2.27625944      -0.06435939       0.88397038
H       -0.02329524      -1.74132336      -0.84742540
H       -2.13482855      -1.38273175       0.50063105
H       -2.55975776       1.05995301       0.45254364
H       -0.36385072       2.32288191      -0.35733533
13
Frame=2 idx=000680 GeodesicLength=0.08999750255870194 rxn_smarts="[C:1]([c:2]1[c:3]([H:10])[n:4]([H:11])[c:5]([H:12])[c:6]1[H:13])([H:7])([H:8])[H:9]>>[C:1](=[C:2]1[C:3]([H:7])([H:10])[N:4]([H:11])[C:5]([H:12])=[C:6]1[H:13])([H:8])[H:9]"
C        1.92913171       0.08660976      -0.13411449
C        0.52769440       0.25192125      -0.29872728
C       -0.08158629      -1.01406987      -0.04186423
N       -1.40253350      -0.71502855       0.37208029
C       -1.61244419       0.61814848       0.18102335
C       -0.47733811       1.25522487      -0.24615708
H        1.27448918      -1.30816427       0.30933841
H        2.63793883       0.60543439      -0.77685333
H        2.29147378      -0.02738939       0.88057500
H       -0.02725191      -1.75211809      -0.83956860
H       -2.14269665      -1.38307387       0.47525481
H       -2.56635433       1.05874848       0.43634121
H       -0.35052291       2.32375681      -0.31732805
13
Frame=3 idx=000680 GeodesicLength=0.13503456964503854 rxn_smarts="[C:1]([c:2]1[c:3]([H:10])[n:4]([H:11])[c:5]([H:12])[c:6]1[H:13])([H:7])([H:8])[H:9]>>[C:1](=[C:2]1[C:3]([H:7])([H:10])[N:4]([H:11])[C:5]([H:12])=[C:6]1[H:13])([H:8])[H:9]"
C        1.92721493       0.08857635      -0.13604342
C        0.52648093       0.24729668      -0.30871824
C       -0.08510997      -1.01728118      -0.04071499
N       -1.40632517      -0.71577873       0.37040347
C       -1.61452993       0.61841895       0.17923215
C       -0.47371253       1.25505323      -0.22900342
H        1.28210325      -1.30317303       0.33596848
H        2.62830055       0.58112491      -0.80717374
H        2.30742024       0.01008481       0.87530265
H       -0.03134328      -1.76242656      -0.83201581
H       -2.15012114      -1.38316643       0.45053478
H       -2.57325901       1.05749137       0.41822283
H       -0.33711887       2.32377964      -0.27599475
13
Frame=4 idx=000680 GeodesicLength=0.18003574110811754 rxn_smarts="[C:1]([c:2]1[c:3]([H:10])[n:4]([H:11])[c:5]([H:12])[c:6]1[H:13])([H:7])([H:8])[H:9]>>[C:1](=[C:2]1[C:3]([H:7])([H:10])[N:4]([H:11])[C:5]([H:12])=[C:6]1[H:13])([H:8])[H:9]"
C        1.92520629       0.09070274      -0.13771938
C        0.52517404       0.24281422      -0.31808728
C       -0.08869419      -1.02052076      -0.03983852
N       -1.41027256      -0.71665337       0.36828992
C       -1.61656151       0.61869800       0.17755944
C       -0.47015923       1.25444844      -0.21192807
H        1.28961507      -1.29739725       0.36279697
H        2.61836548       0.55601150      -0.83584750
H        2.32365789       0.04793662       0.86857451
H       -0.03551852      -1.77225941      -0.82511588
H       -2.15721733      -1.38305265       0.42600635
H       -2.57957818       1.05652792       0.40062154
H       -0.32401726       2.32274398      -0.23531210
13
Frame=5 idx=000680 GeodesicLength=0.22503219194470547 rxn_smarts="[C:1]([c:2]1[c:3]([H:10])[n:4]([H:11])[c:5]([H:12])[c:6]1[H:13])([H:7])([H:8])[H:9]>>[C:1](=[C:2]1[C:3]([H:7])([H:10])[N:4]([H:11])[C:5]([H:12])=[C:6]1[H:13])([H:8])[H:9]"
C        1.92316412       0.09301892      -0.13896743
C        0.52382273       0.23852478      -0.32672170
C       -0.09233144      -1.02378041      -0.03928280
N       -1.41431176      -0.71765566       0.36590842
C       -1.61845898       0.61902489       0.17643099
C       -0.46672021       1.25344457      -0.19496593
H        1.29708294      -1.29099917       0.38957185
H        2.60821832       0.53019093      -0.86279565
H        2.34017479       0.08589904       0.86053995
H       -0.03986436      -1.78145570      -0.81907606
H       -2.16397646      -1.38275326       0.40174687
H       -2.58542397       1.05579276       0.38341239
H       -0.31137572       2.32074833      -0.19580088
13
Frame=6 idx=000680 GeodesicLength=0.2699966358158698 rxn_smarts="[C:1]([c:2]1[c:3]([H:10])[n:4]([H:11])[c:5]([H:12])[c:6]1[H:13])([H:7])([H:8])[H:9]>>[C:1](=[C:2]1[C:3]([H:7])([H:10])[N:4]([H:11])[C:5]([H:12])=[C:6]1[H:13])([H:8])[H:9]"
C        1.92105882       0.09548871      -0.13989213
C        0.52242176       0.23437305      -0.33478431
C       -0.09601548      -1.02709028      -0.03902774
N       -1.41842811      -0.71878810       0.36323378
C       -1.62019955       0.61938618       0.17587003
C       -0.46341220       1.25202700      -0.17824581
H        1.30444929      -1.28388573       0.41646709
H        2.59786660       0.50367885      -0.88792410
H        2.35693622       0.12414022       0.85102495
H       -0.04437666      -1.79019470      -0.81378307
H       -2.17045753      -1.38224408       0.37756599
H       -2.59075679       1.05528548       0.36667512
H       -0.29908638       2.31782339      -0.15717979
13
Frame=7 idx=000680 GeodesicLength=0.31487271151837776 rxn_smarts="[C:1]([c:2]1[c:3]([H:10])[n:4]([H:11])[c:5]([H:12])[c:6]1[H:13])([H:7])([H:8])[H:9]>>[C:1](=[C:2]1[C:3]([H:7])([H:10])[N:4]([H:11])[C:5]([H:12])=[C:6]1[H:13])([H:8])[H:9]"
C        1.91890330       0.09811336      -0.14030075
C        0.52100581       0.23037069      -0.34221064
C       -0.09975355      -1.03044164      -0.03917782
N       -1.42254833      -0.72005062       0.36037429
C       -1.62172962       0.61977453       0.17608873
C       -0.46025035       1.25021235      -0.16185158
H        1.31173299      -1.27625352       0.44321064
H        2.58739769       0.47664586      -0.91107018
H        2.37378154       0.16243891       0.84026319
H       -0.04912865      -1.79829500      -0.80949531
H       -2.17659373      -1.38153065       0.35367611
H       -2.59554177       1.05495816       0.35054266
H       -0.28727535       2.31405755      -0.12004934
13
Frame=8 idx=000680 GeodesicLength=0.3597825977746008 rxn_smarts="[C:1]([c:2]1[c:3]([H:10])[n:4]([H:11])[c:5]([H:12])[c:6]1[H:13])([H:7])([H:8])[H:9]>>[C:1](=[C:2]1[C:3]([H:7])([H:10])[N:4]([H:11])[C:5]([H:12])=[C:6]1[H:13])([H:8])[H:9]"
C        1.91675022       0.10087422      -0.14033754
C        0.51958309       0.22652517      -0.34904007
C       -0.10354078      -1.03385266      -0.03964263
N       -1.42668579      -0.72144401       0.35746569
C       -1.62309939       0.62019201       0.17717967
C       -0.45721401       1.24807397      -0.14557454
H        1.31897128      -1.26808410       0.46991558
H        2.57682304       0.44909934      -0.93238573
H        2.39091026       0.20080799       0.82795804
H       -0.05417179      -1.80586979      -0.80608798
H       -2.18246893      -1.38062206       0.33013121
H       -2.60003736       1.05471963       0.33421745
H       -0.27581984       2.30958030      -0.08379915
13
Frame=9 idx=000680 GeodesicLength=0.4046350399115174 rxn_smarts="[C:1]([c:2]1[c:3]([H:10])[n:4]([H:11])[c:5]([H:12])[c:6]1[H:13])([H:7])([H:8])[H:9]>>[C:1](=[C:2]1[C:3]([H:7])([H:10])[N:4]([H:11])[C:5]([H:12])=[C:6]1[H:13])([H:8])[H:9]"
C        1.91457334       0.10379639      -0.13979780
C        0.51818164       0.22281497      -0.35532791
C       -0.10737844      -1.03733143      -0.04056109
N       -1.43080054      -0.72297181       0.35443571
C       -1.62431850       0.62058745       0.17901350
C       -0.45433393       1.24558742      -0.12961797
H        1.32612204      -1.25948251       0.49646314
H        2.56628251       0.42116216      -0.95154051
H        2.40809208       0.23914063       0.81433856
H       -0.05950239      -1.81287504      -0.80375881
H       -2.18805786      -1.37951787       0.30690454
H       -2.60398839       1.05462213       0.31866612
H       -0.26487156       2.30446751      -0.04921747
13
Frame=10 idx=000680 GeodesicLength=0.4494495072073138 rxn_smarts="[C:1]([c:2]1[c:3]([H:10])[n:4]([H:11])[c:5]([H:12])[c:6]1[H:13])([H:7])([H:8])[H:9]>>[C:1](=[C:2]1[C:3]([H:7])([H:10])[N:4]([H:11])[C:5]([H:12])=[C:6]1[H:13])([H:8])[H:9]"
C        1.91240168       0.10689532      -0.13848642
C        0.51685331       0.21922860      -0.36111758
C       -0.11128030      -1.04092625      -0.04208048
N       -1.43486427      -0.72466564       0.35128213
C       -1.62539967       0.62092684       0.18156095
C       -0.45162734       1.24275779      -0.11411916
H        1.33317359      -1.25065284       0.52269072
H        2.55601569       0.39312769      -0.96815711
H        2.42519128       0.27724173       0.79960104
H       -0.06520331      -1.81930600      -0.80275154
H       -2.19338008      -1.37825080       0.28409217
H       -2.60729585       1.05472879       0.30464387
H       -0.25458473       2.29889477      -0.01715857
13
Frame=11 idx=000680 GeodesicLength=0.49409023636197913 rxn_smarts="[C:1]([c:2]1[c:3]([H:10])[n:4]([H:11])[c:5]([H:12])[c:6]1[H:13])([H:7])([H:8])[H:9]>>[C:1](=[C:2]1[C:3]([H:7])([H:10])[N:4]([H:11])[C:5]([H:12])=[C:6]1[H:13])([H:8])[H:9]"
C        1.91024067       0.11019401      -0.13627035
C        0.51564791       0.21574822      -0.36641232
C       -0.11520420      -1.04459985      -0.04434551
N       -1.43876131      -0.72651818       0.34803365
C       -1.62626877       0.62117514       0.18482502
C       -0.44906591       1.23959810      -0.09920268
H        1.34015103      -1.24174451       0.54842224
H        2.54582957       0.36490576      -0.98239095
H        2.44182276       0.31503881       0.78442329
H       -0.07125462      -1.82495783      -0.80331951
H       -2.19831887      -1.37684764       0.26181475
H       -2.60982624       1.05497929       0.29260118
H       -0.24499201       2.29302868       0.01182118
13
Frame=12 idx=000680 GeodesicLength=0.5386712643460404 rxn_smarts="[C:1]([c:2]1[c:3]([H:10])[n:4]([H:11])[c:5]([H:12])[c:6]1[H:13])([H:7])([H:8])[H:9]>>[C:1](=[C:2]1[C:3]([H:7])([H:10])[N:4]([H:11])[C:5]([H:12])=[C:6]1[H:13])([H:8])[H:9]"
C        1.90810701       0.11364357      -0.13325489
C        0.51456678       0.21236487      -0.37127663
C       -0.11918514      -1.04839110      -0.04726211
N       -1.44257137      -0.72851803       0.34469018
C       -1.62705961       0.62130044       0.18847252
C       -0.44663905       1.23614087      -0.08470580
H        1.34700803      -1.23273230       0.57388271
H        2.53602245       0.33667856      -0.99410946
H        2.45830789       0.35253926       0.76817422
H       -0.07769565      -1.83005075      -0.80527028
H       -2.20300926      -1.37531581       0.24010546
H       -2.61181643       1.05538171       0.28225418
H       -0.23603565       2.28695871       0.03829990
13
Frame=13 idx=000680 GeodesicLength=0.5832289812182895 rxn_smarts="[C:1]([c:2]1[c:3]([H:10])[n:4]([H:11])[c:5]([H:12])[c:6]1[H:13])([H:7])([H:8])[H:9]>>[C:1](=[C:2]1[C:3]([H:7])([H:10])[N:4]([H:11])[C:5]([H:12])=[C:6]1[H:13])([H:8])[H:9]"
C        1.90599781       0.11724359      -0.12960743
C        0.51358562       0.20908291      -0.37572210
C       -0.12320439      -1.05226214      -0.05069900
N       -1.44630247      -0.73064555       0.34128474
C       -1.62780094       0.62130405       0.19241037
C       -0.44431901       1.23243871      -0.07044229
H        1.35376575      -1.22346768       0.59929469
H        2.52644692       0.30810217      -1.00371549
H        2.47472376       0.38994809       0.75057230
H       -0.08445987      -1.83461841      -0.80837760
H       -2.20745767      -1.37366815       0.21887809
H       -2.61343402       1.05583808       0.27285818
H       -0.22754150       2.28070432       0.06326554
13
Frame=14 idx=000680 GeodesicLength=0.6277340337630842 rxn_smarts="[C:1]([c:2]1[c:3]([H:10])[n:4]([H:11])[c:5]([H:12])[c:6]1[H:13])([H:7])([H:8])[H:9]>>[C:1](=[C:2]1[C:3]([H:7])([H:10])[N:4]([H:11])[C:5]([H:12])=[C:6]1[H:13])([H:8])[H:9]"
C        1.90391432       0.12100187      -0.12545134
C        0.51269457       0.20592015      -0.37973052
C       -0.12724345      -1.05617283      -0.05454749
N       -1.44995892      -0.73287055       0.33786601
C       -1.62850811       0.62117936       0.19662961
C       -0.44207790       1.22850665      -0.05620680
H        1.36043548      -1.21382832       0.62479761
H        2.51699548       0.27906857      -1.01145462
H        2.49115049       0.42724954       0.73133433
H       -0.09150453      -1.83867367      -0.81247243
H       -2.21167781      -1.37188136       0.19811673
H       -2.61480792       1.05626167       0.26373135
H       -0.21941170       2.27423890       0.08738757
13
Frame=15 idx=000680 GeodesicLength=0.6721844201311622 rxn_smarts="[C:1]([c:2]1[c:3]([H:10])[n:4]([H:11])[c:5]([H:12])[c:6]1[H:13])([H:7])([H:8])[H:9]>>[C:1](=[C:2]1[C:3]([H:7])([H:10])[N:4]([H:11])[C:5]([H:12])=[C:6]1[H:13])([H:8])[H:9]"
C        1.90187535       0.12492702      -0.12056197
C        0.51195769       0.20283574      -0.38338501
C       -0.13130125      -1.06016206      -0.05900734
N       -1.45350160      -0.73522715       0.33431039
C       -1.62915788       0.62089737       0.20096896
C       -0.43993437       1.22432884      -0.04232525
H        1.36697676      -1.20398975       0.65029934
H        2.50785109       0.24973962      -1.01697294
H        2.50726810       0.46436044       0.71088631
H       -0.09884051      -1.84218353      -0.81782343
H       -2.21566397      -1.37000425       0.17777509
H       -2.61573330       1.05677072       0.25623452
H       -0.21179609       2.26770699       0.10960132
13
Frame=16 idx=000680 GeodesicLength=0.71660809363315 rxn_smarts="[C:1]([c:2]1[c:3]([H:10])[n:4]([H:11])[c:5]([H:12])[c:6]1[H:13])([H:7])([H:8])[H:9]>>[C:1](=[C:2]1[C:3]([H:7])([H:10])[N:4]([H:11])[C:5]([H:12])=[C:6]1[H:13])([H:8])[H:9]"
C        1.89988839       0.12903067      -0.11503176
C        0.51136855       0.19984581      -0.38667125
C       -0.13536229      -1.06420670      -0.06399003
N       -1.45695416      -0.73771034       0.33062537
C       -1.62977066       0.62045861       0.20543807
C       -0.43787148       1.21993457      -0.02862499
H        1.37339138      -1.19383236       0.67596521
H        2.49897532       0.21998342      -1.02040776
H        2.52320329       0.50127594       0.68889730
H       -0.10641822      -1.84517431      -0.82429129
H       -2.21945375      -1.36803460       0.15775628
H       -2.61636675       1.05730239       0.24990592
H       -0.20462965       2.26112689       0.13042891
