16
Frame=0 idx=001165 GeodesicLength=0.0 rxn_smarts="[C:1]([O:2][C:3]([C:4]([O:5][C:6]([H:14])([H:15])[H:16])([H:12])[H:13])([H:10])[H:11])([H:7])([H:8])[H:9]>>[C:1]([O:2][H:13])([H:7])([H:8])[H:9].[C:3](=[C:4]([O:5][C:6]([H:14])([H:15])[H:16])[H:12])([H:10])[H:11]"
C        2.12526414       0.21100311      -0.66534341
O        1.54498975       0.45025089       0.59865169
C        0.42511403      -0.86308345       1.23027731
C       -0.76374429      -0.17181360       0.92400389
O       -1.46092666      -0.64480364      -0.19598699
C       -2.16325956       0.36362972      -0.87319966
H        2.52778448       1.14359565      -1.06617021
H        2.94696779      -0.50238573      -0.56849464
H        1.38845889      -0.18996401      -1.37458029
H        0.74804504      -1.68923342       0.60472084
H        0.79765803      -0.86149555       2.24565058
H       -1.39585456       0.16661712       1.74493952
H        0.34907191       0.70817314       0.58370373
H       -2.92207175       0.82926683      -0.23127349
H       -1.48658179       1.15036118      -1.23180119
H       -2.66091538      -0.10011826      -1.72509775
16
Frame=1 idx=001165 GeodesicLength=0.0718710524121418 rxn_smarts="[C:1]([O:2][C:3]([C:4]([O:5][C:6]([H:14])([H:15])[H:16])([H:12])[H:13])([H:10])[H:11])([H:7])([H:8])[H:9]>>[C:1]([O:2][H:13])([H:7])([H:8])[H:9].[C:3](=[C:4]([O:5][C:6]([H:14])([H:15])[H:16])[H:12])([H:10])[H:11]"
C        2.14982068       0.20836963      -0.66210202
O        1.54278701       0.45915005       0.58568279
C        0.42109426      -0.86960233       1.21922995
C       -0.76661266      -0.17355556       0.91738480
O       -1.47083032      -0.64140243      -0.19772869
C       -2.18103079       0.36968607      -0.86386838
H        2.51478470       1.14591841      -1.08705691
H        3.00183530      -0.46284962      -0.52895550
H        1.45262830      -0.25061115      -1.37585346
H        0.73296909      -1.70068605       0.59428383
H        0.78504917      -0.87992807       2.23799170
H       -1.39217763       0.17603774       1.73868816
H        0.33778527       0.72133441       0.57290863
H       -2.93293374       0.83291717      -0.21227819
H       -1.50738231       1.15690937      -1.22676710
H       -2.68778633      -0.09168762      -1.71155959
16
Frame=2 idx=001165 GeodesicLength=0.14369068045481218 rxn_smarts="[C:1]([O:2][C:3]([C:4]([O:5][C:6]([H:14])([H:15])[H:16])([H:12])[H:13])([H:10])[H:11])([H:7])([H:8])[H:9]>>[C:1]([O:2][H:13])([H:7])([H:8])[H:9].[C:3](=[C:4]([O:5][C:6]([H:14])([H:15])[H:16])[H:12])([H:10])[H:11]"
C        2.17496361       0.20550866      -0.65845577
O        1.54043308       0.46810963       0.57178790
C        0.41700345      -0.87634855       1.20737743
C       -0.76942875      -0.17515476       0.91035042
O       -1.48109608      -0.63776405      -0.19959672
C       -2.19934614       0.37596914      -0.85418273
H        2.50144242       1.14496246      -1.11011563
H        3.05551545      -0.41949090      -0.48846976
H        1.52127620      -0.31184987      -1.37311004
H        0.71729359      -1.71229254       0.58290137
H        0.77224736      -0.89905709       2.22934907
H       -1.38811856       0.18524700       1.73223595
H        0.32622120       0.73473832       0.56154132
H       -2.94400447       0.83664508      -0.19266907
H       -1.52895436       1.16377060      -1.22153258
H       -2.71544801      -0.08299314      -1.69741117
16
Frame=3 idx=001165 GeodesicLength=0.2152465838485839 rxn_smarts="[C:1]([O:2][C:3]([C:4]([O:5][C:6]([H:14])([H:15])[H:16])([H:12])[H:13])([H:10])[H:11])([H:7])([H:8])[H:9]>>[C:1]([O:2][H:13])([H:7])([H:8])[H:9].[C:3](=[C:4]([O:5][C:6]([H:14])([H:15])[H:16])[H:12])([H:10])[H:11]"
C        2.20067771       0.20243811      -0.65438470
O        1.53795146       0.47716036       0.55690062
C        0.41287118      -0.88330015       1.19468719
C       -0.77215583      -0.17658239       0.90288225
O       -1.49169761      -0.63392319      -0.20156647
C       -2.21819855       0.38239664      -0.84413995
H        2.48844312       1.14034004      -1.13509029
H        3.10735845      -0.37262875      -0.44744523
H        1.59414442      -0.37281545      -1.36602270
H        0.70104022      -1.72399337       0.57050525
H        0.75928129      -0.91884727       2.21967556
H       -1.38364499       0.19426038       1.72557672
H        0.31440005       0.74844382       0.54962521
H       -2.95527661       0.84036023      -0.17245688
H       -1.55131757       1.17086868      -1.21612827
H       -2.74387674      -0.07417768      -1.68261831
16
Frame=4 idx=001165 GeodesicLength=0.28665100993867476 rxn_smarts="[C:1]([O:2][C:3]([C:4]([O:5][C:6]([H:14])([H:15])[H:16])([H:12])[H:13])([H:10])[H:11])([H:7])([H:8])[H:9]>>[C:1]([O:2][H:13])([H:7])([H:8])[H:9].[C:3](=[C:4]([O:5][C:6]([H:14])([H:15])[H:16])[H:12])([H:10])[H:11]"
C        2.22708088       0.19909421      -0.64977815
O        1.53534932       0.48610558       0.54097105
C        0.40859848      -0.89058865       1.18104764
C       -0.77481911      -0.17782907       0.89494790
O       -1.50283334      -0.62987897      -0.20353815
C       -2.23766079       0.38901188      -0.83368883
H        2.47554519       1.13179187      -1.16194855
H        3.15756417      -0.32158043      -0.40605711
H        1.67173626      -0.43357262      -1.35412463
H        0.68409990      -1.73581526       0.55685651
H        0.74605618      -0.93948863       2.20884285
H       -1.37866241       0.20322032       1.71871156
H        0.30234523       0.76234510       0.53702565
H       -2.96658435       0.84442501      -0.15157297
H       -1.57441607       1.17800652      -1.21076609
H       -2.77339954      -0.06524686      -1.66692869
16
Frame=5 idx=001165 GeodesicLength=0.3575830936628464 rxn_smarts="[C:1]([O:2][C:3]([C:4]([O:5][C:6]([H:14])([H:15])[H:16])([H:12])[H:13])([H:10])[H:11])([H:7])([H:8])[H:9]>>[C:1]([O:2][H:13])([H:7])([H:8])[H:9].[C:3](=[C:4]([O:5][C:6]([H:14])([H:15])[H:16])[H:12])([H:10])[H:11]"
C        2.25413914       0.19548530      -0.64458510
O        1.53257987       0.49531323       0.52376752
C        0.40439264      -0.89805223       1.16632577
C       -0.77732751      -0.17898483       0.88637597
O       -1.51409846      -0.62545028      -0.20595420
C       -2.25767588       0.39599898      -0.82277697
H        2.46276493       1.11824298      -1.19166058
H        3.20555289      -0.26628098      -0.36423837
H        1.75383150      -0.49443223      -1.33596782
H        0.66668329      -1.74762008       0.54195037
H        0.73282844      -0.96080890       2.19664591
H       -1.37329102       0.21155611       1.71150018
H        0.28997626       0.77661168       0.52386259
H       -2.97834841       0.84803282      -0.12987448
H       -1.59861190       1.18606624      -1.20457947
H       -2.80339578      -0.05567781      -1.65079132
16
Frame=6 idx=001165 GeodesicLength=0.42824592607959955 rxn_smarts="[C:1]([O:2][C:3]([C:4]([O:5][C:6]([H:14])([H:15])[H:16])([H:12])[H:13])([H:10])[H:11])([H:7])([H:8])[H:9]>>[C:1]([O:2][H:13])([H:7])([H:8])[H:9].[C:3](=[C:4]([O:5][C:6]([H:14])([H:15])[H:16])[H:12])([H:10])[H:11]"
C        2.28182937       0.19155892      -0.63876051
O        1.52968614       0.50439477       0.50534528
C        0.40005671      -0.90596237       1.15052933
C       -0.77973814      -0.18006141       0.87725248
O       -1.52577685      -0.62072740      -0.20856778
C       -2.27817333       0.40336085      -0.81142329
H        2.44977946       1.09936122      -1.22387731
H        3.25138180      -0.20577913      -0.32282581
H        1.84082276      -0.55494400      -1.31116734
H        0.64862649      -1.75954563       0.52556713
H        0.71936482      -0.98313140       2.18312206
H       -1.36743280       0.21956496       1.70405662
H        0.27737595       0.79109874       0.51017293
H       -2.99011807       0.85187798      -0.10742637
H       -1.62348732       1.19456158      -1.19809199
H       -2.83419699      -0.04562769      -1.63390542
16
Frame=7 idx=001165 GeodesicLength=0.49821750875894133 rxn_smarts="[C:1]([O:2][C:3]([C:4]([O:5][C:6]([H:14])([H:15])[H:16])([H:12])[H:13])([H:10])[H:11])([H:7])([H:8])[H:9]>>[C:1]([O:2][H:13])([H:7])([H:8])[H:9].[C:3](=[C:4]([O:5][C:6]([H:14])([H:15])[H:16])[H:12])([H:10])[H:11]"
C        2.31007718       0.18737291      -0.63224632
O        1.52671546       0.51345769       0.48563007
C        0.39568784      -0.91421602       1.13362072
C       -0.78196295      -0.18100489       0.86753551
O       -1.53778016      -0.61578295      -0.21132863
C       -2.29912486       0.41090389      -0.79963045
H        2.43802096       1.07477665      -1.25770515
H        3.29401015      -0.14127165      -0.28253365
H        1.93162160      -0.61337363      -1.27959340
H        0.63009113      -1.77140109       0.50763215
H        0.70576092      -1.00630762       2.16819840
H       -1.36100428       0.22730693       1.69631297
H        0.26457905       0.80589665       0.49595853
H       -3.00184547       0.85578624      -0.08427377
H       -1.64906886       1.20327019      -1.19140616
H       -2.86577771      -0.03541332      -1.61617083
16
Frame=8 idx=001165 GeodesicLength=0.5677243775121247 rxn_smarts="[C:1]([O:2][C:3]([C:4]([O:5][C:6]([H:14])([H:15])[H:16])([H:12])[H:13])([H:10])[H:11])([H:7])([H:8])[H:9]>>[C:1]([O:2][H:13])([H:7])([H:8])[H:9].[C:3](=[C:4]([O:5][C:6]([H:14])([H:15])[H:16])[H:12])([H:10])[H:11]"
C        2.33906809       0.18286697      -0.62482806
O        1.52364669       0.52236228       0.46450431
C        0.39119609      -0.92297284       1.11535584
C       -0.78403022      -0.18185821       0.85712312
O       -1.55030531      -0.61056857      -0.21423193
C       -2.32064588       0.41877116      -0.78729183
H        2.42712937       1.04359540      -1.29328149
H        3.33358586      -0.07165530      -0.24366020
H        2.02700674      -0.66985389      -1.24010736
H        0.61101707      -1.78318464       0.48770728
H        0.69195576      -1.03062083       2.15158917
H       -1.35389461       0.23479473       1.68823957
H        0.25157439       0.82089188       0.48101812
H       -3.01342117       0.86007883      -0.06023224
H       -1.67540758       1.21219849      -1.18457512
H       -2.89847530      -0.02484546      -1.59732917
16
Frame=9 idx=001165 GeodesicLength=0.636362209939589 rxn_smarts="[C:1]([O:2][C:3]([C:4]([O:5][C:6]([H:14])([H:15])[H:16])([H:12])[H:13])([H:10])[H:11])([H:7])([H:8])[H:9]>>[C:1]([O:2][H:13])([H:7])([H:8])[H:9].[C:3](=[C:4]([O:5][C:6]([H:14])([H:15])[H:16])[H:12])([H:10])[H:11]"
C        2.36888829       0.17816575      -0.61643955
O        1.52047290       0.53173597       0.44152913
C        0.38688789      -0.93183516       1.09557073
C       -0.78577078      -0.18250890       0.84580059
O       -1.56295494      -0.60502186      -0.21760133
C       -2.34291109       0.42678310      -0.77429908
H        2.41956588       1.00521236      -1.33002699
H        3.36899660       0.00077971      -0.20640063
H        2.12517467      -0.72282928      -1.19224660
H        0.59176813      -1.79454429       0.46575724
H        0.67835298      -1.05554559       2.13307725
H       -1.34610844       0.24172655       1.67968657
H        0.23830174       0.83642315       0.46517546
H       -3.02549231       0.86354449      -0.03507858
H       -1.70325460       1.22193550      -1.17683242
H       -2.93191694      -0.01402151      -1.57767180
16
Frame=10 idx=001165 GeodesicLength=0.7045236292123231 rxn_smarts="[C:1]([O:2][C:3]([C:4]([O:5][C:6]([H:14])([H:15])[H:16])([H:12])[H:13])([H:10])[H:11])([H:7])([H:8])[H:9]>>[C:1]([O:2][H:13])([H:7])([H:8])[H:9].[C:3](=[C:4]([O:5][C:6]([H:14])([H:15])[H:16])[H:12])([H:10])[H:11]"
C        2.39920507       0.17316518      -0.60690648
O        1.51720970       0.54065025       0.41710225
C        0.38236937      -0.94152819       1.07426254
C       -0.78733946      -0.18328380       0.83374074
O       -1.57612421      -0.59915913      -0.22118105
C       -2.36540147       0.43537340      -0.76076042
H        2.41199656       0.95813381      -1.36834114
H        3.40079249       0.07993569      -0.17259859
H        2.22789575      -0.77289273      -1.13418078
H        0.57209280      -1.80584579       0.44133450
H        0.66444916      -1.08208001       2.11264129
H       -1.33759725       0.24813116       1.67079947
H        0.22487290       0.85201427       0.44895555
H       -3.03685992       0.86787981      -0.00907605
H       -1.73128658       1.23193482      -1.16895759
H       -2.96627490      -0.00242876      -1.55683423
16
Frame=11 idx=001165 GeodesicLength=0.7715931685944407 rxn_smarts="[C:1]([O:2][C:3]([C:4]([O:5][C:6]([H:14])([H:15])[H:16])([H:12])[H:13])([H:10])[H:11])([H:7])([H:8])[H:9]>>[C:1]([O:2][H:13])([H:7])([H:8])[H:9].[C:3](=[C:4]([O:5][C:6]([H:14])([H:15])[H:16])[H:12])([H:10])[H:11]"
C        2.42999277       0.16811903      -0.59629971
O        1.51389772       0.55001433       0.39068096
C        0.37810109      -0.95137706       1.05143900
C       -0.78847215      -0.18392659       0.82075807
O       -1.58921824      -0.59302067      -0.22525521
C       -2.38828999       0.44405068      -0.74660911
H        2.40865311       0.90280270      -1.40638412
H        3.42758414       0.16097843      -0.14255307
H        2.33126636      -0.81723272      -1.06689154
H        0.55255931      -1.81659681       0.41475255
H        0.65079721      -1.10923464       2.09026655
H       -1.32836954       0.25384547       1.66141429
H        0.21125454       0.86819523       0.43214333
H       -3.04833160       0.87139000       0.01791430
H       -1.76041582       1.24263982      -1.16017584
H       -3.00100890       0.00935280      -1.53520043
16
Frame=12 idx=001165 GeodesicLength=0.8380568624723606 rxn_smarts="[C:1]([O:2][C:3]([C:4]([O:5][C:6]([H:14])([H:15])[H:16])([H:12])[H:13])([H:10])[H:11])([H:7])([H:8])[H:9]>>[C:1]([O:2][H:13])([H:7])([H:8])[H:9].[C:3](=[C:4]([O:5][C:6]([H:14])([H:15])[H:16])[H:12])([H:10])[H:11]"
C        2.46114356       0.16292931      -0.58427847
O        1.51046756       0.55905952       0.36245444
C        0.37373945      -0.96203632       1.02681346
C       -0.78931984      -0.18475207       0.80689026
O       -1.60276343      -0.58661393      -0.22957114
C       -2.41133493       0.45323044      -0.73180926
H        2.40711897       0.83727648      -1.44397737
H        3.44963936       0.24737164      -0.11791417
H        2.43738566      -0.85585429      -0.98842018
H        0.53295437      -1.82703780       0.38523009
H        0.63703042      -1.13799517       2.06559100
H       -1.31824593       0.25889059       1.65159885
H        0.19746136       0.88448831       0.41489397
H       -3.05889877       0.87568216       0.04586548
H       -1.78973078       1.25353441      -1.15120795
H       -3.03664703       0.02182674      -1.51215903
16
Frame=13 idx=001165 GeodesicLength=0.9032211109256969 rxn_smarts="[C:1]([O:2][C:3]([C:4]([O:5][C:6]([H:14])([H:15])[H:16])([H:12])[H:13])([H:10])[H:11])([H:7])([H:8])[H:9]>>[C:1]([O:2][H:13])([H:7])([H:8])[H:9].[C:3](=[C:4]([O:5][C:6]([H:14])([H:15])[H:16])[H:12])([H:10])[H:11]"
C        2.49208762       0.15800281      -0.57126092
O        1.50703214       0.56855950       0.33217871
C        0.36975603      -0.97282500       1.00095577
C       -0.78959390      -0.18553510       0.79223324
O       -1.61590722      -0.58010215      -0.23429809
C       -2.43418611       0.46230022      -0.71656485
H        2.41086378       0.76384191      -1.47867805
H        3.46621085       0.33308080      -0.09930093
H        2.54049763      -0.88603636      -0.90176164
H        0.51387473      -1.83687596       0.35388966
H        0.62357499      -1.16717654       2.03925241
H       -1.30742061       0.26315729       1.64131833
H        0.18357114       0.90143505       0.39761074
H       -3.06896457       0.87919713       0.07441723
H       -1.81938630       1.26476793      -1.14154578
H       -3.07201021       0.03420848      -1.48844579
16
Frame=14 idx=001165 GeodesicLength=0.9678500428894034 rxn_smarts="[C:1]([O:2][C:3]([C:4]([O:5][C:6]([H:14])([H:15])[H:16])([H:12])[H:13])([H:10])[H:11])([H:7])([H:8])[H:9]>>[C:1]([O:2][H:13])([H:7])([H:8])[H:9].[C:3](=[C:4]([O:5][C:6]([H:14])([H:15])[H:16])[H:12])([H:10])[H:11]"
C        2.52322170       0.15319349      -0.55669916
O        1.50335804       0.57799320       0.29934166
C        0.36586621      -0.98424767       0.97307602
C       -0.78945178      -0.18649439       0.77655454
O       -1.62939495      -0.57341581      -0.23926407
C       -2.45717993       0.47167959      -0.70053069
H        2.41893675       0.68008025      -1.51001458
H        3.47761715       0.42113093      -0.08746248
H        2.64341391      -0.90771528      -0.80444113
H        0.49504015      -1.84621838       0.31944341
H        0.61033252      -1.19763514       2.01032315
H       -1.29552789       0.26667761       1.63052214
H        0.16944233       0.91862538       0.37972103
H       -3.07807936       0.88314285       0.10408070
H       -1.84939814       1.27614886      -1.13151458
H       -3.10819673       0.04705451      -1.46313594
16
Frame=15 idx=001165 GeodesicLength=1.0312587988461281 rxn_smarts="[C:1]([O:2][C:3]([C:4]([O:5][C:6]([H:14])([H:15])[H:16])([H:12])[H:13])([H:10])[H:11])([H:7])([H:8])[H:9]>>[C:1]([O:2][H:13])([H:7])([H:8])[H:9].[C:3](=[C:4]([O:5][C:6]([H:14])([H:15])[H:16])[H:12])([H:10])[H:11]"
C        2.55363315       0.14899858      -0.54131328
O        1.49962474       0.58790467       0.26392909
C        0.36249717      -0.99563544       0.94419562
C       -0.78860615      -0.18737854       0.76017184
O       -1.64231122      -0.56682674      -0.24443213
C       -2.47966019       0.48064570      -0.68410664
H        2.43375010       0.59058193      -1.53539129
H        3.48422907       0.50483152      -0.08228783
H        2.73943712      -0.91915475      -0.70164505
H        0.47687406      -1.85499414       0.28370963
H        0.59755727      -1.22807176       1.97997289
H       -1.28283872       0.26957360       1.61924801
H        0.15527135       0.93650670       0.36192979
H       -3.08631906       0.88626306       0.13411059
H       -1.87937589       1.28741451      -1.12100206
H       -3.14376281       0.05934112      -1.43708918
16
Frame=16 idx=001165 GeodesicLength=1.0943351395267982 rxn_smarts="[C:1]([O:2][C:3]([C:4]([O:5][C:6]([H:14])([H:15])[H:16])([H:12])[H:13])([H:10])[H:11])([H:7])([H:8])[H:9]>>[C:1]([O:2][H:13])([H:7])([H:8])[H:9].[C:3](=[C:4]([O:5][C:6]([H:14])([H:15])[H:16])[H:12])([H:10])[H:11]"
C        2.58419333       0.14505165      -0.52431471
O        1.49533351       0.59757658       0.22423675
C        0.35932156      -1.00747956       0.91296180
C       -0.78724156      -0.18834079       0.74257491
O       -1.65584908      -0.56026022      -0.24948077
C       -2.50254530       0.48962319      -0.66655596
H        2.45609271       0.49294772      -1.55403497
H        3.48620937       0.58724209      -0.08318524
H        2.83228555      -0.92032751      -0.59032451
H        0.45884881      -1.86330382       0.24486231
H        0.58543438      -1.25922518       1.94666369
H       -1.26859121       0.27214822       1.60725384
H        0.14077278       0.95455540       0.34268040
H       -3.09347763       0.88984197       0.16558213
H       -1.91012737       1.29834268      -1.11024566
H       -3.18065986       0.07160758      -1.40867401
