16
Frame=0 idx=007251 GeodesicLength=0.0 rxn_smarts="[C:1]([C:2]1([C:3]([H:11])([H:12])[H:13])[C:4]([H:14])([H:15])[O:5][C:6]([H:16])=[N:7]1)([H:8])([H:9])[H:10]>>[C:1]([C:2]1([C:3]([H:11])([H:12])[H:13])[C:4]([H:14])([H:15])[N:7]1[C:6](=[O:5])[H:16])([H:8])([H:9])[H:10]"
C        0.84747094       1.14060758       0.59938146
C        0.29837721      -0.13330559      -0.01660636
C        1.34331789      -0.92068205      -0.78841287
C       -0.58879309      -0.88917324       0.81199389
O       -2.49548122       0.35930618       0.59418070
C       -1.98829868       0.56300951      -0.51794685
N       -0.83511227       0.12592520      -0.97181302
H        1.25965474       1.77904831      -0.18223836
H        1.64004170       0.90632409       1.31318725
H        0.06112556       1.68965798       1.11864625
H        2.18645411      -1.18233744      -0.14704214
H        0.91251912      -1.83033770      -1.20617728
H        1.69898028      -0.30529764      -1.61588065
H       -0.90278296      -1.86901473       0.47514116
H       -0.89141441      -0.57986768       1.79982320
H       -2.54605892       1.14613723      -1.26623644
16
Frame=1 idx=007251 GeodesicLength=0.044090525705662485 rxn_smarts="[C:1]([C:2]1([C:3]([H:11])([H:12])[H:13])[C:4]([H:14])([H:15])[O:5][C:6]([H:16])=[N:7]1)([H:8])([H:9])[H:10]>>[C:1]([C:2]1([C:3]([H:11])([H:12])[H:13])[C:4]([H:14])([H:15])[N:7]1[C:6](=[O:5])[H:16])([H:8])([H:9])[H:10]"
C        0.84615293       1.14328119       0.59539663
C        0.29763575      -0.13020914      -0.02093755
C        1.34334272      -0.92161734      -0.78676933
C       -0.60223940      -0.88467002       0.80345532
O       -2.49654197       0.34065891       0.59207450
C       -1.98943558       0.56632789      -0.51813536
N       -0.83886446       0.12002308      -0.96864033
H        1.25830667       1.78228749      -0.18587390
H        1.63816316       0.90855072       1.30969690
H        0.06061807       1.69221167       1.11608242
H        2.18061767      -1.18791017      -0.13951371
H        0.91281343      -1.83001505      -1.20763307
H        1.70828515      -0.30818026      -1.61170448
H       -0.89566110      -1.87542548       0.47968530
H       -0.88154378      -0.58018597       1.80007827
H       -2.54164925       1.16487249      -1.25726161
16
Frame=2 idx=007251 GeodesicLength=0.08818814610555141 rxn_smarts="[C:1]([C:2]1([C:3]([H:11])([H:12])[H:13])[C:4]([H:14])([H:15])[O:5][C:6]([H:16])=[N:7]1)([H:8])([H:9])[H:10]>>[C:1]([C:2]1([C:3]([H:11])([H:12])[H:13])[C:4]([H:14])([H:15])[N:7]1[C:6](=[O:5])[H:16])([H:8])([H:9])[H:10]"
C        0.84480681       1.14590452       0.59141894
C        0.29682565      -0.12714542      -0.02529126
C        1.34331371      -0.92253095      -0.78514364
C       -0.61550970      -0.88031583       0.79502402
O       -2.49757916       0.32235771       0.58968737
C       -1.99059181       0.56951241      -0.51831953
N       -0.84261166       0.11422672      -0.96547238
H        1.25689606       1.78551927      -0.18948455
H        1.63630582       0.91072989       1.30615979
H        0.06009963       1.69466701       1.11359689
H        2.17465093      -1.19346581      -0.13204396
H        0.91306098      -1.82964323      -1.20914796
H        1.71760049      -0.31105453      -1.60740903
H       -0.88833965      -1.88142613       0.48466267
H       -0.87180094      -0.58068906       1.79977590
H       -2.53712715       1.18335342      -1.24801326
16
Frame=3 idx=007251 GeodesicLength=0.13231759626991638 rxn_smarts="[C:1]([C:2]1([C:3]([H:11])([H:12])[H:13])[C:4]([H:14])([H:15])[O:5][C:6]([H:16])=[N:7]1)([H:8])([H:9])[H:10]>>[C:1]([C:2]1([C:3]([H:11])([H:12])[H:13])[C:4]([H:14])([H:15])[N:7]1[C:6](=[O:5])[H:16])([H:8])([H:9])[H:10]"
C        0.84333629       1.14849888       0.58735989
C        0.29592948      -0.12415678      -0.02969372
C        1.34325985      -0.92344840      -0.78351225
C       -0.62859030      -0.87616887       0.78670796
O       -2.49865005       0.30420249       0.58697551
C       -1.99182642       0.57237024      -0.51856569
N       -0.84638390       0.10838116      -0.96234869
H        1.25529408       1.78874733      -0.19319107
H        1.63438140       0.91296451       1.30250477
H        0.05943930       1.69702517       1.11106906
H        2.16858632      -1.19895894      -0.12458644
H        0.91334190      -1.82928990      -1.21065874
H        1.72693271      -0.31396547      -1.60299249
H       -0.88077315      -1.88709063       0.49011745
H       -0.86219242      -0.58137729       1.79893677
H       -2.53208509       1.20226650      -1.23812234
16
Frame=4 idx=007251 GeodesicLength=0.17648516957513236 rxn_smarts="[C:1]([C:2]1([C:3]([H:11])([H:12])[H:13])[C:4]([H:14])([H:15])[O:5][C:6]([H:16])=[N:7]1)([H:8])([H:9])[H:10]>>[C:1]([C:2]1([C:3]([H:11])([H:12])[H:13])[C:4]([H:14])([H:15])[N:7]1[C:6](=[O:5])[H:16])([H:8])([H:9])[H:10]"
C        0.84170731       1.15107530       0.58318175
C        0.29494175      -0.12125755      -0.03415870
C        1.34319384      -0.92438204      -0.78186581
C       -0.64148142      -0.87224829       0.77850398
O       -2.49978963       0.28610466       0.58392659
C       -1.99316529       0.57484573      -0.51890196
N       -0.85019624       0.10243199      -0.95928688
H        1.25345367       1.79197410      -0.19704437
H        1.63235833       0.91529499       1.29870390
H        0.05858913       1.69929517       1.10844450
H        2.16243279      -1.20438595      -0.11711558
H        0.91368391      -1.82897918      -1.21215047
H        1.73629813      -0.31692654      -1.59844392
H       -0.87295421      -1.89241748       0.49604084
H       -0.85272898      -0.58224694       1.79757579
H       -2.52634308       1.22182202      -1.22740965
16
Frame=5 idx=007251 GeodesicLength=0.2207464405363462 rxn_smarts="[C:1]([C:2]1([C:3]([H:11])([H:12])[H:13])[C:4]([H:14])([H:15])[O:5][C:6]([H:16])=[N:7]1)([H:8])([H:9])[H:10]>>[C:1]([C:2]1([C:3]([H:11])([H:12])[H:13])[C:4]([H:14])([H:15])[N:7]1[C:6](=[O:5])[H:16])([H:8])([H:9])[H:10]"
C        0.83976875       1.15366554       0.57875328
C        0.29382672      -0.11850555      -0.03872509
C        1.34315270      -0.92536569      -0.78017084
C       -0.65417554      -0.86863918       0.77041938
O       -2.50107598       0.26780533       0.58047013
C       -1.99470023       0.57664913      -0.51943439
N       -0.85408881       0.09615993      -0.95634598
H        1.25117779       1.79520417      -0.20122176
H        1.63009472       0.91787227       1.29465250
H        0.05734704       1.70148331       1.10554191
H        2.15623514      -1.20966571      -0.10956504
H        0.91420308      -1.82880834      -1.21353082
H        1.74569373      -0.32001228      -1.59376695
H       -0.86479220      -1.89757900       0.50247539
H       -0.84344220      -0.58325660       1.79571642
H       -2.51922470       1.24299266      -1.21526815
16
Frame=6 idx=007251 GeodesicLength=0.2650514683936874 rxn_smarts="[C:1]([C:2]1([C:3]([H:11])([H:12])[H:13])[C:4]([H:14])([H:15])[O:5][C:6]([H:16])=[N:7]1)([H:8])([H:9])[H:10]>>[C:1]([C:2]1([C:3]([H:11])([H:12])[H:13])[C:4]([H:14])([H:15])[N:7]1[C:6](=[O:5])[H:16])([H:8])([H:9])[H:10]"
C        0.83774212       1.15622118       0.57425697
C        0.29264717      -0.11580667      -0.04335660
C        1.34309116      -0.92634509      -0.77847600
C       -0.66670627      -0.86522097       0.76241264
O       -2.50236703       0.24967227       0.57671253
C       -1.99627880       0.57821907      -0.52004883
N       -0.85796839       0.08990045      -0.95346190
H        1.24878718       1.79841847      -0.20546720
H        1.62777047       0.92046565       1.29051464
H        0.05600491       1.70359230       1.10259253
H        2.14991893      -1.21491572      -0.10202277
H        0.91474345      -1.82862378      -1.21493797
H        1.75514621      -0.32311372      -1.58894391
H       -0.85651259      -1.90227694       0.50927754
H       -0.83430826      -0.58439459       1.79336749
H       -2.51171026       1.26420809      -1.20241917
16
Frame=7 idx=007251 GeodesicLength=0.3094199813276106 rxn_smarts="[C:1]([C:2]1([C:3]([H:11])([H:12])[H:13])[C:4]([H:14])([H:15])[O:5][C:6]([H:16])=[N:7]1)([H:8])([H:9])[H:10]>>[C:1]([C:2]1([C:3]([H:11])([H:12])[H:13])[C:4]([H:14])([H:15])[N:7]1[C:6](=[O:5])[H:16])([H:8])([H:9])[H:10]"
C        0.83561767       1.15876080       0.56967460
C        0.29139761      -0.11315313      -0.04806449
C        1.34301497      -0.92732613      -0.77677719
C       -0.67908674      -0.86199449       0.75446626
O       -2.50371313       0.23168472       0.57263708
C       -1.99792037       0.57956434      -0.52076371
N       -0.86185129       0.08363980      -0.95064423
H        1.24626274       1.80163539      -0.20979714
H        1.62538772       0.92310581       1.28626977
H        0.05454830       1.70563400       1.09957487
H        2.14348389      -1.22014124      -0.09447233
H        0.91531031      -1.82843294      -1.21637715
H        1.76467016      -0.32625234      -1.58396477
H       -0.84810427      -1.90659177       0.51641679
H       -0.82536848      -0.58560027       1.79051374
H       -2.50364909       1.28546744      -1.18869210
16
Frame=8 idx=007251 GeodesicLength=0.3538491978909306 rxn_smarts="[C:1]([C:2]1([C:3]([H:11])([H:12])[H:13])[C:4]([H:14])([H:15])[O:5][C:6]([H:16])=[N:7]1)([H:8])([H:9])[H:10]>>[C:1]([C:2]1([C:3]([H:11])([H:12])[H:13])[C:4]([H:14])([H:15])[N:7]1[C:6](=[O:5])[H:16])([H:8])([H:9])[H:10]"
C        0.83335043       1.16129717       0.56495630
C        0.29007264      -0.11057086      -0.05286149
C        1.34294005      -0.92832816      -0.77506141
C       -0.69131003      -0.85898631       0.74659635
O       -2.50513188       0.21369522       0.56820733
C       -1.99964712       0.58059241      -0.52160493
N       -0.86574673       0.07729982      -0.94791956
H        1.24354413       1.80485733      -0.21428871
H        1.62290217       0.92584307       1.28188123
H        0.05291504       1.70762547       1.09642310
H        2.13693330      -1.22534161      -0.08688008
H        0.91594386      -1.82827248      -1.21782763
H        1.77428547      -0.32943900      -1.57881252
H       -0.83956379      -1.91048473       0.52388212
H       -0.81661850      -0.58689659       1.78721338
H       -2.49486902       1.30710927      -1.17390349
16
Frame=9 idx=007251 GeodesicLength=0.3984166452059483 rxn_smarts="[C:1]([C:2]1([C:3]([H:11])([H:12])[H:13])[C:4]([H:14])([H:15])[O:5][C:6]([H:16])=[N:7]1)([H:8])([H:9])[H:10]>>[C:1]([C:2]1([C:3]([H:11])([H:12])[H:13])[C:4]([H:14])([H:15])[N:7]1[C:6](=[O:5])[H:16])([H:8])([H:9])[H:10]"
C        0.83085933       1.16384300       0.56002147
C        0.28865971      -0.10808261      -0.05779009
C        1.34290000      -0.92936587      -0.77330676
C       -0.70339313      -0.85623632       0.73876850
O       -2.50666926       0.19557463       0.56334260
C       -2.00149901       0.58118030      -0.52267135
N       -0.86966118       0.07078127      -0.94533575
H        1.24052912       1.80808106      -0.21903802
H        1.62023574       0.92875181       1.27728572
H        0.05098507       1.70955444       1.09302412
H        2.13028868      -1.23048034      -0.07919771
H        0.91672055      -1.82817776      -1.21924535
H        1.78402527      -0.33272043      -1.57346410
H       -0.83088033      -1.91403914       0.53177194
H       -0.80807506      -0.58824727       1.78340526
H       -2.48502550       1.32958323      -1.15757046
16
Frame=10 idx=007251 GeodesicLength=0.4431918889117627 rxn_smarts="[C:1]([C:2]1([C:3]([H:11])([H:12])[H:13])[C:4]([H:14])([H:15])[O:5][C:6]([H:16])=[N:7]1)([H:8])([H:9])[H:10]>>[C:1]([C:2]1([C:3]([H:11])([H:12])[H:13])[C:4]([H:14])([H:15])[N:7]1[C:6](=[O:5])[H:16])([H:8])([H:9])[H:10]"
C        0.82804394       1.16643652       0.55476677
C        0.28711324      -0.10573322      -0.06284224
C        1.34288085      -0.93045493      -0.77147239
C       -0.71530446      -0.85379522       0.73102043
O       -2.50841618       0.17704675       0.55803859
C       -2.00354830       0.58116973      -0.52398989
N       -0.87365493       0.06393323      -0.94288071
H        1.23706246       1.81132109      -0.22419468
H        1.61730470       0.93197138       1.27237456
H        0.04865082       1.71145164       1.08923728
H        2.12353992      -1.23551028      -0.07135798
H        0.91766691      -1.82820227      -1.22056235
H        1.79385599      -0.33612281      -1.56791263
H       -0.82199945      -1.91744705       0.53978708
H       -0.79981813      -0.58945396       1.77924511
H       -2.47337737       1.35338941      -1.13925693
16
Frame=11 idx=007251 GeodesicLength=0.4880893392051937 rxn_smarts="[C:1]([C:2]1([C:3]([H:11])([H:12])[H:13])[C:4]([H:14])([H:15])[O:5][C:6]([H:16])=[N:7]1)([H:8])([H:9])[H:10]>>[C:1]([C:2]1([C:3]([H:11])([H:12])[H:13])[C:4]([H:14])([H:15])[N:7]1[C:6](=[O:5])[H:16])([H:8])([H:9])[H:10]"
C        0.82510391       1.16903942       0.54935829
C        0.28550402      -0.10343017      -0.06801354
C        1.34287312      -0.93156368      -0.76961708
C       -0.72710159      -0.85154202       0.72330190
O       -2.51024831       0.15849417       0.55230285
C       -2.00565635       0.58095737      -0.52548437
N       -0.87763790       0.05705122      -0.94054857
H        1.23342897       1.81457140      -0.22953003
H        1.61427677       0.93528526       1.26731408
H        0.04615367       1.71331933       1.08529001
H        2.11665097      -1.24054209      -0.06345437
H        0.91868483      -1.82823954      -1.22190725
H        1.80382473      -0.33958071      -1.56214625
H       -0.81310584      -1.92039022       0.54804844
H       -0.79180001      -0.59064782       1.77463412
H       -2.46095098       1.37721808      -1.11954822
16
Frame=12 idx=007251 GeodesicLength=0.5330995825454795 rxn_smarts="[C:1]([C:2]1([C:3]([H:11])([H:12])[H:13])[C:4]([H:14])([H:15])[O:5][C:6]([H:16])=[N:7]1)([H:8])([H:9])[H:10]>>[C:1]([C:2]1([C:3]([H:11])([H:12])[H:13])[C:4]([H:14])([H:15])[N:7]1[C:6](=[O:5])[H:16])([H:8])([H:9])[H:10]"
C        0.82211926       1.17163610       0.54385730
C        0.28385378      -0.10114029      -0.07328340
C        1.34285690      -0.93266970      -0.76775462
C       -0.73878879      -0.84943455       0.71560348
O       -2.51212299       0.14003223       0.54619064
C       -2.00777027       0.58068051      -0.52709498
N       -0.88158394       0.05023771      -0.93830016
H        1.22973666       1.81782500      -0.23495631
H        1.61121999       0.93861945       1.26215176
H        0.04360345       1.71515368       1.08126190
H        2.10960264      -1.24559049      -0.05552823
H        0.91972030      -1.82824060      -1.22330883
H        1.81391372      -0.34306840      -1.55616483
H       -0.80426286      -1.92282803       0.55646975
H       -0.78403053      -0.59178586       1.76959732
H       -2.44806731       1.40057324      -1.09874080
16
Frame=13 idx=007251 GeodesicLength=0.5781899473836736 rxn_smarts="[C:1]([C:2]1([C:3]([H:11])([H:12])[H:13])[C:4]([H:14])([H:15])[O:5][C:6]([H:16])=[N:7]1)([H:8])([H:9])[H:10]>>[C:1]([C:2]1([C:3]([H:11])([H:12])[H:13])[C:4]([H:14])([H:15])[N:7]1[C:6](=[O:5])[H:16])([H:8])([H:9])[H:10]"
C        0.81915722       1.17421500       0.53832174
C        0.28218454      -0.09883838      -0.07863026
C        1.34282231      -0.93375868      -0.76590145
C       -0.75036257      -0.84744092       0.70793234
O       -2.51401097       0.12175703       0.53976991
C       -2.00984949       0.58045272      -0.52875761
N       -0.88547507       0.04357551      -0.93609877
H        1.22607048       1.82108043      -0.24039844
H        1.60819667       0.94191337       1.25693458
H        0.04109001       1.71695325       1.07723223
H        2.10239252      -1.25067303      -0.04762142
H        0.92073790      -1.82817161      -1.22479564
H        1.82410652      -0.34656757      -1.54998077
H       -0.79553207      -1.92474100       0.56497355
H       -0.77650323      -0.59283364       1.76417660
H       -2.43502478       1.42307753      -1.07715660
16
Frame=14 idx=007251 GeodesicLength=0.6233410653388624 rxn_smarts="[C:1]([C:2]1([C:3]([H:11])([H:12])[H:13])[C:4]([H:14])([H:15])[O:5][C:6]([H:16])=[N:7]1)([H:8])([H:9])[H:10]>>[C:1]([C:2]1([C:3]([H:11])([H:12])[H:13])[C:4]([H:14])([H:15])[N:7]1[C:6](=[O:5])[H:16])([H:8])([H:9])[H:10]"
C        0.81627102       1.17676699       0.53279612
C        0.28051488      -0.09650535      -0.08403745
C        1.34276142      -0.93481913      -0.76406776
C       -0.76182034      -0.84553402       0.70029495
O       -2.51587445       0.10374191       0.53309228
C       -2.01186237       0.58034847      -0.53042225
N       -0.88929635       0.03712193      -0.93391687
H        1.22249904       1.82433485      -0.24579773
H        1.60525583       0.94512134       1.25170013
H        0.03868331       1.71871769       1.07325915
H        2.09502091      -1.25579587      -0.03976666
H        0.92171155      -1.82800901      -1.22638306
H        1.83438245      -0.35006572      -1.54360062
H       -0.78696488      -1.92611864       0.57350345
H       -0.76920337      -0.59377867       1.75840760
H       -2.42207864       1.44447323      -1.05506129
16
Frame=15 idx=007251 GeodesicLength=0.6685261184554079 rxn_smarts="[C:1]([C:2]1([C:3]([H:11])([H:12])[H:13])[C:4]([H:14])([H:15])[O:5][C:6]([H:16])=[N:7]1)([H:8])([H:9])[H:10]>>[C:1]([C:2]1([C:3]([H:11])([H:12])[H:13])[C:4]([H:14])([H:15])[N:7]1[C:6](=[O:5])[H:16])([H:8])([H:9])[H:10]"
C        0.81349861       1.17928529       0.52731456
C        0.27886031      -0.09412964      -0.08948921
C        1.34267172      -0.93584401      -0.76226179
C       -0.77315576      -0.84369648       0.69270432
O       -2.51768984       0.08603899       0.52621273
C       -2.01378820       0.58041414      -0.53204321
N       -0.89303871       0.03091264      -0.93172934
H        1.21906905       1.82758653      -0.25111173
H        1.60243376       0.94821164       1.24647667
H        0.03643331       1.72044608       1.06938802
H        2.08749670      -1.26096110      -0.03199171
H        0.92262785      -1.82773965      -1.22807878
H        1.84472236      -0.35355582      -1.53703672
H       -0.77860058      -1.92696355       0.58200629
H       -0.76211567      -0.59461220       1.75232968
H       -2.40942491       1.46460714      -1.03268978
16
Frame=16 idx=007251 GeodesicLength=0.7137206210510374 rxn_smarts="[C:1]([C:2]1([C:3]([H:11])([H:12])[H:13])[C:4]([H:14])([H:15])[O:5][C:6]([H:16])=[N:7]1)([H:8])([H:9])[H:10]>>[C:1]([C:2]1([C:3]([H:11])([H:12])[H:13])[C:4]([H:14])([H:15])[N:7]1[C:6](=[O:5])[H:16])([H:8])([H:9])[H:10]"
C        0.81087051       1.18176382       0.52190617
C        0.27723424      -0.09170290      -0.09497112
C        1.34255178      -0.93682737      -0.76048989
C       -0.78436232      -0.84191470       0.68517410
O       -2.51943226       0.06869475       0.51918751
C       -2.01561177       0.58067770      -0.53358021
N       -0.89669563       0.02497113      -0.92951334
H        1.21581790       1.83083338      -0.25630422
H        1.59976008       0.95115917       1.24128869
H        0.03438013       1.72213682       1.06565654
H        2.07983105      -1.26616618      -0.02432083
H        0.92347766      -1.82735444      -1.22988606
H        1.85510561      -0.35703305      -1.53030135
H       -0.77047075      -1.92728686       0.59043651
H       -0.75522055      -0.59533446       1.74597983
H       -2.39723567       1.48338319      -1.01026232
