11
Frame=0 idx=005886 GeodesicLength=0.0 rxn_smarts="[C:1]([n:2]1[c:3]([H:10])[c:4]([H:11])[n:5][n:6]1)([H:7])([H:8])[H:9]>>[C:1]([n:6]1[n:2][c:3]([H:10])[c:4]([H:11])[n:5]1)([H:7])([H:8])[H:9]"
C       -1.57053609      -0.40587394       0.08069368
N       -0.23349723       0.81679086      -0.45010475
C        0.87861626       0.99390606       0.27626844
C        1.68771043      -0.09974604       0.04553944
N        1.04727320      -0.96029475      -0.75526701
N       -0.09243090      -0.40181132      -1.07968842
H       -1.38210778      -1.45009337       0.30630113
H       -1.72422287       0.18218018       0.97869942
H       -2.33843451      -0.25391738      -0.66301287
H        1.03479268       1.87564060       0.87522957
H        2.69283684      -0.29678086       0.38534133
11
Frame=1 idx=005886 GeodesicLength=0.03973327823953431 rxn_smarts="[C:1]([n:2]1[c:3]([H:10])[c:4]([H:11])[n:5][n:6]1)([H:7])([H:8])[H:9]>>[C:1]([n:6]1[n:2][c:3]([H:10])[c:4]([H:11])[n:5]1)([H:7])([H:8])[H:9]"
C       -1.57770039      -0.40631966       0.07482122
N       -0.23052213       0.80229301      -0.44324187
C        0.88249059       0.99494001       0.27719197
C        1.70187399      -0.09117584       0.04606582
N        1.05428883      -0.97181899      -0.72713760
N       -0.08500132      -0.41820025      -1.05903806
H       -1.42902669      -1.46342319       0.26880137
H       -1.72278311       0.14925985       0.99507153
H       -2.34741368      -0.21392748      -0.65844136
H        1.03950055       1.89125033       0.85386606
H        2.71429336      -0.27287779       0.37204094
11
Frame=2 idx=005886 GeodesicLength=0.07798347240132691 rxn_smarts="[C:1]([n:2]1[c:3]([H:10])[c:4]([H:11])[n:5][n:6]1)([H:7])([H:8])[H:9]>>[C:1]([n:6]1[n:2][c:3]([H:10])[c:4]([H:11])[n:5]1)([H:7])([H:8])[H:9]"
C       -1.58395754      -0.40672065       0.06942038
N       -0.22755867       0.78808263      -0.43739555
C        0.88665127       0.99695237       0.27607419
C        1.71494728      -0.08314310       0.04702847
N        1.06147012      -0.98272621      -0.69944129
N       -0.07778114      -0.43467581      -1.03849078
H       -1.47440751      -1.47426578       0.23058044
H       -1.72059407       0.11531383       1.01079451
H       -2.35513671      -0.17434675      -0.65149756
H        1.04255720       1.90585501       0.83293902
H        2.73380979      -0.25032554       0.35998816
11
Frame=3 idx=005886 GeodesicLength=0.11511825504529191 rxn_smarts="[C:1]([n:2]1[c:3]([H:10])[c:4]([H:11])[n:5][n:6]1)([H:7])([H:8])[H:9]>>[C:1]([n:6]1[n:2][c:3]([H:10])[c:4]([H:11])[n:5]1)([H:7])([H:8])[H:9]"
C       -1.58974410      -0.40734223       0.06427328
N       -0.22473268       0.77413264      -0.43152923
C        0.89070587       0.99928886       0.27453050
C        1.72708588      -0.07569700       0.04880375
N        1.06869178      -0.99298504      -0.67191071
N       -0.07077558      -0.45088607      -1.01774240
H       -1.51863138      -1.48296699       0.19106751
H       -1.71848387       0.07960674       1.02579316
H       -2.36179132      -0.13511831      -0.64253031
H        1.04570659       1.92083494       0.81058597
H        2.75196881      -0.22886754       0.34865848
11
Frame=4 idx=005886 GeodesicLength=0.15103951844038022 rxn_smarts="[C:1]([n:2]1[c:3]([H:10])[c:4]([H:11])[n:5][n:6]1)([H:7])([H:8])[H:9]>>[C:1]([n:6]1[n:2][c:3]([H:10])[c:4]([H:11])[n:5]1)([H:7])([H:8])[H:9]"
C       -1.59416001      -0.40719627       0.05983002
N       -0.22161375       0.76023311      -0.42880893
C        0.89560845       1.00318621       0.26766737
C        1.73842674      -0.06830045       0.04977706
N        1.07627955      -1.00290957      -0.64534633
N       -0.06395678      -0.46798882      -0.99749983
H       -1.56051897      -1.48828441       0.15313660
H       -1.71449986       0.04519007       1.03959033
H       -2.36718170      -0.09684232      -0.63098001
H        1.04371655       1.93160796       0.79337785
H        2.76789978      -0.20869553       0.33925587
11
Frame=5 idx=005886 GeodesicLength=0.1861869234570872 rxn_smarts="[C:1]([n:2]1[c:3]([H:10])[c:4]([H:11])[n:5][n:6]1)([H:7])([H:8])[H:9]>>[C:1]([n:6]1[n:2][c:3]([H:10])[c:4]([H:11])[n:5]1)([H:7])([H:8])[H:9]"
C       -1.59866733      -0.40753103       0.05540534
N       -0.21871114       0.74654146      -0.42491821
C        0.89997490       1.00665312       0.26233443
C        1.74931042      -0.06130873       0.05136714
N        1.08375424      -1.01225795      -0.61843315
N       -0.05733631      -0.48454754      -0.97660369
H       -1.60165527      -1.49178913       0.11353304
H       -1.71192313       0.00850377       1.05241418
H       -2.37169241      -0.05904173      -0.61792033
H        1.04363433       1.94403545       0.77309863
H        2.78331169      -0.18925769       0.32972264
11
Frame=6 idx=005886 GeodesicLength=0.22037445442638165 rxn_smarts="[C:1]([n:2]1[c:3]([H:10])[c:4]([H:11])[n:5][n:6]1)([H:7])([H:8])[H:9]>>[C:1]([n:6]1[n:2][c:3]([H:10])[c:4]([H:11])[n:5]1)([H:7])([H:8])[H:9]"
C       -1.60241527      -0.40739863       0.05139464
N       -0.21562732       0.73293201      -0.42298227
C        0.90474731       1.01101667       0.25376623
C        1.75961843      -0.05450613       0.05257661
N        1.09143715      -1.02138154      -0.59187664
N       -0.05089274      -0.50170237      -0.95574131
H       -1.64103973      -1.49258407       0.07498868
H       -1.70878238      -0.02758059       1.06399769
H       -2.37510989      -0.02215107      -0.60310709
H        1.04054419       1.95403427       0.75606922
H        2.79752026      -0.17067855       0.32091426
11
Frame=7 idx=005886 GeodesicLength=0.25424387289286676 rxn_smarts="[C:1]([n:2]1[c:3]([H:10])[c:4]([H:11])[n:5][n:6]1)([H:7])([H:8])[H:9]>>[C:1]([n:6]1[n:2][c:3]([H:10])[c:4]([H:11])[n:5]1)([H:7])([H:8])[H:9]"
C       -1.60646164      -0.40787096       0.04731111
N       -0.21281178       0.71938442      -0.41914167
C        0.90878426       1.01446187       0.24769905
C        1.76957651      -0.04800104       0.05457848
N        1.09893375      -1.02988711      -0.56471477
N       -0.04461190      -0.51811615      -0.93393306
H       -1.67986742      -1.49159627       0.03400917
H       -1.70736847      -0.06667103       1.07455659
H       -2.37779707       0.01448751      -0.58654578
H        1.04026073       1.96635191       0.73434661
H        2.81136304      -0.15254314       0.31183427
11
Frame=8 idx=005886 GeodesicLength=0.28750120031599047 rxn_smarts="[C:1]([n:2]1[c:3]([H:10])[c:4]([H:11])[n:5][n:6]1)([H:7])([H:8])[H:9]>>[C:1]([n:6]1[n:2][c:3]([H:10])[c:4]([H:11])[n:5]1)([H:7])([H:8])[H:9]"
C       -1.61023019      -0.40830570       0.04349378
N       -0.20999430       0.70593376      -0.41565217
C        0.91275412       1.01803681       0.24081189
C        1.77928077      -0.04155558       0.05610381
N        1.10653097      -1.03798095      -0.53761301
N       -0.03849388      -0.53454182      -0.91173200
H       -1.71721285      -1.48829979      -0.00735705
H       -1.70665931      -0.10641741       1.08391539
H       -2.37972155       0.05023500      -0.56805264
H        1.03941777       1.97822373       0.71252246
H        2.82432843      -0.13532805       0.30355954
11
Frame=9 idx=005886 GeodesicLength=0.3198532449969649 rxn_smarts="[C:1]([n:2]1[c:3]([H:10])[c:4]([H:11])[n:5][n:6]1)([H:7])([H:8])[H:9]>>[C:1]([n:6]1[n:2][c:3]([H:10])[c:4]([H:11])[n:5]1)([H:7])([H:8])[H:9]"
C       -1.61285275      -0.40772056       0.04030631
N       -0.20685962       0.69244342      -0.41608911
C        0.91755898       1.02316242       0.22762624
C        1.78885536      -0.03467836       0.05537193
N        1.11441312      -1.04597732      -0.51122961
N       -0.03266737      -0.55220032      -0.88982744
H       -1.75230040      -1.48202000      -0.04518915
H       -1.70452933      -0.14345991       1.09167378
H       -2.38029344       0.08456289      -0.54827154
H        1.03285597       1.98517517       0.69834242
H        2.83581949      -0.11928743       0.29728617
11
Frame=10 idx=005886 GeodesicLength=0.35169126224896236 rxn_smarts="[C:1]([n:2]1[c:3]([H:10])[c:4]([H:11])[n:5][n:6]1)([H:7])([H:8])[H:9]>>[C:1]([n:6]1[n:2][c:3]([H:10])[c:4]([H:11])[n:5]1)([H:7])([H:8])[H:9]"
C       -1.61485366      -0.40651568       0.03755471
N       -0.20352687       0.67881868      -0.41887919
C        0.92268734       1.02904653       0.21053768
C        1.79858780      -0.02732315       0.05247528
N        1.12258938      -1.05375761      -0.48493000
N       -0.02699466      -0.57062540      -0.86761533
H       -1.78559834      -1.47336613      -0.08111837
H       -1.70240883      -0.17865966       1.09811330
H       -2.37988031       0.11770073      -0.52727789
H        1.02291062       1.98861654       0.68881924
H        2.84648754      -0.10393484       0.29232059
11
Frame=11 idx=005886 GeodesicLength=0.383163636903982 rxn_smarts="[C:1]([n:2]1[c:3]([H:10])[c:4]([H:11])[n:5][n:6]1)([H:7])([H:8])[H:9]>>[C:1]([n:6]1[n:2][c:3]([H:10])[c:4]([H:11])[n:5]1)([H:7])([H:8])[H:9]"
C       -1.61698550      -0.40553219       0.03489039
N       -0.20029307       0.66517403      -0.42085520
C        0.92742045       1.03433732       0.19427772
C        1.80805524      -0.02017681       0.04960505
N        1.13071801      -1.06101513      -0.45821671
N       -0.02148890      -0.58867150      -0.84444313
H       -1.81782111      -1.46294186      -0.11806470
H       -1.70201415      -0.21528832       1.10346501
H       -2.37869119       0.15016599      -0.50497958
H        1.01417641       1.99274492       0.67731782
H        2.85692380      -0.08879643       0.28700332
11
Frame=12 idx=005886 GeodesicLength=0.4144350338163066 rxn_smarts="[C:1]([n:2]1[c:3]([H:10])[c:4]([H:11])[n:5][n:6]1)([H:7])([H:8])[H:9]>>[C:1]([n:6]1[n:2][c:3]([H:10])[c:4]([H:11])[n:5]1)([H:7])([H:8])[H:9]"
C       -1.61928037      -0.40475787       0.03229874
N       -0.19715896       0.65145137      -0.42190590
C        0.93171576       1.03897043       0.17902421
C        1.81725750      -0.01327152       0.04699448
N        1.13880308      -1.06781179      -0.43086209
N       -0.01612221      -0.60637237      -0.82015836
H       -1.84904583      -1.45068615      -0.15629331
H       -1.70336084      -0.25351395       1.10760580
H       -2.37671353       0.18209718      -0.48122426
H        1.00665402       1.99757001       0.66352710
H        2.86725137      -0.07367533       0.28099360
11
Frame=13 idx=005886 GeodesicLength=0.4454062722680107 rxn_smarts="[C:1]([n:2]1[c:3]([H:10])[c:4]([H:11])[n:5][n:6]1)([H:7])([H:8])[H:9]>>[C:1]([n:6]1[n:2][c:3]([H:10])[c:4]([H:11])[n:5]1)([H:7])([H:8])[H:9]"
C       -1.62145619      -0.40392899       0.02998610
N       -0.19409143       0.63771154      -0.42299390
C        0.93584246       1.04338988       0.16320780
C        1.82629160      -0.00637266       0.04362352
N        1.14690278      -1.07404344      -0.40348421
N       -0.01101776      -0.62388430      -0.79505403
H       -1.87873753      -1.43648738      -0.19445793
H       -1.70603829      -0.29224399       1.11052431
H       -2.37384376       0.21300655      -0.45629749
H        0.99909925       2.00189922       0.64952110
H        2.87704887      -0.05904645       0.27542473
11
Frame=14 idx=005886 GeodesicLength=0.4761572863254331 rxn_smarts="[C:1]([n:2]1[c:3]([H:10])[c:4]([H:11])[n:5][n:6]1)([H:7])([H:8])[H:9]>>[C:1]([n:6]1[n:2][c:3]([H:10])[c:4]([H:11])[n:5]1)([H:7])([H:8])[H:9]"
C       -1.62371549      -0.40326352       0.02790105
N       -0.19114437       0.62397624      -0.42334393
C        0.93964591       1.04731702       0.14795456
C        1.83512360       0.00035015       0.04000097
N        1.15498278      -1.07973930      -0.37584410
N       -0.00612550      -0.64099339      -0.76890846
H       -1.90705011      -1.42042871      -0.23349181
H       -1.71052336      -0.33226281       1.11217177
H       -2.37024527       0.24303620      -0.42988725
H        0.99251918       2.00676388       0.63364484
H        2.88653262      -0.04475577       0.26980236
11
Frame=15 idx=005886 GeodesicLength=0.5068166695389401 rxn_smarts="[C:1]([n:2]1[c:3]([H:10])[c:4]([H:11])[n:5][n:6]1)([H:7])([H:8])[H:9]>>[C:1]([n:6]1[n:2][c:3]([H:10])[c:4]([H:11])[n:5]1)([H:7])([H:8])[H:9]"
C       -1.62612677      -0.40274720       0.02597341
N       -0.18827620       0.61012997      -0.42282038
C        0.94314011       1.05068149       0.13348099
C        1.84374238       0.00678365       0.03653513
N        1.16300359      -1.08504538      -0.34728729
N       -0.00139653      -0.65784093      -0.74135863
H       -1.93403392      -1.40226540      -0.27368036
H       -1.71708984      -0.37365196       1.11227693
H       -2.36588120       0.27219529      -0.40203794
H        0.98685573       2.01220143       0.61595648
H        2.89606264      -0.03044097       0.26296166
11
Frame=16 idx=005886 GeodesicLength=0.5372871675590525 rxn_smarts="[C:1]([n:2]1[c:3]([H:10])[c:4]([H:11])[n:5][n:6]1)([H:7])([H:8])[H:9]>>[C:1]([n:6]1[n:2][c:3]([H:10])[c:4]([H:11])[n:5]1)([H:7])([H:8])[H:9]"
C       -1.62845389      -0.40225395       0.02440574
N       -0.18550564       0.59631444      -0.42193058
C        0.94644484       1.05370895       0.11888056
C        1.85207221       0.01298886       0.03273703
N        1.17102267      -1.08976345      -0.31880545
N        0.00305065      -0.67427700      -0.71279027
H       -1.95916648      -1.38213377      -0.31393455
H       -1.72548195      -0.41566303       1.11095044
H       -2.36066460       0.30008390      -0.37301346
H        0.98153609       2.01754854       0.59739079
H        2.90514610      -0.01655348       0.25610975
