14
Frame=0 idx=002719 GeodesicLength=0.0 rxn_smarts="[C:1]([C@@:2]([O:3][H:11])([C:4]([C:5](=[O:6])[H:14])([H:12])[H:13])[H:10])([H:7])([H:8])[H:9]>>[C:1](/[C:2](=[C:4](\[C:5](=[O:6])[H:14])[H:13])[H:10])([H:7])([H:8])[H:9].[O:3]([H:11])[H:12]"
C       -0.98952611      -0.38835332      -1.16365670
C       -0.37714735       0.58399282      -0.20205465
O       -1.22755525       0.36714732       1.22979784
C        0.94796932       0.39388502       0.39231967
C        1.70808605      -0.82454029       0.28130290
O        1.33761001      -1.89626920      -0.16377704
H       -2.02206474      -0.11778339      -1.38513406
H       -0.40962672      -0.35982442      -2.08863787
H       -0.93524994      -1.40371653      -0.78262103
H       -0.60496085       1.62227467      -0.43970457
H       -1.57918165       1.20423787       1.55965011
H       -0.10942772       0.26069165       1.48876300
H        1.52504803       1.29393884       0.57844402
H        2.73602694      -0.73568098       0.69530833
14
Frame=1 idx=002719 GeodesicLength=0.10914320670573277 rxn_smarts="[C:1]([C@@:2]([O:3][H:11])([C:4]([C:5](=[O:6])[H:14])([H:12])[H:13])[H:10])([H:7])([H:8])[H:9]>>[C:1](/[C:2](=[C:4](\[C:5](=[O:6])[H:14])[H:13])[H:10])([H:7])([H:8])[H:9].[O:3]([H:11])[H:12]"
C       -0.99455265      -0.38285309      -1.16680049
C       -0.36707223       0.59073163      -0.21588446
O       -1.24051230       0.37605408       1.22674725
C        0.94793598       0.39045172       0.38890909
C        1.72749661      -0.81568554       0.26254244
O        1.33932270      -1.90928915      -0.10574022
H       -2.02829983      -0.10575688      -1.37560493
H       -0.42551807      -0.36689376      -2.09852994
H       -0.95193035      -1.39702746      -0.78058354
H       -0.57731385       1.62879785      -0.47060727
H       -1.59966348       1.20641362       1.56309671
H       -0.10687830       0.20907719       1.48963914
H        1.51644040       1.28506708       0.62432982
H        2.76054537      -0.70908728       0.65848640
14
Frame=2 idx=002719 GeodesicLength=0.21818354179654878 rxn_smarts="[C:1]([C@@:2]([O:3][H:11])([C:4]([C:5](=[O:6])[H:14])([H:12])[H:13])[H:10])([H:7])([H:8])[H:9]>>[C:1](/[C:2](=[C:4](\[C:5](=[O:6])[H:14])[H:13])[H:10])([H:7])([H:8])[H:9].[O:3]([H:11])[H:12]"
C       -0.99998110      -0.37747142      -1.16895354
C       -0.35645494       0.59741649      -0.22976387
O       -1.25258457       0.38666587       1.22467530
C        0.94776101       0.38630735       0.38647978
C        1.74559745      -0.80799459       0.24524095
O        1.34609675      -1.91828836      -0.05229621
H       -2.03470985      -0.09347106      -1.36466088
H       -0.44260425      -0.37450341      -2.10757677
H       -0.96852949      -1.39017287      -0.77724123
H       -0.54746842       1.63461582      -0.50298086
H       -1.62248500       1.20963498       1.56524709
H       -0.10519228       0.15688876       1.48923215
H        1.50722885       1.27325431       0.67021556
H        2.78332584      -0.68288188       0.62238251
14
Frame=3 idx=002719 GeodesicLength=0.32716097794773563 rxn_smarts="[C:1]([C@@:2]([O:3][H:11])([C:4]([C:5](=[O:6])[H:14])([H:12])[H:13])[H:10])([H:7])([H:8])[H:9]>>[C:1](/[C:2](=[C:4](\[C:5](=[O:6])[H:14])[H:13])[H:10])([H:7])([H:8])[H:9].[O:3]([H:11])[H:12]"
C       -1.00581158      -0.37202883      -1.17020516
C       -0.34527781       0.60403635      -0.24369726
O       -1.26353905       0.39863102       1.22370605
C        0.94751292       0.38157673       0.38480202
C        1.76277516      -0.80117158       0.22945880
O        1.35734570      -1.92421029      -0.00304407
H       -2.04121451      -0.08056560      -1.35244115
H       -0.46086646      -0.38251195      -2.11580278
H       -0.98536210      -1.38298549      -0.77268654
H       -0.51552777       1.63958198      -0.53664600
H       -1.64793878       1.21325650       1.56608626
H       -0.10409457       0.10438930       1.48756201
H        1.49746522       1.25889138       0.71543531
H        2.80453364      -0.65688953       0.58747252
14
Frame=4 idx=002719 GeodesicLength=0.43610218947608564 rxn_smarts="[C:1]([C@@:2]([O:3][H:11])([C:4]([C:5](=[O:6])[H:14])([H:12])[H:13])[H:10])([H:7])([H:8])[H:9]>>[C:1](/[C:2](=[C:4](\[C:5](=[O:6])[H:14])[H:13])[H:10])([H:7])([H:8])[H:9].[O:3]([H:11])[H:12]"
C       -1.01206453      -0.36636609      -1.17064390
C       -0.33353547       0.61058570      -0.25771636
O       -1.27318424       0.41165759       1.22393373
C        0.94726163       0.37636217       0.38361805
C        1.77937762      -0.79495934       0.21505159
O        1.37251770      -1.92775159       0.04253685
H       -2.04777396      -0.06675314      -1.33903502
H       -0.48035826      -0.39075210      -2.12326194
H       -1.00266504      -1.37531569      -0.76703867
H       -0.48159459       1.64355463      -0.57149080
H       -1.67618151       1.21662398       1.56565268
H       -0.10327470       0.05175907       1.48463698
H        1.48723270       1.24238087       0.75936805
H        2.82424265      -0.63102606       0.55438877
14
Frame=5 idx=002719 GeodesicLength=0.5450201270528385 rxn_smarts="[C:1]([C@@:2]([O:3][H:11])([C:4]([C:5](=[O:6])[H:14])([H:12])[H:13])[H:10])([H:7])([H:8])[H:9]>>[C:1](/[C:2](=[C:4](\[C:5](=[O:6])[H:14])[H:13])[H:10])([H:7])([H:8])[H:9].[O:3]([H:11])[H:12]"
C       -1.01875405      -0.36034604      -1.17035257
C       -0.32122884       0.61706052      -0.27186692
O       -1.28141350       0.42554355       1.22540627
C        0.94705443       0.37073174       0.38270347
C        1.79565283      -0.78918004       0.20187060
O        1.39109769      -1.92941283       0.08503540
H       -2.05434050      -0.05179665      -1.32453087
H       -0.50113483      -0.39906958      -2.13000467
H       -1.02061982      -1.36702456      -0.76040822
H       -0.44574374       1.64638395      -0.60747485
H       -1.70726637       1.21909425       1.56403344
H       -0.10246426      -0.00085461       1.48047858
H        1.47661707       1.22409076       0.80153607
H        2.84254387      -0.60522046       0.52357425
14
Frame=6 idx=002719 GeodesicLength=0.6539241185362716 rxn_smarts="[C:1]([C@@:2]([O:3][H:11])([C:4]([C:5](=[O:6])[H:14])([H:12])[H:13])[H:10])([H:7])([H:8])[H:9]>>[C:1](/[C:2](=[C:4](\[C:5](=[O:6])[H:14])[H:13])[H:10])([H:7])([H:8])[H:9].[O:3]([H:11])[H:12]"
C       -1.02586480      -0.35384404      -1.16941214
C       -0.30835723       0.62346254      -0.28618761
O       -1.28823670       0.44016805       1.22811422
C        0.94690825       0.36472444       0.38192023
C        1.81173858      -0.78374669       0.18984883
O        1.41258231      -1.92957468       0.12522285
H       -2.06082793      -0.03547589      -1.30907339
H       -0.52318120      -0.40733549      -2.13605475
H       -1.03937337      -1.35797555      -0.75288840
H       -0.40800237       1.64791709      -0.64459624
H       -1.74120961       1.22001536       1.56133989
H       -0.10149046      -0.05329874       1.47515936
H        1.46569750       1.20433217       0.84166698
H        2.85961704      -0.57936855       0.49494018
14
Frame=7 idx=002719 GeodesicLength=0.7628158502456687 rxn_smarts="[C:1]([C@@:2]([O:3][H:11])([C:4]([C:5](=[O:6])[H:14])([H:12])[H:13])[H:10])([H:7])([H:8])[H:9]>>[C:1](/[C:2](=[C:4](\[C:5](=[O:6])[H:14])[H:13])[H:10])([H:7])([H:8])[H:9].[O:3]([H:11])[H:12]"
C       -1.03338030      -0.34675910      -1.16789809
C       -0.29492387       0.62979217      -0.30073471
O       -1.29373394       0.45550788       1.23199772
C        0.94681257       0.35836712       0.38116304
C        1.82771155      -0.77860616       0.17896149
O        1.43656886      -1.92848047       0.16375498
H       -2.06714665      -0.01760935      -1.29281510
H       -0.54648087      -0.41545636      -2.14142879
H       -1.05904501      -1.34803885      -0.74454561
H       -0.36837242       1.64797447      -0.68291817
H       -1.77787649       1.21876476       1.55777803
H       -0.10024959      -0.10545833       1.46875014
H        1.45452612       1.18339191       0.87958211
H        2.87559003      -0.55338967       0.46835298
14
Frame=8 idx=002719 GeodesicLength=0.8716959658747291 rxn_smarts="[C:1]([C@@:2]([O:3][H:11])([C:4]([C:5](=[O:6])[H:14])([H:12])[H:13])[H:10])([H:7])([H:8])[H:9]>>[C:1](/[C:2](=[C:4](\[C:5](=[O:6])[H:14])[H:13])[H:10])([H:7])([H:8])[H:9].[O:3]([H:11])[H:12]"
C       -1.04128697      -0.33900469      -1.16589049
C       -0.28093596       0.63604868      -0.31558472
O       -1.29803794       0.47160223       1.23694952
C        0.94673683       0.35168333       0.38034250
C        1.84361157      -0.77372344       0.16920646
O        1.46272540      -1.92627426       0.20121658
H       -2.07320932       0.00196119      -1.27592558
H       -0.57101816      -0.42336148      -2.14614502
H       -1.07973917      -1.33708602      -0.73543477
H       -0.32684647       1.64634853      -0.72254873
H       -1.81699061       1.21473018       1.55365486
H       -0.09868771      -0.15724156       1.46131640
H        1.44312946       1.16154203       0.91516382
H        2.89054906      -0.52722472       0.44367916
14
Frame=9 idx=002719 GeodesicLength=0.9805422159510622 rxn_smarts="[C:1]([C@@:2]([O:3][H:11])([C:4]([C:5](=[O:6])[H:14])([H:12])[H:13])[H:10])([H:7])([H:8])[H:9]>>[C:1](/[C:2](=[C:4](\[C:5](=[O:6])[H:14])[H:13])[H:10])([H:7])([H:8])[H:9].[O:3]([H:11])[H:12]"
C       -1.04956256      -0.33050360      -1.16347574
C       -0.26639975       0.64222133      -0.33082162
O       -1.30132688       0.48852567       1.24282689
C        0.94662502       0.34468904       0.37939625
C        1.85943853      -0.76907620       0.16061022
O        1.49076434      -1.92302096       0.23817460
H       -2.07891419       0.02337878      -1.25859946
H       -0.59676075      -0.43099134      -2.15022264
H       -1.10154219      -1.32498318      -0.72560961
H       -0.28340809       1.64279031      -0.76360247
H       -1.85815764       1.20733129       1.54934002
H       -0.09680028      -0.20857678       1.45292862
H        1.43149831       1.13902779       0.94835838
H        2.90454613      -0.50081216       0.42069656
14
Frame=10 idx=002719 GeodesicLength=1.0893648282257986 rxn_smarts="[C:1]([C@@:2]([O:3][H:11])([C:4]([C:5](=[O:6])[H:14])([H:12])[H:13])[H:10])([H:7])([H:8])[H:9]>>[C:1](/[C:2](=[C:4](\[C:5](=[O:6])[H:14])[H:13])[H:10])([H:7])([H:8])[H:9].[O:3]([H:11])[H:12]"
C       -1.05820474      -0.32119317      -1.16074906
C       -0.25132615       0.64829403      -0.34656358
O       -1.30380425       0.50640319       1.24944258
C        0.94641237       0.33740118       0.37825012
C        1.87520184      -0.76463235       0.15320509
O        1.52047823      -1.91872331       0.27503467
H       -2.08418359       0.04676690      -1.24102280
H       -0.62371811      -0.43829926      -2.15369803
H       -1.12453749      -1.31160351      -0.71512383
H       -0.23804790       1.63701029      -0.80624858
H       -1.90083932       1.19604203       1.54533888
H       -0.09460734      -0.25945445       1.44361104
H        1.41958967       1.11610204       0.97911997
H        2.91758676      -0.47411361       0.39940353
14
Frame=11 idx=002719 GeodesicLength=1.198157207019974 rxn_smarts="[C:1]([C@@:2]([O:3][H:11])([C:4]([C:5](=[O:6])[H:14])([H:12])[H:13])[H:10])([H:7])([H:8])[H:9]>>[C:1](/[C:2](=[C:4](\[C:5](=[O:6])[H:14])[H:13])[H:10])([H:7])([H:8])[H:9].[O:3]([H:11])[H:12]"
C       -1.06720544      -0.31101055      -1.15780729
C       -0.23571791       0.65423546      -0.36292923
O       -1.30568760       0.52537683       1.25659517
C        0.94601837       0.32982608       0.37685539
C        1.89089466      -0.76036244       0.14704225
O        1.55168963      -1.91333517       0.31220297
H       -2.08892667       0.07225022      -1.22339104
H       -0.65189531      -0.44523418      -2.15660645
H       -1.14879662      -1.29680777      -0.70403231
H       -0.19075905       1.62866992      -0.85062990
H       -1.94445290       1.18038865       1.54214716
H       -0.09215466      -0.30990605       1.43338377
H        1.40732511       1.09298493       1.00745925
H        2.92966841      -0.44707593       0.37971026
14
Frame=12 idx=002719 GeodesicLength=1.3069333420188924 rxn_smarts="[C:1]([C@@:2]([O:3][H:11])([C:4]([C:5](=[O:6])[H:14])([H:12])[H:13])[H:10])([H:7])([H:8])[H:9]>>[C:1](/[C:2](=[C:4](\[C:5](=[O:6])[H:14])[H:13])[H:10])([H:7])([H:8])[H:9].[O:3]([H:11])[H:12]"
C       -1.07656432      -0.29989418      -1.15474869
C       -0.21957152       0.66000060      -0.38004782
O       -1.30720291       0.54561949       1.26407414
C        0.94535526       0.32196039       0.37517372
C        1.90652026      -0.75622931       0.14218355
O        1.58427138      -1.90677202       0.35002114
H       -2.09305924       0.09995146      -1.20588987
H       -0.68131890      -0.45173921      -2.15899038
H       -1.17438796      -1.28044965      -0.69238919
H       -0.14154297       1.61738234      -0.89688082
H       -1.98836919       1.15996004       1.54026803
H       -0.08950447      -0.36002441       1.42223684
H        1.39459239       1.06987263       1.03342084
H        2.94078218      -0.41963818       0.36156850
14
Frame=13 idx=002719 GeodesicLength=1.4156419049877724 rxn_smarts="[C:1]([C@@:2]([O:3][H:11])([C:4]([C:5](=[O:6])[H:14])([H:12])[H:13])[H:10])([H:7])([H:8])[H:9]>>[C:1](/[C:2](=[C:4](\[C:5](=[O:6])[H:14])[H:13])[H:10])([H:7])([H:8])[H:9].[O:3]([H:11])[H:12]"
C       -1.08628470      -0.28778858      -1.15165987
C       -0.20286684       0.66550772      -0.39803480
O       -1.30855074       0.56730978       1.27168182
C        0.94432448       0.31378656       0.37318581
C        1.92207033      -0.75217861       0.13869795
O        1.61810883      -1.89889808       0.38877919
H       -2.09648107       0.12998733      -1.18868304
H       -0.71203942      -0.45775583      -2.16087522
H       -1.20137721      -1.26237400      -0.68025499
H       -0.09045730       1.60272417      -0.94501204
H       -2.03187008       1.13442563       1.54004577
H       -0.08671711      -0.40996486       1.41011363
H        1.38124619       1.04693004       1.05708757
H        2.95089465      -0.39171128       0.34492822
14
Frame=14 idx=002719 GeodesicLength=1.5243230762501991 rxn_smarts="[C:1]([C@@:2]([O:3][H:11])([C:4]([C:5](=[O:6])[H:14])([H:12])[H:13])[H:10])([H:7])([H:8])[H:9]>>[C:1](/[C:2](=[C:4](\[C:5](=[O:6])[H:14])[H:13])[H:10])([H:7])([H:8])[H:9].[O:3]([H:11])[H:12]"
C       -1.09636982      -0.27463010      -1.14865549
C       -0.18559651       0.67066762      -0.41703882
O       -1.30998563       0.59063128       1.27918032
C        0.94281434       0.30527482       0.37086438
C        1.93755562      -0.74815402       0.13668508
O        1.65314282      -1.88955924       0.42879379
H       -2.09910544       0.16246103      -1.17193023
H       -0.74412876      -0.46315660      -2.16234046
H       -1.22979496      -1.24242950      -0.66772076
H       -0.03757040       1.58422033      -0.99510379
H       -2.07414582       1.10352056       1.54200229
H       -0.08387566      -0.45994340       1.39693122
H        1.36709518       1.02429895       1.07853483
H        2.95996506      -0.36320173       0.32979765
14
Frame=15 idx=002719 GeodesicLength=1.6329508460831736 rxn_smarts="[C:1]([C@@:2]([O:3][H:11])([C:4]([C:5](=[O:6])[H:14])([H:12])[H:13])[H:10])([H:7])([H:8])[H:9]>>[C:1](/[C:2](=[C:4](\[C:5](=[O:6])[H:14])[H:13])[H:10])([H:7])([H:8])[H:9].[O:3]([H:11])[H:12]"
C       -1.10683783      -0.26036719      -1.14583251
C       -0.16774344       0.67533410      -0.43717970
O       -1.31173831       0.61573793       1.28636542
C        0.94070651       0.29637380       0.36820069
C        1.95299184      -0.74407101       0.13625143
O        1.68932586      -1.87854939       0.47030857
H       -2.10083989       0.19746071      -1.15575360
H       -0.77769567      -0.46780803      -2.16344184
H       -1.25967611      -1.22046651      -0.65488856
H        0.01693188       1.56138615      -1.04705109
H       -2.11424339       1.06713703       1.54638937
H       -0.08103532      -0.51026981       1.38253527
H        1.35191167       1.00208030       1.09787574
H        2.96794219      -0.33397808       0.31622081
14
Frame=16 idx=002719 GeodesicLength=1.741535098854304 rxn_smarts="[C:1]([C@@:2]([O:3][H:11])([C:4]([C:5](=[O:6])[H:14])([H:12])[H:13])[H:10])([H:7])([H:8])[H:9]>>[C:1](/[C:2](=[C:4](\[C:5](=[O:6])[H:14])[H:13])[H:10])([H:7])([H:8])[H:9].[O:3]([H:11])[H:12]"
C       -1.11770789      -0.24496296      -1.14329553
C       -0.14930814       0.67932071      -0.45856689
O       -1.31408273       0.64271565       1.29304581
C        0.93786190       0.28700704       0.36519188
C        1.96841370      -0.73981665       0.13751458
O        1.72664996      -1.86563675       0.51352028
H       -2.10159548       0.23502989      -1.14024515
H       -0.81286031      -0.47152653      -2.16426103
H       -1.29102296      -1.19636833      -0.64189595
H        0.07279299       1.53371919      -1.10069699
H       -2.15106119       1.02542919       1.55343505
H       -0.07823984      -0.56137580       1.36670368
H        1.33539732       0.98032829       1.11524744
H        2.97476267      -0.30386294       0.30430285
