15
Frame=0 idx=008798 GeodesicLength=0.0 rxn_smarts="[O:1]=[C:2]1[C:3]([H:8])([H:9])[C:4]([H:10])([H:11])[C:5]([H:12])([H:13])[C:6]([H:14])=[C:7]1[H:15]>>[O:1]=[C:2](/[C:7](=[C:6](\[C:5]([C:4](=[C:3]([H:8])[H:9])[H:10])([H:12])[H:13])[H:14])[H:15])[H:11]"
O        0.06228770      -2.09362536       1.49539061
C        0.14297887      -1.05272442       0.83387255
C       -0.92751941      -0.99555265      -0.58687612
C       -1.12801284       0.27947519      -0.02943321
C       -0.16475979       1.37111346      -0.37636796
C        1.24618245       0.81363381      -0.28022310
C        1.38988481      -0.36407141       0.29447519
H       -0.31213742      -1.10019841      -1.47001772
H       -1.68894471      -1.74876313      -0.43755966
H       -2.03083941       0.50865237       0.52484409
H       -0.33563909      -0.07480859       1.38380007
H       -0.35914667       1.70039609      -1.40216230
H       -0.29161968       2.24127149       0.27342281
H        2.06905799       1.39216508      -0.67604423
H        2.32822719      -0.87696357       0.45287899
15
Frame=1 idx=008798 GeodesicLength=0.10886089328884509 rxn_smarts="[O:1]=[C:2]1[C:3]([H:8])([H:9])[C:4]([H:10])([H:11])[C:5]([H:12])([H:13])[C:6]([H:14])=[C:7]1[H:15]>>[O:1]=[C:2](/[C:7](=[C:6](\[C:5]([C:4](=[C:3]([H:8])[H:9])[H:10])([H:12])[H:13])[H:14])[H:15])[H:11]"
O        0.10510031      -2.11214174       1.49007525
C        0.16155209      -1.06715968       0.83545617
C       -0.94656481      -0.99351330      -0.58680841
C       -1.13253620       0.28354301      -0.02617846
C       -0.16215117       1.36692214      -0.38407456
C        1.24842785       0.81325705      -0.27440733
C        1.39953959      -0.36669670       0.29657164
H       -0.34993213      -1.09884079      -1.48318834
H       -1.71280376      -1.74078904      -0.43041637
H       -2.03684720       0.52524590       0.51996060
H       -0.35361688      -0.08210518       1.38262311
H       -0.34913675       1.68300464      -1.41548870
H       -0.28981364       2.24666963       0.25237181
H        2.07436204       1.40744251      -0.64013668
H        2.34442066      -0.86483845       0.46364027
15
Frame=2 idx=008798 GeodesicLength=0.21763578736108516 rxn_smarts="[O:1]=[C:2]1[C:3]([H:8])([H:9])[C:4]([H:10])([H:11])[C:5]([H:12])([H:13])[C:6]([H:14])=[C:7]1[H:15]>>[O:1]=[C:2](/[C:7](=[C:6](\[C:5]([C:4](=[C:3]([H:8])[H:9])[H:10])([H:12])[H:13])[H:14])[H:15])[H:11]"
O        0.14832905      -2.13053458       1.48397931
C        0.18062335      -1.08181819       0.83669910
C       -0.96581919      -0.99131370      -0.58664515
C       -1.13707862       0.28774485      -0.02303887
C       -0.15938130       1.36254643      -0.39173310
C        1.25078448       0.81291677      -0.26839972
C        1.40959202      -0.36921275       0.29884335
H       -0.38861252      -1.09726464      -1.49611521
H       -1.73688476      -1.73246180      -0.42300977
H       -2.04270526       0.54224843       0.51472713
H       -0.37172944      -0.09018564       1.38113848
H       -0.33883073       1.66523052      -1.42859880
H       -0.28782603       2.25180472       0.23105927
H        2.07867155       1.42222941      -0.60437801
H        2.36086741      -0.85192985       0.47547199
15
Frame=3 idx=008798 GeodesicLength=0.3263347539221257 rxn_smarts="[O:1]=[C:2]1[C:3]([H:8])([H:9])[C:4]([H:10])([H:11])[C:5]([H:12])([H:13])[C:6]([H:14])=[C:7]1[H:15]>>[O:1]=[C:2](/[C:7](=[C:6](\[C:5]([C:4](=[C:3]([H:8])[H:9])[H:10])([H:12])[H:13])[H:14])[H:15])[H:11]"
O        0.19198920      -2.14881790       1.47709685
C        0.20020675      -1.09671337       0.83759721
C       -0.98528257      -0.98893872      -0.58640760
C       -1.14164089       0.29207722      -0.02000031
C       -0.15645364       1.35797698      -0.39933704
C        1.25324484       0.81262131      -0.26215077
C        1.42004837      -0.37160689       0.30133544
H       -0.42819355      -1.09541527      -1.50879755
H       -1.76118054      -1.72376720      -0.41537446
H       -2.04838520       0.55963608       0.50918438
H       -0.38998189      -0.09904468       1.37933479
H       -0.32821964       1.64703987      -1.44148795
H       -0.28566717       2.25667614       0.20946077
H        2.08201179       1.43649525      -0.56887140
H        2.37750412      -0.83821883       0.48841766
15
Frame=4 idx=008798 GeodesicLength=0.4349650712490598 rxn_smarts="[O:1]=[C:2]1[C:3]([H:8])([H:9])[C:4]([H:10])([H:11])[C:5]([H:12])([H:13])[C:6]([H:14])=[C:7]1[H:15]>>[O:1]=[C:2](/[C:7](=[C:6](\[C:5]([C:4](=[C:3]([H:8])[H:9])[H:10])([H:12])[H:13])[H:14])[H:15])[H:11]"
O        0.23611375      -2.16701594       1.46940901
C        0.22031667      -1.11185721       0.83814215
C       -1.00496853      -0.98637584      -0.58611366
C       -1.14622449       0.29653641      -0.01704872
C       -0.15337084       1.35319836      -0.40689239
C        1.25579853       0.81236689      -0.25563449
C        1.43091262      -0.37387396       0.30407569
H       -0.46871151      -1.09324441      -1.52123782
H       -1.78570141      -1.71468822      -0.40753340
H       -2.05385286       0.57739114       0.50338400
H       -0.40836957      -0.10867273       1.37719681
H       -0.31729685       1.62838567      -1.45416194
H       -0.28333883       2.26127901       0.18753161
H        2.08442098       1.45025235      -0.53365537
H        2.39427236      -0.82368152       0.50253853
15
Frame=5 idx=008798 GeodesicLength=0.5435134959201888 rxn_smarts="[O:1]=[C:2]1[C:3]([H:8])([H:9])[C:4]([H:10])([H:11])[C:5]([H:12])([H:13])[C:6]([H:14])=[C:7]1[H:15]>>[O:1]=[C:2](/[C:7](=[C:6](\[C:5]([C:4](=[C:3]([H:8])[H:9])[H:10])([H:12])[H:13])[H:14])[H:15])[H:11]"
O        0.28072137      -2.18512537       1.46091765
C        0.24096720      -1.12725515       0.83833393
C       -1.02487596      -0.98361164      -0.58578712
C       -1.15082775       0.30111646      -0.01417256
C       -0.15013643       1.34820039      -0.41439194
C        1.25843745       0.81216173      -0.24880651
C        1.44219205      -0.37599492       0.30711392
H       -0.51017064      -1.09070044      -1.53343184
H       -1.81043954      -1.70521323      -0.39952506
H       -2.05908139       0.59548419       0.49736611
H       -0.42689652      -0.11905731       1.37471250
H       -0.30605511       1.60923316      -1.46661043
H       -0.28085174       2.26560472       0.16524955
H        2.08592459       1.46348222      -0.49882193
H        2.41109241      -0.80832480       0.51785373
15
Frame=6 idx=008798 GeodesicLength=0.652000586303053 rxn_smarts="[O:1]=[C:2]1[C:3]([H:8])([H:9])[C:4]([H:10])([H:11])[C:5]([H:12])([H:13])[C:6]([H:14])=[C:7]1[H:15]>>[O:1]=[C:2](/[C:7](=[C:6](\[C:5]([C:4](=[C:3]([H:8])[H:9])[H:10])([H:12])[H:13])[H:14])[H:15])[H:11]"
O        0.32584995      -2.20315968       1.45160652
C        0.26218105      -1.14291721       0.83816704
C       -1.04502535      -0.98064055      -0.58544236
C       -1.15545134       0.30580904      -0.01136190
C       -0.14675291       1.34295833      -0.42185686
C        1.26114695       0.81199229      -0.24165974
C        1.45389056      -0.37795939       0.31048696
H       -0.55262337      -1.08773953      -1.54537057
H       -1.83541157      -1.69532947      -0.39135622
H       -2.06403911       0.61390026       0.49117937
H       -0.44555568      -0.13016922       1.37186536
H       -0.29448526       1.58951454      -1.47885306
H       -0.27820261       2.26964170       0.14254250
H        2.08657461       1.47626386      -0.46429894
H        2.42790408      -0.79216498       0.53435190
15
Frame=7 idx=008798 GeodesicLength=0.7604321968931221 rxn_smarts="[O:1]=[C:2]1[C:3]([H:8])([H:9])[C:4]([H:10])([H:11])[C:5]([H:12])([H:13])[C:6]([H:14])=[C:7]1[H:15]>>[O:1]=[C:2](/[C:7](=[C:6](\[C:5]([C:4](=[C:3]([H:8])[H:9])[H:10])([H:12])[H:13])[H:14])[H:15])[H:11]"
O        0.37153140      -2.22109923       1.44149895
C        0.28397545      -1.15884833       0.83764391
C       -1.06541286      -0.97745196      -0.58510600
C       -1.16009311       0.31060561      -0.00861117
C       -0.14322262       1.33745960      -0.42928279
C        1.26391654       0.81186963      -0.23414564
C        1.46601381      -0.37973212       0.31427711
H       -0.59607241      -1.08430550      -1.55704110
H       -1.86060430      -1.68503070      -0.38306534
H       -2.06870825       0.63260949       0.48484764
H       -0.46436317      -0.14197646       1.36864883
H       -0.28257417       1.56918763      -1.49087716
H       -0.27540312       2.27337603       0.11938069
H        2.08638888       1.48859503      -0.43013698
H        2.44462794      -0.77525872       0.55196906
15
Frame=8 idx=008798 GeodesicLength=0.8688132592957118 rxn_smarts="[O:1]=[C:2]1[C:3]([H:8])([H:9])[C:4]([H:10])([H:11])[C:5]([H:12])([H:13])[C:6]([H:14])=[C:7]1[H:15]>>[O:1]=[C:2](/[C:7](=[C:6](\[C:5]([C:4](=[C:3]([H:8])[H:9])[H:10])([H:12])[H:13])[H:14])[H:15])[H:11]"
O        0.41780036      -2.23894417       1.43058258
C        0.30637331      -1.17505721       0.83675866
C       -1.08605923      -0.97403919      -0.58479436
C       -1.16475328       0.31549685      -0.00591341
C       -0.13954830       1.33167868      -0.43668507
C        1.26672994       0.81178332      -0.22625558
C        1.47856295      -0.38129452       0.31853421
H       -0.64055119      -1.08035550      -1.56842581
H       -1.88603481      -1.67430353      -0.37466551
H       -2.07306224       0.65159604       0.47841188
H       -0.48331738      -0.15443874       1.36504761
H       -0.27031253       1.54818356      -1.50269070
H       -0.27244912       2.27678694       0.09569554
H        2.08540177       1.50055390      -0.39626924
H        2.46121975      -0.75764644       0.57066920
15
Frame=9 idx=008798 GeodesicLength=0.9770746485535633 rxn_smarts="[O:1]=[C:2]1[C:3]([H:8])([H:9])[C:4]([H:10])([H:11])[C:5]([H:12])([H:13])[C:6]([H:14])=[C:7]1[H:15]>>[O:1]=[C:2](/[C:7](=[C:6](\[C:5]([C:4](=[C:3]([H:8])[H:9])[H:10])([H:12])[H:13])[H:14])[H:15])[H:11]"
O        0.46466188      -2.25674606       1.41869547
C        0.32940479      -1.19156029       0.83542153
C       -1.10700633      -0.97037522      -0.58453805
C       -1.16944083       0.32048349      -0.00324814
C       -0.13574058       1.32559857      -0.44406735
C        1.26956803       0.81173612      -0.21798674
C        1.49152618      -0.38256728       0.32337908
H       -0.68606227      -1.07584169      -1.57948385
H       -1.91173097      -1.66312681      -0.36617874
H       -2.07707613       0.67084219       0.47196456
H       -0.50239094      -0.16755074       1.36103983
H       -0.25772410       1.52645926      -1.51428120
H       -0.26931376       2.27985738       0.07146380
H        2.08362537       1.51201980      -0.36288816
H        2.47769967      -0.73922871       0.59070795
15
Frame=10 idx=008798 GeodesicLength=1.0853073232713606 rxn_smarts="[O:1]=[C:2]1[C:3]([H:8])([H:9])[C:4]([H:10])([H:11])[C:5]([H:12])([H:13])[C:6]([H:14])=[C:7]1[H:15]>>[O:1]=[C:2](/[C:7](=[C:6](\[C:5]([C:4](=[C:3]([H:8])[H:9])[H:10])([H:12])[H:13])[H:14])[H:15])[H:11]"
O        0.51221927      -2.27445940       1.40593659
C        0.35310468      -1.20837122       0.83367048
C       -1.12825906      -0.96646572      -0.58435143
C       -1.17414118       0.32554454      -0.00061764
C       -0.13179002       1.31918581      -0.45144404
C        1.27242469       0.81169868      -0.20934212
C        1.50491634      -0.38358527       0.32879947
H       -0.73269473      -1.07068353      -1.59024484
H       -1.93769465      -1.65149533      -0.35761517
H       -2.08072042       0.69033092       0.46549468
H       -0.52161288      -0.18124280       1.35662335
H       -0.24478388       1.50393794      -1.52564998
H       -0.26599750       2.28254170       0.04661342
H        2.08109837       1.52317726      -0.32981385
H        2.49393097      -0.72011360       0.61194108
15
Frame=11 idx=008798 GeodesicLength=1.1935029844245866 rxn_smarts="[O:1]=[C:2]1[C:3]([H:8])([H:9])[C:4]([H:10])([H:11])[C:5]([H:12])([H:13])[C:6]([H:14])=[C:7]1[H:15]>>[O:1]=[C:2](/[C:7](=[C:6](\[C:5]([C:4](=[C:3]([H:8])[H:9])[H:10])([H:12])[H:13])[H:14])[H:15])[H:11]"
O        0.56053629      -2.29207906       1.39228298
C        0.37751058      -1.22549549       0.83149049
C       -1.14983831      -0.96229852      -0.58426293
C       -1.17884943       0.33066767       0.00198331
C       -0.12769578       1.31241426      -0.45881975
C        1.27529057       0.81165890      -0.20032070
C        1.51873183      -0.38431766       0.33486422
H       -0.78048880      -1.06480933      -1.60070026
H       -1.96393522      -1.63939781      -0.34899669
H       -2.08397179       0.71004403       0.45903148
H       -0.54099150      -0.19547860       1.35178925
H       -0.23148744       1.48056649      -1.53678375
H       -0.26248768       2.28480061       0.02110968
H        2.07783364       1.53403459      -0.29707000
H        2.50984304      -0.70031008       0.63440269
15
Frame=12 idx=008798 GeodesicLength=1.301669516313063 rxn_smarts="[O:1]=[C:2]1[C:3]([H:8])([H:9])[C:4]([H:10])([H:11])[C:5]([H:12])([H:13])[C:6]([H:14])=[C:7]1[H:15]>>[O:1]=[C:2](/[C:7](=[C:6](\[C:5]([C:4](=[C:3]([H:8])[H:9])[H:10])([H:12])[H:13])[H:14])[H:15])[H:11]"
O        0.60969666      -2.30962728       1.37764796
C        0.40267272      -1.24295742       0.82882786
C       -1.17178693      -0.95785782      -0.58429278
C       -1.18356227       0.33584322       0.00456517
C       -0.12345589       1.30525042      -0.46620969
C        1.27815355       0.81158704      -0.19095588
C        1.53296842      -0.38474794       0.34161561
H       -0.82952011      -1.05814456      -1.61084192
H       -1.99048420      -1.62681377      -0.34032406
H       -2.08679696       0.72997644       0.45262378
H       -0.56052127      -0.21022162       1.34652230
H       -0.21784074       1.45627622      -1.54767565
H       -0.25875370       2.28658712      -0.00510047
H        2.07385287       1.54461208      -0.26466813
H        2.52537786      -0.67976214       0.65826592
15
Frame=13 idx=008798 GeodesicLength=1.4097928775302246 rxn_smarts="[O:1]=[C:2]1[C:3]([H:8])([H:9])[C:4]([H:10])([H:11])[C:5]([H:12])([H:13])[C:6]([H:14])=[C:7]1[H:15]>>[O:1]=[C:2](/[C:7](=[C:6](\[C:5]([C:4](=[C:3]([H:8])[H:9])[H:10])([H:12])[H:13])[H:14])[H:15])[H:11]"
O        0.65978182      -2.32708990       1.36198407
C        0.42864537      -1.26077193       0.82563781
C       -1.19413564      -0.95312766      -0.58447280
C       -1.18827309       0.34105774       0.00713217
C       -0.11906668       1.29766227      -0.47361689
C        1.28100829       0.81146044      -0.18126405
C        1.54761963      -0.38485512       0.34911073
H       -0.87984899      -1.05060068      -1.62065658
H       -2.01735357      -1.61373135      -0.33161228
H       -2.08916701       0.75011481       0.44630323
H       -0.58020721      -0.22544076       1.34081043
H       -0.20384720       1.43101274      -1.55830622
H       -0.25477067       2.28784624      -0.03204012
H        2.06916601       1.55490408      -0.23266437
H        2.54044895      -0.65844092       0.68365486
15
Frame=14 idx=008798 GeodesicLength=1.5178776135402523 rxn_smarts="[O:1]=[C:2]1[C:3]([H:8])([H:9])[C:4]([H:10])([H:11])[C:5]([H:12])([H:13])[C:6]([H:14])=[C:7]1[H:15]>>[O:1]=[C:2](/[C:7](=[C:6](\[C:5]([C:4](=[C:3]([H:8])[H:9])[H:10])([H:12])[H:13])[H:14])[H:15])[H:11]"
O        0.71090194      -2.34447592       1.34519109
C        0.45549216      -1.27896560       0.82185468
C       -1.21692922      -0.94809043      -0.58482131
C       -1.19297564       0.34629833       0.00969210
C       -0.11452384       1.28960880      -0.48105882
C        1.28384638       0.81125039      -0.17127493
C        1.56268152      -0.38461562       0.35740835
H       -0.93154526      -1.04208745      -1.63011716
H       -2.04457695      -1.60012550      -0.32285924
H       -2.09104772       0.77045816       0.44010641
H       -0.60005098      -0.24109263       1.33464439
H       -0.18951222       1.40469233      -1.56866419
H       -0.25050531       2.28851911      -0.05976765
H        2.06378371       1.56493074      -0.20106731
H        2.55496143      -0.63630470       0.71073359
15
Frame=15 idx=008798 GeodesicLength=1.6259089686613872 rxn_smarts="[O:1]=[C:2]1[C:3]([H:8])([H:9])[C:4]([H:10])([H:11])[C:5]([H:12])([H:13])[C:6]([H:14])=[C:7]1[H:15]>>[O:1]=[C:2](/[C:7](=[C:6](\[C:5]([C:4](=[C:3]([H:8])[H:9])[H:10])([H:12])[H:13])[H:14])[H:15])[H:11]"
O        0.76317233      -2.36174864       1.32721697
C        0.48327944      -1.29755157       0.81742396
C       -1.24020091      -0.94272807      -0.58536411
C       -1.19766455       0.35155175       0.01224408
C       -0.10982309       1.28105255      -0.48854078
C        1.28666225       0.81094078      -0.16099310
C        1.57814041      -0.38399919       0.36658605
H       -0.98465392      -1.03250710      -1.63918844
H       -2.07216501      -1.58598419      -0.31407204
H       -2.09241305       0.79100066       0.43404777
H       -0.62007248      -0.25713349       1.32801706
H       -0.17483319       1.37723778      -1.57872747
H       -0.24593411       2.28854263      -0.08832216
H        2.05770736       1.57470194      -0.16989555
H        2.56879852      -0.61337583       0.73956777
15
Frame=16 idx=008798 GeodesicLength=1.7338743406540174 rxn_smarts="[O:1]=[C:2]1[C:3]([H:8])([H:9])[C:4]([H:10])([H:11])[C:5]([H:12])([H:13])[C:6]([H:14])=[C:7]1[H:15]>>[O:1]=[C:2](/[C:7](=[C:6](\[C:5]([C:4](=[C:3]([H:8])[H:9])[H:10])([H:12])[H:13])[H:14])[H:15])[H:11]"
O        0.81673315      -2.37889668       1.30793424
C        0.51209115      -1.31655842       0.81225372
C       -1.26400225      -0.93701610      -0.58612247
C       -1.20233013       0.35680495       0.01479441
C       -0.10495705       1.27194596      -0.49607869
C        1.28945417       0.81049846      -0.15045577
C        1.59398938      -0.38299389       0.37668790
H       -1.03925492      -1.02174422      -1.64783034
H       -2.10014620      -1.57128285      -0.30524104
H       -2.09321856       0.81174523       0.42816562
H       -0.64027268      -0.27353061       1.32091722
H       -0.15982169       1.34855783      -1.58847696
H       -0.24101404       2.28784251      -0.11775654
H        2.05094147       1.58421584      -0.13919642
H        2.58180820      -0.58958800       0.77040512
