10
Frame=0 idx=009999 GeodesicLength=0.0 rxn_smarts="[C:1](#[C:2][c:3]1[c:4]([H:9])[n:5][n:6][n:7]1[H:10])[H:8]>>[C:1](=[C:2])([c:3]1[c:4]([H:9])[n:5][n:6][n:7]1[H:10])[H:8]"
C        1.89493972      -0.04772466      -0.18035654
C        1.33760415      -0.47700290      -1.21419795
C        0.09382813      -0.10234508      -0.37144542
C       -0.60817757       1.06345100      -0.14805301
N       -1.74584371       0.76774221       0.52135875
N       -1.79643417      -0.50723009       0.72608274
N       -0.69559049      -1.04148883       0.21123363
H        2.43536312       0.31486803       0.67132817
H       -0.35287974       2.06842293      -0.43919628
H       -0.56280945      -2.03869259       0.22324591
10
Frame=1 idx=009999 GeodesicLength=0.2807985624160939 rxn_smarts="[C:1](#[C:2][c:3]1[c:4]([H:9])[n:5][n:6][n:7]1[H:10])[H:8]>>[C:1](=[C:2])([c:3]1[c:4]([H:9])[n:5][n:6][n:7]1[H:10])[H:8]"
C        1.90877744       0.01502869      -0.22938076
C        1.33457671      -0.51752135      -1.20058091
C        0.08839875      -0.09480684      -0.35378268
C       -0.62667859       1.06474259      -0.13464279
N       -1.79458127       0.75770813       0.47551893
N       -1.83400659      -0.51573065       0.69079298
N       -0.70440766      -1.03545921       0.22400318
H        2.55864280       0.28468620       0.67615923
H       -0.35959952       2.07396814      -0.39962022
H       -0.57112208      -2.03261569       0.25153303
10
Frame=2 idx=009999 GeodesicLength=0.5613139990478677 rxn_smarts="[C:1](#[C:2][c:3]1[c:4]([H:9])[n:5][n:6][n:7]1[H:10])[H:8]>>[C:1](=[C:2])([c:3]1[c:4]([H:9])[n:5][n:6][n:7]1[H:10])[H:8]"
C        1.91953828       0.07366798      -0.27123252
C        1.33655841      -0.55726688      -1.17259862
C        0.08328116      -0.08676475      -0.32985860
C       -0.64441220       1.06652189      -0.11365079
N       -1.84101945       0.74816823       0.43251964
N       -1.87718524      -0.52566918       0.64506497
N       -0.71986197      -1.03042756       0.23094522
H        2.70060086       0.25993554       0.66372115
H       -0.37341033       2.07861028      -0.36383518
H       -0.58408954      -2.02677554       0.27892473
10
Frame=3 idx=009999 GeodesicLength=0.841049211236005 rxn_smarts="[C:1](#[C:2][c:3]1[c:4]([H:9])[n:5][n:6][n:7]1[H:10])[H:8]>>[C:1](=[C:2])([c:3]1[c:4]([H:9])[n:5][n:6][n:7]1[H:10])[H:8]"
C        1.92753156       0.12605169      -0.30526399
C        1.34320302      -0.59882678      -1.12852896
C        0.07823470      -0.07961603      -0.29841098
C       -0.66095401       1.06790877      -0.08410900
N       -1.88526786       0.73980379       0.39145492
N       -1.92431612      -0.53583454       0.59136625
N       -0.74256144      -1.02733445       0.23200318
H        2.86310625       0.24924138       0.63348604
H       -0.39200043       2.08145983      -0.33156477
H       -0.60697567      -2.02285366       0.29956731
10
Frame=4 idx=009999 GeodesicLength=1.1191668726440736 rxn_smarts="[C:1](#[C:2][c:3]1[c:4]([H:9])[n:5][n:6][n:7]1[H:10])[H:8]>>[C:1](=[C:2])([c:3]1[c:4]([H:9])[n:5][n:6][n:7]1[H:10])[H:8]"
C        1.93146459       0.17539365      -0.33402186
C        1.35560360      -0.64487779      -1.06527092
C        0.07190097      -0.07442399      -0.26194462
C       -0.67936987       1.06768360      -0.05379530
N       -1.92800960       0.73279312       0.34978784
N       -1.97254618      -0.54473525       0.53468378
N       -0.77127700      -1.02604709       0.22816351
H        3.04379382       0.25239249       0.58655247
H       -0.41110622       2.08310326      -0.29584349
H       -0.64045410      -2.02128199       0.31168860
10
Frame=5 idx=009999 GeodesicLength=1.3943966271888135 rxn_smarts="[C:1](#[C:2][c:3]1[c:4]([H:9])[n:5][n:6][n:7]1[H:10])[H:8]>>[C:1](=[C:2])([c:3]1[c:4]([H:9])[n:5][n:6][n:7]1[H:10])[H:8]"
C        1.93049555       0.22420539      -0.35908552
C        1.37548734      -0.69472015      -0.97703103
C        0.06341000      -0.07031648      -0.22168524
C       -0.70162447       1.06627226      -0.02663095
N       -1.97000115       0.72692911       0.30735779
N       -2.02013260      -0.55203133       0.47867410
N       -0.80386300      -1.02554287       0.22107502
H        3.24255814       0.26215007       0.52320935
H       -0.43327179       2.08479053      -0.25759576
H       -0.68305803      -2.02173653       0.31171224
10
Frame=6 idx=009999 GeodesicLength=1.6645393362458936 rxn_smarts="[C:1](#[C:2][c:3]1[c:4]([H:9])[n:5][n:6][n:7]1[H:10])[H:8]>>[C:1](=[C:2])([c:3]1[c:4]([H:9])[n:5][n:6][n:7]1[H:10])[H:8]"
C        1.92387269       0.27444523      -0.38126808
C        1.40397786      -0.74142929      -0.85872721
C        0.05154008      -0.06380576      -0.18018819
C       -0.73011947       1.06563392      -0.00308045
N       -2.01316100       0.72072887       0.26474654
N       -2.06580925      -0.55936745       0.42413489
N       -0.83749122      -1.02427731       0.20970726
H        3.46046101       0.26092137       0.44426547
H       -0.46646478       2.08893558      -0.22171688
H       -0.72680592      -2.02178515       0.30212666
10
Frame=7 idx=009999 GeodesicLength=1.9265449698746435 rxn_smarts="[C:1](#[C:2][c:3]1[c:4]([H:9])[n:5][n:6][n:7]1[H:10])[H:8]>>[C:1](=[C:2])([c:3]1[c:4]([H:9])[n:5][n:6][n:7]1[H:10])[H:8]"
C        1.91091772       0.33193497      -0.40264498
C        1.44205328      -0.77050198      -0.70692962
C        0.03490882      -0.04833482      -0.14309103
C       -0.76974289       1.06867140       0.01564092
N       -2.06103145       0.71021068       0.22235116
N       -2.10635658      -0.57082798       0.37352643
N       -0.86665167      -1.02002952       0.19208935
H        3.69707168       0.21703943       0.35373364
H       -0.52356255       2.09931812      -0.19451836
H       -0.75760636      -2.01748031       0.28984248
10
Frame=8 idx=009999 GeodesicLength=2.1756624645670852 rxn_smarts="[C:1](#[C:2][c:3]1[c:4]([H:9])[n:5][n:6][n:7]1[H:10])[H:8]>>[C:1](=[C:2])([c:3]1[c:4]([H:9])[n:5][n:6][n:7]1[H:10])[H:8]"
C        1.89093400       0.41001830      -0.43578846
C        1.49028842      -0.75792734      -0.52447253
C        0.01425483      -0.01393439      -0.11868949
C       -0.82680048       1.07863950       0.02400035
N       -2.11585305       0.68840397       0.18806954
N       -2.13360547      -0.59343163       0.33437158
N       -0.87984199      -1.00938325       0.17100599
H        3.93796865       0.08277414       0.26894536
H       -0.62198012       2.11914526      -0.18643721
H       -0.75536477      -2.00430456       0.27899487
10
Frame=9 idx=009999 GeodesicLength=2.3985618997225733 rxn_smarts="[C:1](#[C:2][c:3]1[c:4]([H:9])[n:5][n:6][n:7]1[H:10])[H:8]>>[C:1](=[C:2])([c:3]1[c:4]([H:9])[n:5][n:6][n:7]1[H:10])[H:8]"
C        1.86814232       0.52481017      -0.47996364
C        1.55140902      -0.66309869      -0.32448596
C       -0.00840374       0.05074166      -0.12016830
C       -0.90737033       1.09697642       0.01493440
N       -2.17802787       0.64412662       0.17145544
N       -2.13428077      -0.63723599       0.31291621
N       -0.86207013      -0.98903357       0.14362447
H        4.14039886      -0.20244750       0.20222371
H       -0.77983253       2.14862912      -0.20348655
H       -0.68996482      -1.97346825       0.28295022
10
Frame=10 idx=009999 GeodesicLength=2.563465373137932 rxn_smarts="[C:1](#[C:2][c:3]1[c:4]([H:9])[n:5][n:6][n:7]1[H:10])[H:8]>>[C:1](=[C:2])([c:3]1[c:4]([H:9])[n:5][n:6][n:7]1[H:10])[H:8]"
C        1.86124608       0.66719453      -0.51527349
C        1.62164529      -0.48208047      -0.09560521
C       -0.01364892       0.14218705      -0.11839067
C       -0.99333263       1.11766800      -0.01324945
N       -2.22810558       0.57633090       0.16840281
N       -2.09543482      -0.70147505       0.29162355
N       -0.80195837      -0.96037787       0.11275132
H        4.17895739      -0.60763841       0.11991167
H       -0.97183693       2.17345971      -0.24105842
H       -0.55753151      -1.92526838       0.29088790
10
Frame=11 idx=009999 GeodesicLength=2.8923956401771163 rxn_smarts="[C:1](#[C:2][c:3]1[c:4]([H:9])[n:5][n:6][n:7]1[H:10])[H:8]>>[C:1](=[C:2])([c:3]1[c:4]([H:9])[n:5][n:6][n:7]1[H:10])[H:8]"
C        1.93704766       0.67648981      -0.49208425
C        1.69878187      -0.36675685       0.17376864
C        0.02255667       0.19518163      -0.09964712
C       -1.00968896       1.12889375      -0.06230472
N       -2.22296811       0.53927964       0.17212324
N       -2.03756761      -0.73802495       0.30285797
N       -0.73757148      -0.95133484       0.07403759
H        3.85222657      -0.75366079      -0.02650575
H       -1.05241152       2.18320659      -0.28634513
H       -0.45040507      -1.91327398       0.24409952
10
Frame=12 idx=009999 GeodesicLength=3.186284183953325 rxn_smarts="[C:1](#[C:2][c:3]1[c:4]([H:9])[n:5][n:6][n:7]1[H:10])[H:8]>>[C:1](=[C:2])([c:3]1[c:4]([H:9])[n:5][n:6][n:7]1[H:10])[H:8]"
C        1.95126068       0.48610670      -0.30545020
C        1.61821458      -0.36510770       0.54197909
C        0.00749757       0.16396403      -0.03681054
C       -0.99371602       1.12085641      -0.09765802
N       -2.22979599       0.56455319       0.05076851
N       -2.08720928      -0.71008710       0.21046788
N       -0.78302575      -0.95580033       0.09360388
H        4.03752903      -0.56561462      -0.43084803
H       -0.99425881       2.17762367      -0.31455430
H       -0.52649601      -1.91649427       0.28850172
10
Frame=13 idx=009999 GeodesicLength=4.059528846871513 rxn_smarts="[C:1](#[C:2][c:3]1[c:4]([H:9])[n:5][n:6][n:7]1[H:10])[H:8]>>[C:1](=[C:2])([c:3]1[c:4]([H:9])[n:5][n:6][n:7]1[H:10])[H:8]"
C        1.97950110       0.23074745      -0.39254389
C        1.67771825      -0.39982510       0.61444975
C        0.06126493       0.10205792       0.00525743
C       -0.89075296       1.10056829      -0.12396447
N       -2.14723525       0.60023040       0.00477549
N       -2.06547637      -0.67576617       0.17240869
N       -0.77168206      -0.98092294       0.11720894
H        3.52562909      -0.19366566      -0.41236689
H       -0.81602582       2.16487119      -0.28859138
H       -0.55294094      -1.94829537       0.30336634
10
Frame=14 idx=009999 GeodesicLength=4.366121726415845 rxn_smarts="[C:1](#[C:2][c:3]1[c:4]([H:9])[n:5][n:6][n:7]1[H:10])[H:8]>>[C:1](=[C:2])([c:3]1[c:4]([H:9])[n:5][n:6][n:7]1[H:10])[H:8]"
C        1.97811950       0.08920197      -0.28695729
C        1.64822141      -0.42082469       0.78551133
C        0.06676325       0.04650099       0.03003654
C       -0.82989957       1.07973402      -0.16354650
N       -2.10504823       0.62966662      -0.03929231
N       -2.07518290      -0.64616559       0.14729097
N       -0.79624267      -1.00769452       0.11470466
H        3.40144465       0.06481433      -0.61271359
H       -0.68464137       2.14193293      -0.28580285
H       -0.60353407      -1.97716607       0.31076903
10
Frame=15 idx=009999 GeodesicLength=4.820494844899306 rxn_smarts="[C:1](#[C:2][c:3]1[c:4]([H:9])[n:5][n:6][n:7]1[H:10])[H:8]>>[C:1](=[C:2])([c:3]1[c:4]([H:9])[n:5][n:6][n:7]1[H:10])[H:8]"
C        1.96138229      -0.05442588      -0.32067227
C        1.68300070      -0.42272573       0.82437525
C        0.08199592       0.01072634       0.04564095
C       -0.77486080       1.07282136      -0.15791077
N       -2.05972500       0.65402479      -0.05081203
N       -2.06570895      -0.62077039       0.14752641
N       -0.80003601      -1.02419280       0.11555738
H        3.16752595       0.26132907      -0.58756650
H       -0.57478403       2.12000558      -0.32019259
H       -0.61879008      -1.99679234       0.30405417
10
Frame=16 idx=009999 GeodesicLength=5.442482814402711 rxn_smarts="[C:1](#[C:2][c:3]1[c:4]([H:9])[n:5][n:6][n:7]1[H:10])[H:8]>>[C:1](=[C:2])([c:3]1[c:4]([H:9])[n:5][n:6][n:7]1[H:10])[H:8]"
C        1.95686849      -0.14881077      -0.30914842
C        1.72489641      -0.39493004       0.88027281
C        0.10465536      -0.00425946       0.07681760
C       -0.72422932       1.07567389      -0.13599844
N       -2.01290691       0.65985632      -0.12186444
N       -2.03986412      -0.61305960       0.08658834
N       -0.78055566      -1.03395346       0.11321756
H        2.86334635       0.34394394      -0.63533366
H       -0.48866462       2.11651044      -0.28492609
H       -0.60354597      -2.00097124       0.33037473
