10
Frame=0 idx=008754 GeodesicLength=0.0 rxn_smarts="[O:1]=[C:2]([c:3]1[n:4][o:5][c:6]([H:9])[c:7]1[H:10])[H:8]>>[O:1]=[C:2]([C:7]([C:3]#[N:4])([C:6](=[O:5])[H:9])[H:10])[H:8]"
O       -2.21794382       0.91135289      -1.35886613
C       -1.74923391       0.00927611      -0.78400642
C       -0.11849745      -0.09715569      -0.59071631
N        0.07085291      -0.96620129      -1.41729457
O        2.05761125      -1.10332636       0.26153378
C        1.62247175      -0.14422652       0.87442524
C        0.39744960       0.51806790       0.53138620
H       -2.22938517      -0.80771109      -0.23697344
H        2.19412647       0.29921880       1.70630804
H       -0.02745162       1.38070523       1.01420362
10
Frame=1 idx=008754 GeodesicLength=0.10011980135444051 rxn_smarts="[O:1]=[C:2]([c:3]1[n:4][o:5][c:6]([H:9])[c:7]1[H:10])[H:8]>>[O:1]=[C:2]([C:7]([C:3]#[N:4])([C:6](=[O:5])[H:9])[H:10])[H:8]"
O       -2.26543633       0.91045812      -1.26689237
C       -1.73303394       0.00734654      -0.74801602
C       -0.08136240      -0.05597138      -0.65598641
N        0.11159616      -0.96787341      -1.43426294
O        2.01690053      -1.11821724       0.26769373
C        1.58253114      -0.16158469       0.89082420
C        0.39147960       0.53641535       0.50021436
H       -2.17092259      -0.85344000      -0.23237419
H        2.13472292       0.25550733       1.74789329
H        0.01352492       1.44735936       0.93090635
10
Frame=2 idx=008754 GeodesicLength=0.20108463724019224 rxn_smarts="[O:1]=[C:2]([c:3]1[n:4][o:5][c:6]([H:9])[c:7]1[H:10])[H:8]>>[O:1]=[C:2]([C:7]([C:3]#[N:4])([C:6](=[O:5])[H:9])[H:10])[H:8]"
O       -2.30245596       0.91113200      -1.17011917
C       -1.71583193       0.00593541      -0.71255094
C       -0.05004293      -0.02551078      -0.71232243
N        0.15370338      -0.96894534      -1.44972410
O        1.97413385      -1.13386647       0.27661902
C        1.54474586      -0.17248142       0.90171718
C        0.38564449       0.55441279       0.46829854
H       -2.11914109      -0.89488435      -0.23718559
H        2.07561212       0.22092577       1.78197166
H        0.05363221       1.50328241       0.85329585
10
Frame=3 idx=008754 GeodesicLength=0.30262458412257953 rxn_smarts="[O:1]=[C:2]([c:3]1[n:4][o:5][c:6]([H:9])[c:7]1[H:10])[H:8]>>[O:1]=[C:2]([C:7]([C:3]#[N:4])([C:6](=[O:5])[H:9])[H:10])[H:8]"
O       -2.33114730       0.91130148      -1.07071648
C       -1.69781093       0.00508735      -0.67708301
C       -0.02285839      -0.00269356      -0.76302269
N        0.19639621      -0.97097571      -1.46352955
O        1.93162055      -1.14791346       0.28521655
C        1.51034441      -0.17728880       0.90714336
C        0.38110686       0.57264017       0.43480878
H       -2.07246656      -0.93070952      -0.24634871
H        2.01297876       0.18980509       1.81371286
H        0.09183639       1.55074695       0.77981889
10
Frame=4 idx=008754 GeodesicLength=0.40402887110188157 rxn_smarts="[O:1]=[C:2]([c:3]1[n:4][o:5][c:6]([H:9])[c:7]1[H:10])[H:8]>>[O:1]=[C:2]([C:7]([C:3]#[N:4])([C:6](=[O:5])[H:9])[H:10])[H:8]"
O       -2.35154834       0.91290717      -0.97164541
C       -1.68016940       0.00562544      -0.64306297
C        0.00050787       0.01245238      -0.80791475
N        0.23879287      -0.97626938      -1.47372878
O        1.89374751      -1.15781046       0.29154565
C        1.47828888      -0.17922200       0.91063032
C        0.37600950       0.58809497       0.40287334
H       -2.03380747      -0.96006578      -0.26140130
H        1.95175409       0.16514939       1.84038806
H        0.12642449       1.58913827       0.71231585
10
Frame=5 idx=008754 GeodesicLength=0.5051966383581117 rxn_smarts="[O:1]=[C:2]([c:3]1[n:4][o:5][c:6]([H:9])[c:7]1[H:10])[H:8]>>[O:1]=[C:2]([C:7]([C:3]#[N:4])([C:6](=[O:5])[H:9])[H:10])[H:8]"
O       -2.36533390       0.91525668      -0.87276662
C       -1.66314831       0.00725104      -0.61016513
C        0.02077836       0.02146114      -0.84820305
N        0.28113991      -0.98402327      -1.48092264
O        1.86054187      -1.16407545       0.29602025
C        1.44821146      -0.17908976       0.91285199
C        0.37039787       0.60105222       0.37235600
H       -2.00235310      -0.98372432      -0.28166052
H        1.89188866       0.14552067       1.86310583
H        0.15787718       1.62037105       0.64938389
10
Frame=6 idx=008754 GeodesicLength=0.6059034954616709 rxn_smarts="[O:1]=[C:2]([c:3]1[n:4][o:5][c:6]([H:9])[c:7]1[H:10])[H:8]>>[O:1]=[C:2]([C:7]([C:3]#[N:4])([C:6](=[O:5])[H:9])[H:10])[H:8]"
O       -2.37338428       0.91860982      -0.77513253
C       -1.64729127       0.01015599      -0.57846523
C        0.03823721       0.02454643      -0.88424285
N        0.32302139      -0.99494193      -1.48446108
O        1.83509374      -1.16483080       0.29726338
C        1.41903667      -0.17842770       0.91510860
C        0.36398167       0.61109676       0.34352760
H       -1.97872600      -1.00133505      -0.30670745
H        1.83368338       0.13000427       1.88266682
H        0.18634748       1.64512221       0.59044272
10
Frame=7 idx=008754 GeodesicLength=0.7063683338409554 rxn_smarts="[O:1]=[C:2]([c:3]1[n:4][o:5][c:6]([H:9])[c:7]1[H:10])[H:8]>>[O:1]=[C:2]([C:7]([C:3]#[N:4])([C:6](=[O:5])[H:9])[H:10])[H:8]"
O       -2.37720829       0.92140995      -0.67752501
C       -1.63221132       0.01362046      -0.54787293
C        0.05367145       0.02375998      -0.91717283
N        0.36567723      -1.00638091      -1.48631126
O        1.81173957      -1.16486026       0.29903193
C        1.39112472      -0.17678672       0.91695005
C        0.35703733       0.61911478       0.31604483
H       -1.96072562      -1.01409788      -0.33675804
H        1.77940777       0.11952245       1.89814391
H        0.21148717       1.66469814       0.53546935
10
Frame=8 idx=008754 GeodesicLength=0.8067066127677347 rxn_smarts="[O:1]=[C:2]([c:3]1[n:4][o:5][c:6]([H:9])[c:7]1[H:10])[H:8]>>[O:1]=[C:2]([C:7]([C:3]#[N:4])([C:6](=[O:5])[H:9])[H:10])[H:8]"
O       -2.37738447       0.92289562      -0.57936848
C       -1.61781118       0.01737068      -0.51807624
C        0.06742312       0.01964709      -0.94759587
N        0.40925556      -1.01800061      -1.48681136
O        1.78992071      -1.16452926       0.30148884
C        1.36456692      -0.17408730       0.91823231
C        0.34985177       0.62554240       0.28941524
H       -1.94767480      -1.02200734      -0.37138160
H        1.72821766       0.11298795       1.91059867
H        0.23363471       1.68018076       0.48349848
10
Frame=9 idx=008754 GeodesicLength=0.9067479286659984 rxn_smarts="[O:1]=[C:2]([c:3]1[n:4][o:5][c:6]([H:9])[c:7]1[H:10])[H:8]>>[O:1]=[C:2]([C:7]([C:3]#[N:4])([C:6](=[O:5])[H:9])[H:10])[H:8]"
O       -2.37415036       0.92327466      -0.48138008
C       -1.60451677       0.02155444      -0.48930745
C        0.07950410       0.01184139      -0.97533818
N        0.45328923      -1.03057192      -1.48519391
O        1.77218582      -1.16204665       0.30343692
C        1.33829787      -0.17152252       0.91996042
C        0.34198776       0.62982264       0.26405647
H       -1.94037508      -1.02426104      -0.41094603
H        1.68084801       0.11031682       1.92034572
H        0.25292942       1.69159218       0.43436612
10
Frame=10 idx=008754 GeodesicLength=1.0066459727225392 rxn_smarts="[O:1]=[C:2]([c:3]1[n:4][o:5][c:6]([H:9])[c:7]1[H:10])[H:8]>>[O:1]=[C:2]([C:7]([C:3]#[N:4])([C:6](=[O:5])[H:9])[H:10])[H:8]"
O       -2.36794395       0.92142190      -0.38290718
C       -1.59207237       0.02578557      -0.46164148
C        0.09036592       0.00110951      -1.00097354
N        0.49828137      -1.04309420      -1.48225388
O        1.75596980      -1.15933821       0.30621715
C        1.31255087      -0.16874974       0.92177821
C        0.33361027       0.63237370       0.23962847
H       -1.93773102      -1.02075004      -0.45508027
H        1.63774227       0.11160319       1.92744068
H        0.26922684       1.69963831       0.38779183
10
Frame=11 idx=008754 GeodesicLength=1.1065615795642736 rxn_smarts="[O:1]=[C:2]([c:3]1[n:4][o:5][c:6]([H:9])[c:7]1[H:10])[H:8]>>[O:1]=[C:2]([C:7]([C:3]#[N:4])([C:6](=[O:5])[H:9])[H:10])[H:8]"
O       -2.35879136       0.91647799      -0.28302041
C       -1.58023621       0.02992828      -0.43497259
C        0.10027747      -0.01237109      -1.02504653
N        0.54429809      -1.05548676      -1.47821599
O        1.74115115      -1.15631036       0.30970080
C        1.28771839      -0.16524722       0.92316065
C        0.32507623       0.63366086       0.21541270
H       -1.93895404      -1.01105742      -0.50259356
H        1.59647105       0.11526387       1.93305180
H        0.28298923       1.70514185       0.34252313
10
Frame=12 idx=008754 GeodesicLength=1.2066286160605137 rxn_smarts="[O:1]=[C:2]([c:3]1[n:4][o:5][c:6]([H:9])[c:7]1[H:10])[H:8]>>[O:1]=[C:2]([C:7]([C:3]#[N:4])([C:6](=[O:5])[H:9])[H:10])[H:8]"
O       -2.34657804       0.90780127      -0.18131654
C       -1.56904007       0.03391009      -0.40917609
C        0.10937273      -0.02875367      -1.04762152
N        0.59125589      -1.06796720      -1.47291106
O        1.72809002      -1.15268525       0.31379920
C        1.26371499      -0.16106699       0.92422510
C        0.31637198       0.63366771       0.19132725
H       -1.94422157      -0.99443304      -0.55386619
H        1.55669635       0.12113776       1.93745365
H        0.29433774       1.70838931       0.29808621
10
Frame=13 idx=008754 GeodesicLength=1.3066789901731497 rxn_smarts="[O:1]=[C:2]([c:3]1[n:4][o:5][c:6]([H:9])[c:7]1[H:10])[H:8]>>[O:1]=[C:2]([C:7]([C:3]#[N:4])([C:6](=[O:5])[H:9])[H:10])[H:8]"
O       -2.33089890       0.89491362      -0.07786197
C       -1.55855562       0.03803741      -0.38480908
C        0.11769559      -0.04844053      -1.06874317
N        0.63866411      -1.08107294      -1.46577064
O        1.71873543      -1.14692661       0.31767015
C        1.24017169      -0.15650745       0.92508463
C        0.30743401       0.63213878       0.16711986
H       -1.95359886      -0.96966868      -0.60794288
H        1.51710200       0.12833474       1.94121050
H        0.30325055       1.70919167       0.25404260
10
Frame=14 idx=008754 GeodesicLength=1.407166690314993 rxn_smarts="[O:1]=[C:2]([c:3]1[n:4][o:5][c:6]([H:9])[c:7]1[H:10])[H:8]>>[O:1]=[C:2]([C:7]([C:3]#[N:4])([C:6](=[O:5])[H:9])[H:10])[H:8]"
O       -2.31164575       0.87612013       0.02823910
C       -1.54847812       0.04261616      -0.36251898
C        0.12584769      -0.07077936      -1.08902220
N        0.68730166      -1.09389472      -1.45774901
O        1.70985542      -1.14127076       0.32266014
C        1.21722815      -0.15108592       0.92529727
C        0.29845707       0.62962471       0.14231021
H       -1.96557848      -0.93672274      -0.66326793
H        1.47741462       0.13703813       1.94404481
H        0.30959772       1.70835437       0.21000661
10
Frame=15 idx=008754 GeodesicLength=1.508366209611391 rxn_smarts="[O:1]=[C:2]([c:3]1[n:4][o:5][c:6]([H:9])[c:7]1[H:10])[H:8]>>[O:1]=[C:2]([C:7]([C:3]#[N:4])([C:6](=[O:5])[H:9])[H:10])[H:8]"
O       -2.28787997       0.84929115       0.13869960
C       -1.53903966       0.04737421      -0.34170712
C        0.13356872      -0.09693137      -1.10783193
N        0.73650249      -1.10771830      -1.44750630
O        1.70294336      -1.13463552       0.32889651
C        1.19468722      -0.14485182       0.92543770
C        0.28929724       0.62563116       0.11703634
H       -1.98200730      -0.89233255      -0.72429382
H        1.43871007       0.14867225       1.94579516
H        0.31321783       1.70550078       0.16547385
10
Frame=16 idx=008754 GeodesicLength=1.6103774939080537 rxn_smarts="[O:1]=[C:2]([c:3]1[n:4][o:5][c:6]([H:9])[c:7]1[H:10])[H:8]>>[O:1]=[C:2]([C:7]([C:3]#[N:4])([C:6](=[O:5])[H:9])[H:10])[H:8]"
O       -2.25948026       0.81250216       0.25204634
C       -1.53028083       0.05256411      -0.32253004
C        0.14097422      -0.12684372      -1.12511982
N        0.78634232      -1.12218875      -1.43524451
O        1.69680545      -1.12779092       0.33678797
C        1.17253434      -0.13778007       0.92537841
C        0.27986489       0.62014252       0.09127810
H       -2.00188067      -0.83479055      -0.78928822
H        1.40150008       0.16345339       1.94612906
H        0.31362046       1.70073183       0.12056270
