12
Frame=0 idx=009789 GeodesicLength=0.0 rxn_smarts="[N:1]([c:2]1[c:3]([H:10])[c:4]([O:5][H:11])[c:6]([H:12])[o:7]1)([H:8])[H:9]>>[N:1]([C:2]1=[C:3]([H:10])[C@@:4]([O:5][H:11])([H:12])[C-:6]=[O+:7]1)([H:8])[H:9]"
N       -2.19487253      -0.32244880      -0.45087946
C       -0.91223630      -0.01326949      -0.10209605
C        0.24923685      -0.68374865      -0.10565248
C        1.23844801       0.33477817       0.27385489
O        2.48450536       0.05609979       0.76180194
C        0.56098512       1.56749886       0.62139517
O       -0.73061867       1.29356039       0.26722987
H       -2.89555357       0.28470121      -0.05911153
H       -2.43476306      -1.29778736      -0.43701229
H        0.42410984      -1.71177808      -0.37406203
H        2.88217810      -0.63774475       0.23255106
H        1.32858082       1.13013867      -0.62801911
12
Frame=1 idx=009789 GeodesicLength=0.053754451364859804 rxn_smarts="[N:1]([c:2]1[c:3]([H:10])[c:4]([O:5][H:11])[c:6]([H:12])[o:7]1)([H:8])[H:9]>>[N:1]([C:2]1=[C:3]([H:10])[C@@:4]([O:5][H:11])([H:12])[C-:6]=[O+:7]1)([H:8])[H:9]"
N       -2.19679315      -0.32567719      -0.44950293
C       -0.91277093      -0.01434910      -0.10611471
C        0.25036086      -0.68187213      -0.11818321
C        1.24053364       0.33371876       0.26586685
O        2.48139954       0.05028795       0.76579609
C        0.56006844       1.56196386       0.61716131
O       -0.73188718       1.29201961       0.26685657
H       -2.89632771       0.28441010      -0.06012281
H       -2.43636358      -1.30096360      -0.42373183
H        0.42179672      -1.71421609      -0.37235089
H        2.88103613      -0.64572093       0.24101677
H        1.33894721       1.16039877      -0.62669119
12
Frame=2 idx=009789 GeodesicLength=0.10747861677242432 rxn_smarts="[N:1]([c:2]1[c:3]([H:10])[c:4]([O:5][H:11])[c:6]([H:12])[o:7]1)([H:8])[H:9]>>[N:1]([C:2]1=[C:3]([H:10])[C@@:4]([O:5][H:11])([H:12])[C-:6]=[O+:7]1)([H:8])[H:9]"
N       -2.19867705      -0.32896221      -0.44814865
C       -0.91329264      -0.01549317      -0.11016661
C        0.25142844      -0.68009007      -0.13059392
C        1.24266515       0.33265491       0.25755166
O        2.47818291       0.04440014       0.76948673
C        0.55918127       1.55634044       0.61282877
O       -0.73307662       1.29046762       0.26620303
H       -2.89707587       0.28400922      -0.06113846
H       -2.43783427      -1.30406641      -0.41055164
H        0.41936068      -1.71666310      -0.37008515
H        2.87970285      -0.65379555       0.24920264
H        1.34943513       1.19119818      -0.62458838
12
Frame=3 idx=009789 GeodesicLength=0.16118407567671045 rxn_smarts="[N:1]([c:2]1[c:3]([H:10])[c:4]([O:5][H:11])[c:6]([H:12])[o:7]1)([H:8])[H:9]>>[N:1]([C:2]1=[C:3]([H:10])[C@@:4]([O:5][H:11])([H:12])[C-:6]=[O+:7]1)([H:8])[H:9]"
N       -2.20049914      -0.33226762      -0.44686672
C       -0.91382408      -0.01676162      -0.11400764
C        0.25240973      -0.67848326      -0.14259589
C        1.24485228       0.33158382       0.24892466
O        2.47492815       0.03851101       0.77278068
C        0.55835953       1.55066145       0.60833674
O       -0.73418659       1.28888427       0.26538016
H       -2.89780788       0.28354563      -0.06227433
H       -2.43921126      -1.30707190      -0.39766401
H        0.41682033      -1.71910526      -0.36728458
H        2.87821115      -0.66193138       0.25703506
H        1.35994777       1.22243485      -0.62176412
12
Frame=4 idx=009789 GeodesicLength=0.21490675998949993 rxn_smarts="[N:1]([c:2]1[c:3]([H:10])[c:4]([O:5][H:11])[c:6]([H:12])[o:7]1)([H:8])[H:9]>>[N:1]([C:2]1=[C:3]([H:10])[C@@:4]([O:5][H:11])([H:12])[C-:6]=[O+:7]1)([H:8])[H:9]"
N       -2.20227698      -0.33561752      -0.44561683
C       -0.91436198      -0.01814439      -0.11771108
C        0.25329311      -0.67708089      -0.15413614
C        1.24708283       0.33049170       0.24000266
O        2.47161359       0.03261985       0.77573435
C        0.55759564       1.54493610       0.60363193
O       -0.73521432       1.28728853       0.26429553
H       -2.89852147       0.28300048      -0.06351107
H       -2.44050902      -1.30995842      -0.38491667
H        0.41421790      -1.72149526      -0.36418835
H        2.87655618      -0.67013285       0.26458956
H        1.37052452       1.25409268      -0.61817387
12
Frame=5 idx=009789 GeodesicLength=0.26865610503032256 rxn_smarts="[N:1]([c:2]1[c:3]([H:10])[c:4]([O:5][H:11])[c:6]([H:12])[o:7]1)([H:8])[H:9]>>[N:1]([C:2]1=[C:3]([H:10])[C@@:4]([O:5][H:11])([H:12])[C-:6]=[O+:7]1)([H:8])[H:9]"
N       -2.20397749      -0.33893294      -0.44448874
C       -0.91493761      -0.01971599      -0.12092246
C        0.25404518      -0.67596977      -0.16487532
C        1.24937585       0.32938037       0.23080325
O        2.46835498       0.02683247       0.77820168
C        0.55694943       1.53920951       0.59865315
O       -0.73615647       1.28565247       0.26313581
H       -2.89923735       0.28245690      -0.06493135
H       -2.44177958      -1.31274090      -0.37272613
H        0.41154985      -1.72388760      -0.36065943
H        2.87479349      -0.67834136       0.27173942
H        1.38101972       1.28605684      -0.61392986
12
Frame=6 idx=009789 GeodesicLength=0.3224379157353417 rxn_smarts="[N:1]([c:2]1[c:3]([H:10])[c:4]([O:5][H:11])[c:6]([H:12])[o:7]1)([H:8])[H:9]>>[N:1]([C:2]1=[C:3]([H:10])[C@@:4]([O:5][H:11])([H:12])[C-:6]=[O+:7]1)([H:8])[H:9]"
N       -2.20564758      -0.34227175      -0.44338925
C       -0.91552901      -0.02141992      -0.12393616
C        0.25467519      -0.67513502      -0.17497304
C        1.25171248       0.32823673       0.22131153
O        2.46506515       0.02109335       0.78032084
C        0.55638051       1.53346521       0.59337246
O       -0.73700755       1.28401391       0.26169404
H       -2.89993466       0.28183632      -0.06642947
H       -2.44302957      -1.31538817      -0.36074016
H        0.40884977      -1.72624752      -0.35696566
H        2.87289863      -0.68658017       0.27862988
H        1.39156665       1.31839703      -0.60889500
12
Frame=7 idx=009789 GeodesicLength=0.3762447423839707 rxn_smarts="[N:1]([c:2]1[c:3]([H:10])[c:4]([O:5][H:11])[c:6]([H:12])[o:7]1)([H:8])[H:9]>>[N:1]([C:2]1=[C:3]([H:10])[C@@:4]([O:5][H:11])([H:12])[C-:6]=[O+:7]1)([H:8])[H:9]"
N       -2.20727203      -0.34559306      -0.44236593
C       -0.91615378      -0.02329680      -0.12656004
C        0.25516580      -0.67462781      -0.18424487
C        1.25410250       0.32705943       0.21153061
O        2.46180647       0.01545940       0.78201350
C        0.55592329       1.52772761       0.58774821
O       -0.73776614       1.28235881       0.26006436
H       -2.90062746       0.28120059      -0.06805937
H       -2.44429658      -1.31792355      -0.34916563
H        0.40611743      -1.72861032      -0.35304385
H        2.87090743      -0.69481127       0.28519195
H        1.40209308       1.35105698      -0.60310895
12
Frame=8 idx=009789 GeodesicLength=0.430084951566976 rxn_smarts="[N:1]([c:2]1[c:3]([H:10])[c:4]([O:5][H:11])[c:6]([H:12])[o:7]1)([H:8])[H:9]>>[N:1]([C:2]1=[C:3]([H:10])[C@@:4]([O:5][H:11])([H:12])[C-:6]=[O+:7]1)([H:8])[H:9]"
N       -2.20888592      -0.34893378      -0.44136740
C       -0.91679473      -0.02531028      -0.12901014
C        0.25553644      -0.67441800      -0.19288944
C        1.25653667       0.32584335       0.20143476
O        2.45852231       0.00988442       0.78335378
C        0.55554966       1.52197571       0.58177826
O       -0.73842974       1.28070907       0.25810847
H       -2.90131409       0.28053712      -0.06976022
H       -2.44558802      -1.32035802      -0.33776570
H        0.40335940      -1.73102104      -0.34894598
H        2.86881563      -0.70303400       0.29147816
H        1.41269238       1.38412545      -0.59641455
12
Frame=9 idx=009789 GeodesicLength=0.48381066088767827 rxn_smarts="[N:1]([c:2]1[c:3]([H:10])[c:4]([O:5][H:11])[c:6]([H:12])[o:7]1)([H:8])[H:9]>>[N:1]([C:2]1=[C:3]([H:10])[C@@:4]([O:5][H:11])([H:12])[C-:6]=[O+:7]1)([H:8])[H:9]"
N       -2.21048275      -0.35231780      -0.44035361
C       -0.91746525      -0.02744986      -0.13123002
C        0.25576025      -0.67453351      -0.20068126
C        1.25902187       0.32460085       0.19097477
O        2.45518328       0.00438046       0.78437546
C        0.55527710       1.51624221       0.57536652
O       -0.73898826       1.27909373       0.25572062
H       -2.90198653       0.27986949      -0.07150832
H       -2.44690671      -1.32276273      -0.32648014
H        0.40060401      -1.73338496      -0.34500647
H        2.86659889      -0.71127188       0.29758265
H        1.42338409       1.41753401      -0.58876019
12
Frame=10 idx=009789 GeodesicLength=0.5375767173445324 rxn_smarts="[N:1]([c:2]1[c:3]([H:10])[c:4]([O:5][H:11])[c:6]([H:12])[o:7]1)([H:8])[H:9]>>[N:1]([C:2]1=[C:3]([H:10])[C@@:4]([O:5][H:11])([H:12])[C-:6]=[O+:7]1)([H:8])[H:9]"
N       -2.21208369      -0.35572385      -0.43936112
C       -0.91815102      -0.02971932      -0.13333484
C        0.25587509      -0.67494638      -0.20793358
C        1.26154826       0.32330866       0.18015554
O        2.45181323      -0.00106965       0.78502117
C        0.55508413       1.51048636       0.56857716
O       -0.73944770       1.27749059       0.25294780
H       -2.90264854       0.27917566      -0.07332536
H       -2.44827295      -1.32506178      -0.31532213
H        0.39780161      -1.73587215      -0.34076954
H        2.86430649      -0.71946866       0.30336373
H        1.43417508       1.45140053      -0.58001884
12
Frame=11 idx=009789 GeodesicLength=0.5913749187609183 rxn_smarts="[N:1]([c:2]1[c:3]([H:10])[c:4]([O:5][H:11])[c:6]([H:12])[o:7]1)([H:8])[H:9]>>[N:1]([C:2]1=[C:3]([H:10])[C@@:4]([O:5][H:11])([H:12])[C-:6]=[O+:7]1)([H:8])[H:9]"
N       -2.21366891      -0.35912139      -0.43844418
C       -0.91886846      -0.03214459      -0.13516548
C        0.25587114      -0.67568147      -0.21452487
C        1.26411835       0.32196194       0.16897350
O        2.44846608      -0.00642751       0.78520184
C        0.55499561       1.50471755       0.56139158
O       -0.73980777       1.27588547       0.24986636
H       -2.90330735       0.27849882      -0.07526985
H       -2.44971074      -1.32726605      -0.30447484
H        0.39493204      -1.73852230      -0.33608238
H        2.86197312      -0.72758573       0.30871747
H        1.44500688       1.48568527      -0.57018914
12
Frame=12 idx=009789 GeodesicLength=0.6452186299027851 rxn_smarts="[N:1]([c:2]1[c:3]([H:10])[c:4]([O:5][H:11])[c:6]([H:12])[o:7]1)([H:8])[H:9]>>[N:1]([C:2]1=[C:3]([H:10])[C@@:4]([O:5][H:11])([H:12])[C-:6]=[O+:7]1)([H:8])[H:9]"
N       -2.21526222      -0.36255043      -0.43755235
C       -0.91960531      -0.03469939      -0.13689601
C        0.25576342      -0.67671507      -0.22060741
C        1.26671518       0.32054621       0.15740167
O        2.44509320      -0.01173063       0.78496502
C        0.55498209       1.49891602       0.55379360
O       -0.74006638       1.27430070       0.24634101
H       -2.90395212       0.27781220      -0.07733656
H       -2.45121694      -1.32936105      -0.29369079
H        0.39199952      -1.74133640      -0.33100232
H        2.85959575      -0.73562210       0.31367461
H        1.45595381       1.52043993      -0.55909047
12
Frame=13 idx=009789 GeodesicLength=0.6990394503113838 rxn_smarts="[N:1]([c:2]1[c:3]([H:10])[c:4]([O:5][H:11])[c:6]([H:12])[o:7]1)([H:8])[H:9]>>[N:1]([C:2]1=[C:3]([H:10])[C@@:4]([O:5][H:11])([H:12])[C-:6]=[O+:7]1)([H:8])[H:9]"
N       -2.21684459      -0.36597491      -0.43673137
C       -0.92037861      -0.03741573      -0.13832480
C        0.25553952      -0.67807413      -0.22603191
C        1.26934784       0.31906313       0.14544896
O        2.44175156      -0.01693230       0.78423410
C        0.55508149       1.49311145       0.54574274
O       -0.74022371       1.27273051       0.24244011
H       -2.90459308       0.27716625      -0.07955948
H       -2.45282464      -1.33137978      -0.28318922
H        0.38899839      -1.74432149      -0.32543599
H        2.85720659      -0.74354448       0.31815689
H        1.46693925       1.55557148      -0.54675004
12
Frame=14 idx=009789 GeodesicLength=0.7528596444825046 rxn_smarts="[N:1]([c:2]1[c:3]([H:10])[c:4]([O:5][H:11])[c:6]([H:12])[o:7]1)([H:8])[H:9]>>[N:1]([C:2]1=[C:3]([H:10])[C@@:4]([O:5][H:11])([H:12])[C-:6]=[O+:7]1)([H:8])[H:9]"
N       -2.21843870      -0.36944116      -0.43592706
C       -0.92117725      -0.04026997      -0.13962146
C        0.25521718      -0.67972869      -0.23096982
C        1.27199531       0.31749763       0.13308227
O        2.43838900      -0.02206953       0.78305674
C        0.55526341       1.48729317       0.53719280
O       -0.74027679       1.27119104       0.23802447
H       -2.90522662       0.27654114      -0.08193602
H       -2.45452320      -1.33330780      -0.27270482
H        0.38593417      -1.74747743      -0.31944386
H        2.85480228      -0.75135450       0.32220029
H        1.47804120       1.59112609      -0.53295351
12
Frame=15 idx=009789 GeodesicLength=0.806665587840523 rxn_smarts="[N:1]([c:2]1[c:3]([H:10])[c:4]([O:5][H:11])[c:6]([H:12])[o:7]1)([H:8])[H:9]>>[N:1]([C:2]1=[C:3]([H:10])[C@@:4]([O:5][H:11])([H:12])[C-:6]=[O+:7]1)([H:8])[H:9]"
N       -2.22004749      -0.37296804      -0.43511643
C       -0.92200073      -0.04326019      -0.14079804
C        0.25480281      -0.68166803      -0.23546874
C        1.27465855       0.31584404       0.12028654
O        2.43499522      -0.02714520       0.78143577
C        0.55553173       1.48147552       0.52808468
O       -0.74022642       1.26969294       0.23303321
H       -2.90585032       0.27595016      -0.08449693
H       -2.45631875      -1.33515875      -0.26213360
H        0.38281194      -1.75079375      -0.31306568
H        2.85238508      -0.75905191       0.32581316
H        1.48925837       1.62708322      -0.51757395
12
Frame=16 idx=009789 GeodesicLength=0.8604292365763602 rxn_smarts="[N:1]([c:2]1[c:3]([H:10])[c:4]([O:5][H:11])[c:6]([H:12])[o:7]1)([H:8])[H:9]>>[N:1]([C:2]1=[C:3]([H:10])[C@@:4]([O:5][H:11])([H:12])[C-:6]=[O+:7]1)([H:8])[H:9]"
N       -2.22167820      -0.37657046      -0.43425451
C       -0.92284983      -0.04637990      -0.14185411
C        0.25430136      -0.68387287      -0.23957999
C        1.27733445       0.31409862       0.10705571
O        2.43154278      -0.03216124       0.77940718
C        0.55589735       1.47569767       0.51830181
O       -0.74006871       1.26826188       0.22736313
H       -2.90646625       0.27538592      -0.08717415
H       -2.45820516      -1.33695930      -0.25142091
H        0.37964760      -1.75423989      -0.30640738
H        2.84994125      -0.76664423       0.32905356
H        1.50060337       1.66338380      -0.50049035
