14
Frame=0 idx=008268 GeodesicLength=0.0 rxn_smarts="[C:1]([C@@:2]1([H:11])[C:3]([H:12])([H:13])[N:4]([H:14])[C:5](=[O:6])[O:7]1)([H:8])([H:9])[H:10]>>[C:1]([H:8])([H:9])([H:10])[H:14].[C:2]([C:3]([N:4]=[C:5]=[O:6])([H:12])[H:13])(=[O:7])[H:11]"
C       -1.16078695      -0.79354740       0.64103883
C       -0.23097576       0.07502141      -0.93981058
C        0.22006350       1.31653687      -0.23281104
N        1.13369974       0.70092749       0.70632432
C        1.75698589      -0.29038547       0.04208261
O        2.72667992      -0.94924519       0.18452934
O        0.82131210      -0.67780234      -1.11174912
H       -1.75816980      -0.25196392       1.37766073
H       -0.79295197      -1.74598388       1.03270181
H       -1.84740369      -1.07051958      -0.15867976
H       -0.97636497       0.02696332      -1.72779428
H       -0.57047359       1.87409636       0.26378795
H        0.72718875       1.96252342      -0.95843571
H       -0.04880317      -0.17662111       0.88115491
14
Frame=1 idx=008268 GeodesicLength=0.11675024866582574 rxn_smarts="[C:1]([C@@:2]1([H:11])[C:3]([H:12])([H:13])[N:4]([H:14])[C:5](=[O:6])[O:7]1)([H:8])([H:9])[H:10]>>[C:1]([H:8])([H:9])([H:10])[H:14].[C:2]([C:3]([N:4]=[C:5]=[O:6])([H:12])[H:13])(=[O:7])[H:11]"
C       -1.16840905      -0.79603791       0.64366276
C       -0.22922083       0.06864239      -0.94567710
C        0.22225416       1.31712078      -0.24626215
N        1.13934631       0.71023662       0.69511097
C        1.77035931      -0.28261728       0.04698190
O        2.73434897      -0.94557894       0.20736933
O        0.82359602      -0.68533035      -1.11481320
H       -1.74763246      -0.28869591       1.41802929
H       -0.80581260      -1.76761625       0.99062404
H       -1.88454572      -1.03422732      -0.14297574
H       -0.96478961       0.03421557      -1.74438451
H       -0.57244241       1.87140769       0.24812433
H        0.72186974       1.96674216      -0.97347790
H       -0.03892181      -0.16826123       0.91768799
14
Frame=2 idx=008268 GeodesicLength=0.23337709975458493 rxn_smarts="[C:1]([C@@:2]1([H:11])[C:3]([H:12])([H:13])[N:4]([H:14])[C:5](=[O:6])[O:7]1)([H:8])([H:9])[H:10]>>[C:1]([H:8])([H:9])([H:10])[H:14].[C:2]([C:3]([N:4]=[C:5]=[O:6])([H:12])[H:13])(=[O:7])[H:11]"
C       -1.17606151      -0.79820028       0.64648228
C       -0.22764019       0.06227370      -0.95201907
C        0.22443901       1.31743796      -0.25983884
N        1.14447389       0.71888001       0.68392973
C        1.78352680      -0.27498544       0.05184989
O        2.74169615      -0.94167135       0.23018889
O        0.82567399      -0.69291946      -1.11826441
H       -1.73672661      -0.32795283       1.45694271
H       -0.81963245      -1.78712859       0.94801034
H       -1.92006399      -0.99716150      -0.12552979
H       -0.95327899       0.04126318      -1.76106758
H       -0.57433381       1.86852591       0.23234289
H        0.71675698       1.97078427      -0.98832847
H       -0.02882927      -0.15914557       0.95530144
14
Frame=3 idx=008268 GeodesicLength=0.34986464164764935 rxn_smarts="[C:1]([C@@:2]1([H:11])[C:3]([H:12])([H:13])[N:4]([H:14])[C:5](=[O:6])[O:7]1)([H:8])([H:9])[H:10]>>[C:1]([H:8])([H:9])([H:10])[H:14].[C:2]([C:3]([N:4]=[C:5]=[O:6])([H:12])[H:13])(=[O:7])[H:11]"
C       -1.18365939      -0.80009996       0.64954721
C       -0.22625524       0.05592222      -0.95884529
C        0.22662070       1.31750106      -0.27355569
N        1.14906102       0.72686152       0.67280162
C        1.79646025      -0.26748532       0.05671270
O        2.74866478      -0.93755725       0.25302018
O        0.82752311      -0.70056181      -1.12211374
H       -1.72539374      -0.36970653       1.49419391
H       -0.83446567      -1.80461037       0.90490569
H       -1.95391002      -0.95942835      -0.10628314
H       -0.94186887       0.04813191      -1.77785877
H       -0.57614994       1.86546643       0.21641002
H        0.71186849       1.97465694      -1.00299711
H       -0.01849548      -0.14909048       0.99406243
14
Frame=4 idx=008268 GeodesicLength=0.4662188228016515 rxn_smarts="[C:1]([C@@:2]1([H:11])[C:3]([H:12])([H:13])[N:4]([H:14])[C:5](=[O:6])[O:7]1)([H:8])([H:9])[H:10]>>[C:1]([H:8])([H:9])([H:10])[H:14].[C:2]([C:3]([N:4]=[C:5]=[O:6])([H:12])[H:13])(=[O:7])[H:11]"
C       -1.19110971      -0.80181864       0.65290030
C       -0.22508044       0.04958663      -0.96616491
C        0.22879802       1.31731776      -0.28743003
N        1.15308612       0.73418667       0.66174496
C        1.80914319      -0.26010562       0.06159226
O        2.75519602      -0.93327899       0.27591433
O        0.82913240      -0.70825689      -1.12637024
H       -1.71355858      -0.41394462       1.52957736
H       -0.85037626      -1.82014134       0.86131305
H       -1.98606883      -0.92109593      -0.08514632
H       -0.93058504       0.05483832      -1.79477178
H       -0.57790322       1.86222945       0.20029155
H        0.70721352       1.97837098      -1.01749842
H       -0.00788720      -0.13788776       1.03404791
14
Frame=5 idx=008268 GeodesicLength=0.582407032834079 rxn_smarts="[C:1]([C@@:2]1([H:11])[C:3]([H:12])([H:13])[N:4]([H:14])[C:5](=[O:6])[O:7]1)([H:8])([H:9])[H:10]>>[C:1]([H:8])([H:9])([H:10])[H:14].[C:2]([C:3]([N:4]=[C:5]=[O:6])([H:12])[H:13])(=[O:7])[H:11]"
C       -1.19839690      -0.80343770       0.65646781
C       -0.22412866       0.04327665      -0.97403565
C        0.23093737       1.31689349      -0.30147630
N        1.15652643       0.74088934       0.65075477
C        1.82149887      -0.25287988       0.06654191
O        2.76109194      -0.92900656       0.29900431
O        0.83049508      -0.71598742      -1.13107891
H       -1.70086427      -0.46068298       1.56305825
H       -0.86724937      -1.83371137       0.81737739
H       -2.01651567      -0.88224756      -0.06217983
H       -0.91941422       0.06144719      -1.81190319
H       -0.57964199       1.85882311       0.18396744
H        0.70276385       1.98195047      -1.03183046
H        0.00289753      -0.12532678       1.07533247
14
Frame=6 idx=008268 GeodesicLength=0.698478669018123 rxn_smarts="[C:1]([C@@:2]1([H:11])[C:3]([H:12])([H:13])[N:4]([H:14])[C:5](=[O:6])[O:7]1)([H:8])([H:9])[H:10]>>[C:1]([H:8])([H:9])([H:10])[H:14].[C:2]([C:3]([N:4]=[C:5]=[O:6])([H:12])[H:13])(=[O:7])[H:11]"
C       -1.20537035      -0.80508865       0.66034771
C       -0.22341521       0.03696336      -0.98244120
C        0.23303955       1.31622257      -0.31571435
N        1.15930936       0.74693157       0.63989122
C        1.83353662      -0.24576657       0.07159323
O        2.76637940      -0.92466287       0.32231550
O        0.83160976      -0.72376588      -1.13622501
H       -1.68728046      -0.50978784       1.59433780
H       -0.88535727      -1.84553148       0.77285983
H       -2.04520831      -0.84286110      -0.03710726
H       -0.90839214       0.06790944      -1.82922840
H       -0.58138934       1.85522875       0.16737815
H        0.69854892       1.98537643      -1.04600774
H        0.01398945      -0.11116775       1.11800052
14
Frame=7 idx=008268 GeodesicLength=0.8144560459396106 rxn_smarts="[C:1]([C@@:2]1([H:11])[C:3]([H:12])([H:13])[N:4]([H:14])[C:5](=[O:6])[O:7]1)([H:8])([H:9])[H:10]>>[C:1]([H:8])([H:9])([H:10])[H:14].[C:2]([C:3]([N:4]=[C:5]=[O:6])([H:12])[H:13])(=[O:7])[H:11]"
C       -1.21193731      -0.80695088       0.66448594
C       -0.22294258       0.03061694      -0.99142319
C        0.23506864       1.31528319      -0.33015920
N        1.16135469       0.75228611       0.62920026
C        1.84522104      -0.23876247       0.07680901
O        2.77098140      -0.92025606       0.34594020
O        0.83249607      -0.73159966      -1.14182780
H       -1.67254808      -0.56122802       1.62323510
H       -0.90495623      -1.85558938       0.72762514
H       -2.07196976      -0.80287480      -0.00966000
H       -0.89752484       0.07419729      -1.84679853
H       -0.58321813       1.85140835       0.15048293
H        0.69455783       1.98864093      -1.06002651
H        0.02541723      -0.09517156       1.16211665
14
Frame=8 idx=008268 GeodesicLength=0.9303698780567823 rxn_smarts="[C:1]([C@@:2]1([H:11])[C:3]([H:12])([H:13])[N:4]([H:14])[C:5](=[O:6])[O:7]1)([H:8])([H:9])[H:10]>>[C:1]([H:8])([H:9])([H:10])[H:14].[C:2]([C:3]([N:4]=[C:5]=[O:6])([H:12])[H:13])(=[O:7])[H:11]"
C       -1.21802740      -0.80916893       0.66885134
C       -0.22271434       0.02422025      -1.00099631
C        0.23700835       1.31405396      -0.34481314
N        1.16260523       0.75692534       0.61872232
C        1.85651491      -0.23186934       0.08224165
O        2.77481994      -0.91579193       0.36993553
O        0.83315670      -0.73949785      -1.14789420
H       -1.65642858      -0.61485563       1.64952921
H       -0.92620857      -1.86399946       0.68157505
H       -2.09673989      -0.76234434       0.02035908
H       -0.88679470       0.08031743      -1.86465115
H       -0.58516711       1.84731728       0.13325529
H        0.69079407       1.99173956      -1.07387032
H        0.03718139      -0.07704633       1.20775566
14
Frame=9 idx=008268 GeodesicLength=1.046141369355126 rxn_smarts="[C:1]([C@@:2]1([H:11])[C:3]([H:12])([H:13])[N:4]([H:14])[C:5](=[O:6])[O:7]1)([H:8])([H:9])[H:10]>>[C:1]([H:8])([H:9])([H:10])[H:14].[C:2]([C:3]([N:4]=[C:5]=[O:6])([H:12])[H:13])(=[O:7])[H:11]"
C       -1.22363964      -0.81188700       0.67332389
C       -0.22273382       0.01776519      -1.01121157
C        0.23881534       1.31253374      -0.35967682
N        1.16301661       0.76089483       0.60845077
C        1.86732905      -0.22509327       0.08796973
O        2.77762451      -0.91147258       0.39449604
O        0.83359483      -0.74744985      -1.15445087
H       -1.63829532      -0.67064366       1.67320601
H       -0.94920040      -1.87078020       0.63474836
H       -2.11944230      -0.72133608       0.05297761
H       -0.87613388       0.08632328      -1.88289308
H       -0.58730265       1.84292899       0.11567326
H        0.68721209       1.99469289      -1.08750399
H        0.04915559      -0.05647630       1.25489067
14
Frame=10 idx=008268 GeodesicLength=1.1618743833505643 rxn_smarts="[C:1]([C@@:2]1([H:11])[C:3]([H:12])([H:13])[N:4]([H:14])[C:5](=[O:6])[O:7]1)([H:8])([H:9])[H:10]>>[C:1]([H:8])([H:9])([H:10])[H:14].[C:2]([C:3]([N:4]=[C:5]=[O:6])([H:12])[H:13])(=[O:7])[H:11]"
C       -1.22865249      -0.81529662       0.67786045
C       -0.22300275       0.01122429      -1.02210175
C        0.24047521       1.31068425      -0.37473956
N        1.16244358       0.76405366       0.59851428
C        1.87767586      -0.21840962       0.09402306
O        2.77944972      -0.90718120       0.41960164
O        0.83382375      -0.75548083      -1.16150946
H       -1.61819085      -0.72826818       1.69385836
H       -0.97428454      -1.87588055       0.58696744
H       -2.13985023      -0.68001557       0.08865119
H       -0.86555382       0.09219197      -1.90155554
H       -0.58968522       1.83818181       0.09770363
H        0.68385570       1.99748008      -1.10088063
H        0.06149607      -0.03328351       1.30360688
14
Frame=11 idx=008268 GeodesicLength=1.2775260092957197 rxn_smarts="[C:1]([C@@:2]1([H:11])[C:3]([H:12])([H:13])[N:4]([H:14])[C:5](=[O:6])[O:7]1)([H:8])([H:9])[H:10]>>[C:1]([H:8])([H:9])([H:10])[H:14].[C:2]([C:3]([N:4]=[C:5]=[O:6])([H:12])[H:13])(=[O:7])[H:11]"
C       -1.23306682      -0.81952682       0.68234151
C       -0.22352325       0.00459681      -1.03370646
C        0.24196946       1.30847511      -0.38996610
N        1.16080224       0.76632340       0.58897476
C        1.88750939      -0.21181873       0.10043359
O        2.78017389      -0.90298592       0.44528637
O        0.83383327      -0.76359592      -1.16909624
H       -1.59589476      -0.78739163       1.71130570
H       -1.00152099      -1.87932401       0.53832537
H       -2.15786086      -0.63864407       0.12749209
H       -0.85499466       0.09799218      -1.92071515
H       -0.59235797       1.83300675       0.07936014
H        0.68073193       2.00011314      -1.11391222
H        0.07419912      -0.00722029       1.35387664
14
Frame=12 idx=008268 GeodesicLength=1.3931006557378067 rxn_smarts="[C:1]([C@@:2]1([H:11])[C:3]([H:12])([H:13])[N:4]([H:14])[C:5](=[O:6])[O:7]1)([H:8])([H:9])[H:10]>>[C:1]([H:8])([H:9])([H:10])[H:14].[C:2]([C:3]([N:4]=[C:5]=[O:6])([H:12])[H:13])(=[O:7])[H:11]"
C       -1.23692391      -0.82469828       0.68662555
C       -0.22429416      -0.00211972      -1.04607429
C        0.24328645       1.30587878      -0.40531851
N        1.15799216       0.76761046       0.57990865
C        1.89679089      -0.20532449       0.10723688
O        2.77971869      -0.89890290       0.47152993
O        0.83360370      -0.77182840      -1.17721606
H       -1.57123686      -0.84769956       1.72534435
H       -1.03105635      -1.88094955       0.48896963
H       -2.17331846      -0.59758911       0.16963181
H       -0.84436850       0.10379541      -1.94046786
H       -0.59536120       1.82735021       0.06065134
H        0.67786094       2.00259687      -1.12649860
H        0.08730662       0.02188027       1.40567718
14
Frame=13 idx=008268 GeodesicLength=1.5085456469865293 rxn_smarts="[C:1]([C@@:2]1([H:11])[C:3]([H:12])([H:13])[N:4]([H:14])[C:5](=[O:6])[O:7]1)([H:8])([H:9])[H:10]>>[C:1]([H:8])([H:9])([H:10])[H:14].[C:2]([C:3]([N:4]=[C:5]=[O:6])([H:12])[H:13])(=[O:7])[H:11]"
C       -1.24037160      -0.83083472       0.69053853
C       -0.22531984      -0.00891396      -1.05924400
C        0.24441826       1.30287790      -0.42073644
N        1.15394742       0.76785279       0.57135989
C        1.90547364      -0.19893179       0.11446391
O        2.77798191      -0.89502573       0.49832511
O        0.83308603      -0.78021879      -1.18585493
H       -1.54393510      -0.90893205       1.73587402
H       -1.06293124      -1.88067783       0.43924883
H       -2.18621274      -0.55726473       0.21495903
H       -0.83353551       0.10972892      -1.96091449
H       -0.59871882       1.82115955       0.04162733
H        0.67524592       2.00495155      -1.13852915
H        0.10087167       0.05422886       1.45888236
14
Frame=14 idx=008268 GeodesicLength=1.6239547048196967 rxn_smarts="[C:1]([C@@:2]1([H:11])[C:3]([H:12])([H:13])[N:4]([H:14])[C:5](=[O:6])[O:7]1)([H:8])([H:9])[H:10]>>[C:1]([H:8])([H:9])([H:10])[H:14].[C:2]([C:3]([N:4]=[C:5]=[O:6])([H:12])[H:13])(=[O:7])[H:11]"
C       -1.24349962      -0.83795837       0.69393783
C       -0.22661270      -0.01577328      -1.07326879
C        0.24536014       1.29944453      -0.43617819
N        1.14854387       0.76689272       0.56345525
C        1.91356663      -0.19263394       0.12212093
O        2.77502199      -0.89132260       0.52558660
O        0.83224041      -0.78881654      -1.19500896
H       -1.51418423      -0.97064675       1.74259870
H       -1.09720082      -1.87828293       0.38936395
H       -2.19639479      -0.51823232       0.26364248
H       -0.82242560       0.11586439      -1.98215074
H       -0.60247509       1.81439757       0.02229454
H        0.67293870       2.00717126      -1.14991053
H        0.11512111       0.08989626       1.51351693
14
Frame=15 idx=008268 GeodesicLength=1.739285137728242 rxn_smarts="[C:1]([C@@:2]1([H:11])[C:3]([H:12])([H:13])[N:4]([H:14])[C:5](=[O:6])[O:7]1)([H:8])([H:9])[H:10]>>[C:1]([H:8])([H:9])([H:10])[H:14].[C:2]([C:3]([N:4]=[C:5]=[O:6])([H:12])[H:13])(=[O:7])[H:11]"
C       -1.24652479      -0.84602280       0.69669647
C       -0.22817755      -0.02269751      -1.08817003
C        0.24611603       1.29554963      -0.45158075
N        1.14170806       0.76463108       0.55625573
C        1.92105127      -0.18642904       0.13022226
O        2.77086588      -0.88777625       0.55319980
O        0.83100393      -0.79769687      -1.20462884
H       -1.48203918      -1.03255776       1.74542804
H       -1.13378754      -1.87362311       0.33965073
H       -2.20390059      -0.48092233       0.31551724
H       -0.81089264       0.12228429      -2.00424694
H       -0.60663646       1.80701752       0.00269525
H        0.67095956       2.00925196      -1.16052879
H        0.13025402       0.12899118       1.56948983
14
Frame=16 idx=008268 GeodesicLength=1.8545435790606783 rxn_smarts="[C:1]([C@@:2]1([H:11])[C:3]([H:12])([H:13])[N:4]([H:14])[C:5](=[O:6])[O:7]1)([H:8])([H:9])[H:10]>>[C:1]([H:8])([H:9])([H:10])[H:14].[C:2]([C:3]([N:4]=[C:5]=[O:6])([H:12])[H:13])(=[O:7])[H:11]"
C       -1.24969574      -0.85493254       0.69870499
C       -0.23002435      -0.02968256      -1.10395595
C        0.24669133       1.29116832      -0.46688326
N        1.13338837       0.76098347       0.54981378
C        1.92792083      -0.18031093       0.13878852
O        2.76557954      -0.88437105       0.58105772
O        0.82930099      -0.80694561      -1.21464654
H       -1.44763853      -1.09449252       1.74417457
H       -1.17263665      -1.86655970       0.29047183
H       -2.20878412      -0.44577992       0.37042387
H       -0.79878970       0.12905948      -2.02725751
H       -0.61120966       1.79898345      -0.01712032
H        0.66932306       2.01118298      -1.17029857
H        0.14657463       0.17169712       1.62672689
