12
Frame=0 idx=002809 GeodesicLength=0.0 rxn_smarts="[C:1]([C:2](=[O:3])[C@@:4]1([H:10])[C:5]([H:11])([H:12])[O:6]1)([H:7])([H:8])[H:9]>>[C:1]([C:2](=[O:3])[C@@:4]([C:5][H:11])([O:6][H:12])[H:10])([H:7])([H:8])[H:9]"
C       -1.41862963      -0.30524193      -0.54442945
C       -0.49029475      -0.64211719       0.59022397
O       -0.70109540      -1.53761717       1.36755459
C        0.77107926       0.16808424       0.76513259
C        1.81377897       0.09880179      -0.28532141
O        0.72978018       1.42236200       0.06633967
H       -0.88289816      -0.00110737      -1.44318477
H       -2.06010847      -1.15964053      -0.74817547
H       -2.04013230       0.54086648      -0.24171031
H        1.07523249       0.23859267       1.80660359
H        1.40048901      -0.32644491      -1.20802618
H        1.80279881       1.50346192      -0.12500678
12
Frame=1 idx=002809 GeodesicLength=0.047209206740393216 rxn_smarts="[C:1]([C:2](=[O:3])[C@@:4]1([H:10])[C:5]([H:11])([H:12])[O:6]1)([H:7])([H:8])[H:9]>>[C:1]([C:2](=[O:3])[C@@:4]([C:5][H:11])([O:6][H:12])[H:10])([H:7])([H:8])[H:9]"
C       -1.42138559      -0.30751011      -0.54369466
C       -0.49168632      -0.64463614       0.58970306
O       -0.70067472      -1.54105053       1.36657255
C        0.76820489       0.16716003       0.76425457
C        1.81000496       0.10552876      -0.28676316
O        0.73194976       1.41883624       0.06035848
H       -0.88606750      -0.01044254      -1.44511023
H       -2.06779595      -1.15935103      -0.74243063
H       -2.03724062       0.54359129      -0.24346867
H        1.07265167       0.24040758       1.80542287
H        1.40290156      -0.32224465      -1.21074297
H        1.81913786       1.50971110      -0.11410120
12
Frame=2 idx=002809 GeodesicLength=0.09438744206811482 rxn_smarts="[C:1]([C:2](=[O:3])[C@@:4]1([H:10])[C:5]([H:11])([H:12])[O:6]1)([H:7])([H:8])[H:9]>>[C:1]([C:2](=[O:3])[C@@:4]([C:5][H:11])([O:6][H:12])[H:10])([H:7])([H:8])[H:9]"
C       -1.42409889      -0.30973187      -0.54296265
C       -0.49308109      -0.64711352       0.58921430
O       -0.70023409      -1.54449298       1.36556289
C        0.76534141       0.16626008       0.76339654
C        1.80622616       0.11228059      -0.28816111
O        0.73405649       1.41541380       0.05459781
H       -0.88919477      -0.01967212      -1.44695763
H       -2.07534831      -1.15900562      -0.73675141
H       -2.03434505       0.54627445      -0.24526847
H        1.07010438       0.24218218       1.80425503
H        1.40534585      -0.31807118      -1.21336191
H        1.83522792       1.51567619      -0.10356338
12
Frame=3 idx=002809 GeodesicLength=0.1415363551189258 rxn_smarts="[C:1]([C:2](=[O:3])[C@@:4]1([H:10])[C:5]([H:11])([H:12])[O:6]1)([H:7])([H:8])[H:9]>>[C:1]([C:2](=[O:3])[C@@:4]([C:5][H:11])([O:6][H:12])[H:10])([H:7])([H:8])[H:9]"
C       -1.42677435      -0.31191237      -0.54223331
C       -0.49448187      -0.64954820       0.58875844
O       -0.69978126      -1.54793375       1.36453597
C        0.76248600       0.16538604       0.76255695
C        1.80243683       0.11905040      -0.28951812
O        0.73609343       1.41209331       0.04904673
H       -0.89228856      -0.02878579      -1.44872629
H       -2.08275427      -1.15862194      -0.73114915
H       -2.03146293       0.54890176      -0.24710329
H        1.06759052       0.24392064       1.80309799
H        1.40781140      -0.31391241      -1.21589151
H        1.85112507       1.52136230      -0.09337440
12
Frame=4 idx=002809 GeodesicLength=0.18865721765354734 rxn_smarts="[C:1]([C:2](=[O:3])[C@@:4]1([H:10])[C:5]([H:11])([H:12])[O:6]1)([H:7])([H:8])[H:9]>>[C:1]([C:2](=[O:3])[C@@:4]([C:5][H:11])([O:6][H:12])[H:10])([H:7])([H:8])[H:9]"
C       -1.42941625      -0.31405606      -0.54150641
C       -0.49589125      -0.65193907       0.58833622
O       -0.69932349      -1.55136275       1.36350144
C        0.75963593       0.16453973       0.76173481
C        1.79863160       0.12583285      -0.29083653
O        0.73805415       1.40887367       0.04369507
H       -0.89535653      -0.03777136      -1.45041532
H       -2.09000189      -1.15821743      -0.72563630
H       -2.02861144       0.55145966      -0.24896566
H        1.06510988       0.24562713       1.80195022
H        1.41028872      -0.30975853      -1.21833852
H        1.86688056       1.52677216      -0.08351900
12
Frame=5 idx=002809 GeodesicLength=0.23574656275323336 rxn_smarts="[C:1]([C:2](=[O:3])[C@@:4]1([H:10])[C:5]([H:11])([H:12])[O:6]1)([H:7])([H:8])[H:9]>>[C:1]([C:2](=[O:3])[C@@:4]([C:5][H:11])([O:6][H:12])[H:10])([H:7])([H:8])[H:9]"
C       -1.43202855      -0.31616659      -0.54078169
C       -0.49731142      -0.65428516       0.58794839
O       -0.69886701      -1.55477149       1.36246742
C        0.75678858       0.16372321       0.76092994
C        1.79480588       0.13262418      -0.29211776
O        0.73993329       1.40575397       0.03853418
H       -0.89840513      -0.04661573      -1.45202362
H       -2.09707994      -1.15780888      -0.72022602
H       -2.02580769       0.55393590      -0.25084717
H        1.06266175       0.24730604       1.80081094
H        1.41277019      -0.30560187      -1.22070752
H        1.88254005       1.53190642      -0.07398708
12
Frame=6 idx=002809 GeodesicLength=0.28280056041543045 rxn_smarts="[C:1]([C:2](=[O:3])[C@@:4]1([H:10])[C:5]([H:11])([H:12])[O:6]1)([H:7])([H:8])[H:9]>>[C:1]([C:2](=[O:3])[C@@:4]([C:5][H:11])([O:6][H:12])[H:10])([H:7])([H:8])[H:9]"
C       -1.43461603      -0.31824708      -0.54005949
C       -0.49874381      -0.65658590       0.58759591
O       -0.69841729      -1.55815168       1.36144255
C        0.75394204       0.16293887       0.76014368
C        1.79095656       0.13942173      -0.29336248
O        0.74172595       1.40273353       0.03355755
H       -0.90144129      -0.05530382      -1.45355113
H       -2.10397746      -1.15741363      -0.71493469
H       -2.02307152       0.55631906      -0.25273805
H        1.06024646       0.24896207       1.79968169
H        1.41525030      -0.30143722      -1.22300214
H        1.89814610       1.53676406      -0.06477340
12
Frame=7 idx=002809 GeodesicLength=0.32980670623456754 rxn_smarts="[C:1]([C:2](=[O:3])[C@@:4]1([H:10])[C:5]([H:11])([H:12])[O:6]1)([H:7])([H:8])[H:9]>>[C:1]([C:2](=[O:3])[C@@:4]([C:5][H:11])([O:6][H:12])[H:10])([H:7])([H:8])[H:9]"
C       -1.43717738      -0.32030029      -0.53933769
C       -0.50019004      -0.65883900       0.58727583
O       -0.69798105      -1.56148962       1.36043665
C        0.75109366       0.16218899       0.75936552
C        1.78707651       0.14621500      -0.29457995
O        0.74342159       1.39980734       0.02873737
H       -0.90447121      -0.06382253      -1.45499675
H       -2.11067786      -1.15704578      -0.70976470
H       -2.02040558       0.55859672      -0.25462908
H        1.05786306       0.25060135       1.79854955
H        1.41771498      -0.29726573      -1.22523097
H        1.91373331       1.54135355      -0.05582578
12
Frame=8 idx=002809 GeodesicLength=0.37680551334416806 rxn_smarts="[C:1]([C:2](=[O:3])[C@@:4]1([H:10])[C:5]([H:11])([H:12])[O:6]1)([H:7])([H:8])[H:9]>>[C:1]([C:2](=[O:3])[C@@:4]([C:5][H:11])([O:6][H:12])[H:10])([H:7])([H:8])[H:9]"
C       -1.43972268      -0.32233399      -0.53861869
C       -0.50164870      -0.66104982       0.58698660
O       -0.69755130      -1.56479358       1.35944479
C        0.74823865       0.16147914       0.75860087
C        1.78316514       0.15301799      -0.29576656
O        0.74501894       1.39698221       0.02407961
H       -0.90750106      -0.07218924      -1.45636907
H       -2.11720353      -1.15671368      -0.70471297
H       -2.01782282       0.56077052      -0.25652023
H        1.05550011       0.25223604       1.79742358
H        1.42016774      -0.29306259      -1.22739882
H        1.92935950       1.54565700      -0.04714910
12
Frame=9 idx=002809 GeodesicLength=0.42377699176548134 rxn_smarts="[C:1]([C:2](=[O:3])[C@@:4]1([H:10])[C:5]([H:11])([H:12])[O:6]1)([H:7])([H:8])[H:9]>>[C:1]([C:2](=[O:3])[C@@:4]([C:5][H:11])([O:6][H:12])[H:10])([H:7])([H:8])[H:9]"
C       -1.44225386      -0.32435236      -0.53790152
C       -0.50312002      -0.66322062       0.58672534
O       -0.69711978      -1.56807251       1.35845932
C        0.74537311       0.16081108       0.75784543
C        1.77921992       0.15983290      -0.29692356
O        0.74651399       1.39425912       0.01957142
H       -0.91053239      -0.08042455      -1.45767379
H       -2.12357250      -1.15641587      -0.69976127
H       -2.01531492       0.56284628      -0.25841666
H        1.05314809       0.25387621       1.79629977
H        1.42260556      -0.28881507      -1.22951101
H        1.94505281       1.54967539      -0.03871345
12
Frame=10 idx=002809 GeodesicLength=0.4707340938003027 rxn_smarts="[C:1]([C:2](=[O:3])[C@@:4]1([H:10])[C:5]([H:11])([H:12])[O:6]1)([H:7])([H:8])[H:9]>>[C:1]([C:2](=[O:3])[C@@:4]([C:5][H:11])([O:6][H:12])[H:10])([H:7])([H:8])[H:9]"
C       -1.44477543      -0.32636147      -0.53718672
C       -0.50460406      -0.66535367       0.58648921
O       -0.69667251      -1.57133855       1.35746936
C        0.74249177       0.16019008       0.75709610
C        1.77523871       0.16666513      -0.29805138
O        0.74790055       1.39164060       0.01520144
H       -0.91356773      -0.08855679      -1.45891875
H       -2.12981077      -1.15614835      -0.69488741
H       -2.01287459       0.56483053      -0.26032643
H        1.05079549       0.25553334       1.79517694
H        1.42502650      -0.28450532      -1.23157407
H        1.96085206       1.55340447      -0.03048829
12
Frame=11 idx=002809 GeodesicLength=0.5176774534522757 rxn_smarts="[C:1]([C:2](=[O:3])[C@@:4]1([H:10])[C:5]([H:11])([H:12])[O:6]1)([H:7])([H:8])[H:9]>>[C:1]([C:2](=[O:3])[C@@:4]([C:5][H:11])([O:6][H:12])[H:10])([H:7])([H:8])[H:9]"
C       -1.44729029      -0.32836821      -0.53647507
C       -0.50609855      -0.66745409       0.58627296
O       -0.69620123      -1.57459802       1.35646889
C        0.73959083       0.15961970       0.75634989
C        1.77121933       0.17352268      -0.29915129
O        0.74917263       1.38912955       0.01096094
H       -0.91660908      -0.09660851      -1.46011031
H       -2.13594116      -1.15590869      -0.69007123
H       -2.01049280       0.56672833      -0.26225673
H        1.04843216       0.25721675       1.79405329
H        1.42742941      -0.28011613      -1.23359430
H        1.97678874       1.55683663      -0.02244705
12
Frame=12 idx=002809 GeodesicLength=0.5646010847144942 rxn_smarts="[C:1]([C:2](=[O:3])[C@@:4]1([H:10])[C:5]([H:11])([H:12])[O:6]1)([H:7])([H:8])[H:9]>>[C:1]([C:2](=[O:3])[C@@:4]([C:5][H:11])([O:6][H:12])[H:10])([H:7])([H:8])[H:9]"
C       -1.44980032      -0.33037489      -0.53576695
C       -0.50760582      -0.66951872       0.58607865
O       -0.69571974      -1.57783261       1.35547489
C        0.73666945       0.15910093       0.75560592
C        1.76715714       0.18041054      -0.30022767
O        0.75032266       1.38672741       0.00684925
H       -0.91965807      -0.10456854      -1.46124716
H       -2.14194686      -1.15571397      -0.68533037
H       -2.00818583       0.56852900      -0.26420234
H        1.04606938       0.25891791       1.79292531
H        1.42980977      -0.27564268      -1.23557545
H        1.99288825       1.55996562      -0.01458409
12
Frame=13 idx=002809 GeodesicLength=0.6115148591942958 rxn_smarts="[C:1]([C:2](=[O:3])[C@@:4]1([H:10])[C:5]([H:11])([H:12])[O:6]1)([H:7])([H:8])[H:9]>>[C:1]([C:2](=[O:3])[C@@:4]([C:5][H:11])([O:6][H:12])[H:10])([H:7])([H:8])[H:9]"
C       -1.45230917      -0.33238763      -0.53506298
C       -0.50912588      -0.67154887       0.58590436
O       -0.69521899      -1.58104968       1.35448044
C        0.73372327       0.15863844       0.75486213
C        1.76305014       0.18733652      -0.30128071
O        0.75134549       1.38443788       0.00285888
H       -0.92271727      -0.11245628      -1.46233440
H       -2.14784591      -1.15556390      -0.68064793
H       -2.00595058       0.57023483      -0.26617101
H        1.04369787       0.26064550       1.79179230
H        1.43216582      -0.27106636      -1.23752245
H        2.00918522       1.56277955      -0.00687862
12
Frame=14 idx=002809 GeodesicLength=0.6584188920082347 rxn_smarts="[C:1]([C:2](=[O:3])[C@@:4]1([H:10])[C:5]([H:11])([H:12])[O:6]1)([H:7])([H:8])[H:9]>>[C:1]([C:2](=[O:3])[C@@:4]([C:5][H:11])([O:6][H:12])[H:10])([H:7])([H:8])[H:9]"
C       -1.45482038      -0.33441324      -0.53436384
C       -0.51065836      -0.67354525       0.58574727
O       -0.69468966      -1.58425260       1.35348048
C        0.73074812       0.15823760       0.75411493
C        1.75889405       0.19431076      -0.30231280
O        0.75223606       1.38226717      -0.00101623
H       -0.92578828      -0.12029890      -1.46337798
H       -2.15365783      -1.15545790      -0.67600513
H       -2.00378049       0.57185021      -0.26817416
H        1.04131347       0.26240714       1.79065063
H        1.43449312      -0.26636670      -1.23944400
H        2.02571018       1.56526171       0.00070086
12
Frame=15 idx=002809 GeodesicLength=0.7053187129990052 rxn_smarts="[C:1]([C:2](=[O:3])[C@@:4]1([H:10])[C:5]([H:11])([H:12])[O:6]1)([H:7])([H:8])[H:9]>>[C:1]([C:2](=[O:3])[C@@:4]([C:5][H:11])([O:6][H:12])[H:10])([H:7])([H:8])[H:9]"
C       -1.45733696      -0.33645569      -0.53367014
C       -0.51220304      -0.67550911       0.58560532
O       -0.69411974      -1.58745086       1.35246701
C        0.72773900       0.15790457       0.75336261
C        1.75468645       0.20134126      -0.30332475
O        0.75298933       1.38022064      -0.00478292
H       -0.92887398      -0.12811216      -1.46438288
H       -2.15939693      -1.15539481      -0.67138763
H       -2.00167512       0.57337657      -0.27021582
H        1.03890444       0.26421401       1.78950041
H        1.43679153      -0.26153135      -1.24134328
H        2.04249503       1.56739694       0.00817206
12
Frame=16 idx=002809 GeodesicLength=0.752211674414486 rxn_smarts="[C:1]([C:2](=[O:3])[C@@:4]1([H:10])[C:5]([H:11])([H:12])[O:6]1)([H:7])([H:8])[H:9]>>[C:1]([C:2](=[O:3])[C@@:4]([C:5][H:11])([O:6][H:12])[H:10])([H:7])([H:8])[H:9]"
C       -1.45985889      -0.33851632      -0.53298129
C       -0.51375895      -0.67744033       0.58547832
O       -0.69351712      -1.59063276       1.35145003
C        0.72469553       0.15764115       0.75260499
C        1.75042264       0.20843720      -0.30431915
O        0.75359534       1.37829997      -0.00844393
H       -0.93197718      -0.13588355      -1.46534759
H       -2.16504842      -1.15538697      -0.66681123
H       -1.99964639       0.57480422      -0.27228766
H        1.03647417       0.26606684       1.78834015
H        1.43905678      -0.25655891      -1.24321906
H        2.05956249       1.56916947       0.01553641
