12
Frame=0 idx=007076 GeodesicLength=0.0 rxn_smarts="[O:1]=[C:2]1[N:3]([H:8])[C:4]([H:9])([H:10])[C@@:5]2([H:11])[O:6][C@@:7]12[H:12]>>[O:1]=[C:2]1[N:3]([H:8])[C:4]([H:9])([H:10])[C-:5]=[O+:6][C:7]1([H:11])[H:12]"
O        0.75061183       2.30101139       0.36497803
C        0.38824421       1.16042183       0.20247014
N        1.16018232       0.09091872      -0.10111466
C        0.47601770      -1.13746727      -0.43341421
C       -0.99390638      -1.10558695      -0.00696129
O       -1.07935766      -0.43878579       1.21240469
C       -1.03769069       0.68261941       0.35049984
H        2.16097087       0.18834959      -0.11699491
H        0.88686319      -1.99726824       0.11097485
H        0.53117873      -1.36087485      -1.50118852
H       -1.44121755       0.19872871      -0.66427829
H       -1.80189653       1.41793346       0.58262428
12
Frame=1 idx=007076 GeodesicLength=0.05185847828938609 rxn_smarts="[O:1]=[C:2]1[N:3]([H:8])[C:4]([H:9])([H:10])[C@@:5]2([H:11])[O:6][C@@:7]12[H:12]>>[O:1]=[C:2]1[N:3]([H:8])[C:4]([H:9])([H:10])[C-:5]=[O+:6][C:7]1([H:11])[H:12]"
O        0.75248405       2.30117054       0.35951097
C        0.38914490       1.15980088       0.20444094
N        1.16147283       0.09052114      -0.09927669
C        0.47957348      -1.13947710      -0.43164367
C       -0.99010095      -1.10246150      -0.01145554
O       -1.08908099      -0.44285380       1.20713684
C       -1.03798648       0.68482368       0.35121593
H        2.16198053       0.19010494      -0.11830329
H        0.89136834      -1.99805425       0.11339189
H        0.53620081      -1.36423532      -1.49927444
H       -1.45964465       0.19764818      -0.67146275
H       -1.79541186       1.42301262       0.59571982
12
Frame=2 idx=007076 GeodesicLength=0.10371925903022511 rxn_smarts="[O:1]=[C:2]1[N:3]([H:8])[C:4]([H:9])([H:10])[C@@:5]2([H:11])[O:6][C@@:7]12[H:12]>>[O:1]=[C:2]1[N:3]([H:8])[C:4]([H:9])([H:10])[C-:5]=[O+:6][C:7]1([H:11])[H:12]"
O        0.75435495       2.30136099       0.35377341
C        0.39011845       1.15918841       0.20651574
N        1.16281460       0.09012626      -0.09738189
C        0.48315074      -1.14145558      -0.42986066
C       -0.98629500      -1.09917470      -0.01610782
O       -1.09885621      -0.44695423       1.20166053
C       -1.03822756       0.68707892       0.35200482
H        2.16303136       0.19182811      -0.11950938
H        0.89579345      -1.99883206       0.11585287
H        0.54131888      -1.36754660      -1.49734378
H       -1.47841789       0.19644412      -0.67853170
H       -1.78878579       1.42793636       0.60892786
12
Frame=3 idx=007076 GeodesicLength=0.15558690864858593 rxn_smarts="[O:1]=[C:2]1[N:3]([H:8])[C:4]([H:9])([H:10])[C@@:5]2([H:11])[O:6][C@@:7]12[H:12]>>[O:1]=[C:2]1[N:3]([H:8])[C:4]([H:9])([H:10])[C-:5]=[O+:6][C:7]1([H:11])[H:12]"
O        0.75622225       2.30158375       0.34775962
C        0.39116869       1.15858712       0.20870436
N        1.16420931       0.08973411      -0.09542624
C        0.48674874      -1.14340307      -0.42806483
C       -0.98248783      -1.09572282      -0.02092088
O       -1.10868531      -0.45108388       1.19596979
C       -1.03841196       0.68938808       0.35286835
H        2.16412555       0.19351990      -0.12061594
H        0.90013460      -1.99960584       0.11835813
H        0.54653500      -1.37080824      -1.49539760
H       -1.49754081       0.19510657      -0.68548559
H       -1.78201822       1.43270431       0.62225082
12
Frame=4 idx=007076 GeodesicLength=0.20745573507586057 rxn_smarts="[O:1]=[C:2]1[N:3]([H:8])[C:4]([H:9])([H:10])[C@@:5]2([H:11])[O:6][C@@:7]12[H:12]>>[O:1]=[C:2]1[N:3]([H:8])[C:4]([H:9])([H:10])[C-:5]=[O+:6][C:7]1([H:11])[H:12]"
O        0.75808343       2.30183163       0.34145765
C        0.39230040       1.15799483       0.21101833
N        1.16565849       0.08934386      -0.09340386
C        0.49036561      -1.14531521      -0.42625436
C       -0.97867873      -1.09209736      -0.02589756
O       -1.11856851      -0.45523789       1.19005411
C       -1.03853666       0.69175146       0.35380800
H        2.16526488       0.19517965      -0.12162393
H        0.90438725      -2.00037240       0.12090637
H        0.55184840      -1.37401318      -1.49343196
H       -1.51701702       0.19362397      -0.69232300
H       -1.77510753       1.43731063       0.63569020
12
Frame=5 idx=007076 GeodesicLength=0.2593337393573894 rxn_smarts="[O:1]=[C:2]1[N:3]([H:8])[C:4]([H:9])([H:10])[C@@:5]2([H:11])[O:6][C@@:7]12[H:12]>>[O:1]=[C:2]1[N:3]([H:8])[C:4]([H:9])([H:10])[C-:5]=[O+:6][C:7]1([H:11])[H:12]"
O        0.75993214       2.30210827       0.33482502
C        0.39351772       1.15741263       0.21347461
N        1.16716425       0.08895357      -0.09130124
C        0.49400082      -1.14719221      -0.42442907
C       -0.97486875      -1.08829228      -0.03105351
O       -1.12851373      -0.45942170       1.18390027
C       -1.03860029       0.69417167       0.35482946
H        2.16645153       0.19680751      -0.12252656
H        0.90854265      -2.00113680       0.12349995
H        0.55727274      -1.37715778      -1.49144844
H       -1.53685253       0.19199284      -0.69904489
H       -1.76804656       1.44175429       0.64927440
12
Frame=6 idx=007076 GeodesicLength=0.31121364391245704 rxn_smarts="[O:1]=[C:2]1[N:3]([H:8])[C:4]([H:9])([H:10])[C@@:5]2([H:11])[O:6][C@@:7]12[H:12]>>[O:1]=[C:2]1[N:3]([H:8])[C:4]([H:9])([H:10])[C-:5]=[O+:6][C:7]1([H:11])[H:12]"
O        0.76177305       2.30240028       0.32791098
C        0.39482247       1.15684547       0.21606234
N        1.16872569       0.08856778      -0.08913257
C        0.49765180      -1.14903163      -0.42258715
C       -0.97105464      -1.08430110      -0.03638045
O       -1.13851116      -0.46361868       1.17750406
C       -1.03859959       0.69665251       0.35592726
H        2.16768516       0.19840477      -0.12333803
H        0.91260066      -2.00189207       0.12614484
H        0.56279720      -1.38025005      -1.48944195
H       -1.55704972       0.19019252      -0.70565378
H       -1.76084093       1.44603020       0.66298445
12
Frame=7 idx=007076 GeodesicLength=0.36309809716399116 rxn_smarts="[O:1]=[C:2]1[N:3]([H:8])[C:4]([H:9])([H:10])[C@@:5]2([H:11])[O:6][C@@:7]12[H:12]>>[O:1]=[C:2]1[N:3]([H:8])[C:4]([H:9])([H:10])[C-:5]=[O+:6][C:7]1([H:11])[H:12]"
O        0.76360670       2.30270304       0.32072211
C        0.39621790       1.15629717       0.21878466
N        1.17034361       0.08818810      -0.08689780
C        0.50131638      -1.15083235      -0.42072757
C       -0.96723593      -1.08011786      -0.04188025
O       -1.14856044      -0.46782187       1.17085760
C       -1.03853285       0.69919729       0.35710150
H        2.16896704       0.19997323      -0.12406425
H        0.91655619      -2.00263765       0.12884424
H        0.56842243      -1.38329177      -1.48741089
H       -1.57761120       0.18820617      -0.71215358
H       -1.75348983       1.45013650       0.67682423
12
Frame=8 idx=007076 GeodesicLength=0.4149861362890007 rxn_smarts="[O:1]=[C:2]1[N:3]([H:8])[C:4]([H:9])([H:10])[C@@:5]2([H:11])[O:6][C@@:7]12[H:12]>>[O:1]=[C:2]1[N:3]([H:8])[C:4]([H:9])([H:10])[C-:5]=[O+:6][C:7]1([H:11])[H:12]"
O        0.76543340       2.30300944       0.31326847
C        0.39770667       1.15577093       0.22164174
N        1.17201808       0.08781634      -0.08459926
C        0.50499200      -1.15259224      -0.41884921
C       -0.96341129      -1.07573515      -0.04755466
O       -1.15865879      -0.47202292       1.16395217
C       -1.03839770       0.70180935       0.35835171
H        2.17029756       0.20151341      -0.12470962
H        0.92040475      -2.00337053       0.13160211
H        0.57414744      -1.38628498      -1.48535240
H       -1.59853997       0.18601670      -0.71854805
H       -1.74599214       1.45406965       0.69079700
12
Frame=9 idx=007076 GeodesicLength=0.4668778351043744 rxn_smarts="[O:1]=[C:2]1[N:3]([H:8])[C:4]([H:9])([H:10])[C@@:5]2([H:11])[O:6][C@@:7]12[H:12]>>[O:1]=[C:2]1[N:3]([H:8])[C:4]([H:9])([H:10])[C-:5]=[O+:6][C:7]1([H:11])[H:12]"
O        0.76725300       2.30331351       0.30555615
C        0.39929154       1.15527042       0.22463377
N        1.17374929       0.08745436      -0.08223891
C        0.50867582      -1.15430906      -0.41695157
C       -0.95957959      -1.07114548      -0.05340540
O       -1.16880324      -0.47621349       1.15677947
C       -1.03819184       0.70449223       0.35967830
H        2.17167754       0.20302499      -0.12527446
H        0.92414130      -2.00408830       0.13442097
H        0.57997094      -1.38923079      -1.48326468
H       -1.61983855       0.18360542      -0.72484175
H       -1.73834621       1.45782617       0.70490812
12
Frame=10 idx=007076 GeodesicLength=0.5187734480957092 rxn_smarts="[O:1]=[C:2]1[N:3]([H:8])[C:4]([H:9])([H:10])[C@@:5]2([H:11])[O:6][C@@:7]12[H:12]>>[O:1]=[C:2]1[N:3]([H:8])[C:4]([H:9])([H:10])[C-:5]=[O+:6][C:7]1([H:11])[H:12]"
O        0.76906555       2.30360918       0.29759252
C        0.40097514       1.15479959       0.22776012
N        1.17553726       0.08710410      -0.07981869
C        0.51236462      -1.15598047      -0.41503408
C       -0.95573976      -1.06634103      -0.05943420
O       -1.17899069      -0.48038473       1.14933108
C       -1.03791299       0.70724972       0.36108193
H        2.17310765       0.20450787      -0.12575995
H        0.92776032      -2.00478828       0.13730361
H        0.58589145      -1.39213058      -1.48114561
H       -1.64150865       0.18095221      -0.73104062
H       -1.73054991       1.46140241       0.71916389
12
Frame=11 idx=007076 GeodesicLength=0.5706732076506688 rxn_smarts="[O:1]=[C:2]1[N:3]([H:8])[C:4]([H:9])([H:10])[C@@:5]2([H:11])[O:6][C@@:7]12[H:12]>>[O:1]=[C:2]1[N:3]([H:8])[C:4]([H:9])([H:10])[C-:5]=[O+:6][C:7]1([H:11])[H:12]"
O        0.77087277       2.30388986       0.28939417
C        0.40275964       1.15436324       0.23101689
N        1.17738172       0.08676799      -0.07734249
C        0.51605479      -1.15760428      -0.41309586
C       -0.95189065      -1.06131411      -0.06564124
O       -1.18921739      -0.48452592       1.14159940
C       -1.03755904       0.71008618       0.36256243
H        2.17458818       0.20596268      -0.12617080
H        0.93125661      -2.00546719       0.14025387
H        0.59190617      -1.39498746      -1.47899259
H       -1.66355135       0.17803376      -0.73715232
H       -1.72260145       1.46479524       0.73356855
12
Frame=12 idx=007076 GeodesicLength=0.6225775902117338 rxn_smarts="[O:1]=[C:2]1[N:3]([H:8])[C:4]([H:9])([H:10])[C@@:5]2([H:11])[O:6][C@@:7]12[H:12]>>[O:1]=[C:2]1[N:3]([H:8])[C:4]([H:9])([H:10])[C-:5]=[O+:6][C:7]1([H:11])[H:12]"
O        0.77267638       2.30414901       0.28097622
C        0.40464687       1.15396623       0.23439907
N        1.17928207       0.08644848      -0.07481403
C        0.51974210      -1.15917767      -0.41113641
C       -0.94803112      -1.05605644      -0.07202604
O       -1.19947886      -0.48862559       1.13357699
C       -1.03712789       0.71300597       0.36411998
H        2.17611923       0.20738927      -0.12650858
H        0.93462465      -2.00612129       0.14327426
H        0.59801104      -1.39780305      -1.47680327
H       -1.68596689       0.17482373      -0.74318605
H       -1.71449758       1.46800134       0.74812786
12
Frame=13 idx=007076 GeodesicLength=0.6744816630168665 rxn_smarts="[O:1]=[C:2]1[N:3]([H:8])[C:4]([H:9])([H:10])[C@@:5]2([H:11])[O:6][C@@:7]12[H:12]>>[O:1]=[C:2]1[N:3]([H:8])[C:4]([H:9])([H:10])[C-:5]=[O+:6][C:7]1([H:11])[H:12]"
O        0.77448750       2.30437870       0.27240433
C        0.40663681       1.15361721       0.23788336
N        1.18123604       0.08615156      -0.07225305
C        0.52342044      -1.16069842      -0.40915627
C       -0.94415834      -1.05056435      -0.07857279
O       -1.20976090      -0.49266176       1.12526704
C       -1.03661693       0.71601498       0.36574933
H        2.17770030       0.20878740      -0.12677995
H        0.93786416      -2.00674388       0.14636613
H        0.60418729      -1.40058442      -1.47457642
H       -1.70875186       0.17128263      -0.74915280
H       -1.70624451       1.47102035       0.76282109
12
Frame=14 idx=007076 GeodesicLength=0.7263863418810143 rxn_smarts="[O:1]=[C:2]1[N:3]([H:8])[C:4]([H:9])([H:10])[C@@:5]2([H:11])[O:6][C@@:7]12[H:12]>>[O:1]=[C:2]1[N:3]([H:8])[C:4]([H:9])([H:10])[C-:5]=[O+:6][C:7]1([H:11])[H:12]"
O        0.77631103       2.30457505       0.26370408
C        0.40873078       1.15332174       0.24146218
N        1.18324274       0.08587999      -0.06966503
C        0.52708475      -1.16216415      -0.40715466
C       -0.94027176      -1.04483040      -0.08527921
O       -1.22005962      -0.49662128       1.11666400
C       -1.03602452       0.71911852       0.36745058
H        2.17933122       0.21015804      -0.12699219
H        0.94096951      -2.00733114       0.14953284
H        0.61042921      -1.40333530      -1.47230943
H       -1.73190402       0.16737806      -0.75506608
H       -1.69783932       1.47385086       0.77765293
12
Frame=15 idx=007076 GeodesicLength=0.7782920634995321 rxn_smarts="[O:1]=[C:2]1[N:3]([H:8])[C:4]([H:9])([H:10])[C@@:5]2([H:11])[O:6][C@@:7]12[H:12]>>[O:1]=[C:2]1[N:3]([H:8])[C:4]([H:9])([H:10])[C-:5]=[O+:6][C:7]1([H:11])[H:12]"
O        0.77815018       2.30473543       0.25489039
C        0.41093044       1.15308486       0.24512891
N        1.18530122       0.08563636      -0.06705461
C        0.53072939      -1.16357154      -0.40513177
C       -0.93637098      -1.03884616      -0.09214427
O       -1.23037036      -0.50049186       1.10776202
C       -1.03534837       0.72232177       0.36922599
H        2.18101226       0.21150000      -0.12714407
H        0.94393391      -2.00787892       0.15277565
H        0.61673041      -1.40605699      -1.47000069
H       -1.75542059       0.16307718      -0.76094014
H       -1.68927751       1.47648987       0.79263257
12
Frame=16 idx=007076 GeodesicLength=0.830199467794311 rxn_smarts="[O:1]=[C:2]1[N:3]([H:8])[C:4]([H:9])([H:10])[C@@:5]2([H:11])[O:6][C@@:7]12[H:12]>>[O:1]=[C:2]1[N:3]([H:8])[C:4]([H:9])([H:10])[C-:5]=[O+:6][C:7]1([H:11])[H:12]"
O        0.78000997       2.30485781       0.24598504
C        0.41323716       1.15291203       0.24887532
N        1.18741032       0.08542344      -0.06442718
C        0.53434825      -1.16491740      -0.40308730
C       -0.93245578      -1.03260320      -0.09916599
O       -1.24068904      -0.50425991       1.09855574
C       -1.03458634       0.72563051       0.37107771
H        2.18274330       0.21281307      -0.12723900
H        0.94675037      -2.00838272       0.15609687
H        0.62308365      -1.40875201      -1.46764794
H       -1.77929771       0.15834352      -0.76679192
H       -1.68055415       1.47893486       0.80776866
