15
Frame=0 idx=003959 GeodesicLength=0.0 rxn_smarts="[C:1]([C:2]([C:3]([N:4]([C:5](=[O:6])[H:15])[H:14])([H:12])[H:13])([H:10])[H:11])([H:7])([H:8])[H:9]>>[C:1]([C:2](=[C:3]([H:12])[H:13])[H:11])([H:7])([H:8])[H:9].[N:4](=[C:5](/[O:6][H:10])[H:15])\[H:14]"
C       -1.78900756       0.48621223       0.24445730
C       -0.86189994      -0.46550952      -0.47933464
C        0.04873106      -1.24398679       0.22977924
N        1.86097839      -0.34775322       0.24607667
C        1.77442515       0.84749271      -0.24783177
O        1.03867188       1.08179721      -1.26604008
H       -2.15283863       1.27095081      -0.42119727
H       -2.66348509      -0.01849328       0.66574736
H       -1.26908446       0.98163345       1.06944737
H        0.11033521       0.35145047      -1.07683203
H       -1.22950257      -0.89926341      -1.40725905
H        0.44331920      -2.14676810      -0.21346251
H        0.04988732      -1.23573094       1.31441688
H        2.36041878      -0.36966114       1.12714659
H        2.27905122       1.70762947       0.21488600
15
Frame=1 idx=003959 GeodesicLength=0.06599181236941883 rxn_smarts="[C:1]([C:2]([C:3]([N:4]([C:5](=[O:6])[H:15])[H:14])([H:12])[H:13])([H:10])[H:11])([H:7])([H:8])[H:9]>>[C:1]([C:2](=[C:3]([H:12])[H:13])[H:11])([H:7])([H:8])[H:9].[N:4](=[C:5](/[O:6][H:10])[H:15])\[H:14]"
C       -1.78166611       0.48678771       0.25249634
C       -0.86929639      -0.46870862      -0.48449193
C        0.04779203      -1.25147829       0.21564100
N        1.84957369      -0.32937366       0.27971603
C        1.78617987       0.85166150      -0.25214916
O        1.06536608       1.06558491      -1.28508022
H       -2.15085059       1.27302224      -0.40848808
H       -2.65311867      -0.01495523       0.68337965
H       -1.24839757       0.97911871       1.07062423
H        0.11083334       0.34543102      -1.09192656
H       -1.25876572      -0.90721817      -1.40123682
H        0.44627227      -2.14425060      -0.24525366
H        0.03312590      -1.27345258       1.30008581
H        2.33431983      -0.33184641       1.16889606
H        2.28863204       1.71967748       0.19778731
15
Frame=2 idx=003959 GeodesicLength=0.1317892765141569 rxn_smarts="[C:1]([C:2]([C:3]([N:4]([C:5](=[O:6])[H:15])[H:14])([H:12])[H:13])([H:10])[H:11])([H:7])([H:8])[H:9]>>[C:1]([C:2](=[C:3]([H:12])[H:13])[H:11])([H:7])([H:8])[H:9].[N:4](=[C:5](/[O:6][H:10])[H:15])\[H:14]"
C       -1.77512951       0.48677376       0.26040690
C       -0.87670392      -0.47156444      -0.48953418
C        0.04693025      -1.25818902       0.20190650
N        1.83706725      -0.31060153       0.31249629
C        1.79941560       0.85476467      -0.25673645
O        1.09264534       1.04950406      -1.30276462
H       -2.14999818       1.27438966      -0.39579061
H       -2.64320234      -0.01278298       0.70045742
H       -1.22937136       0.97620774       1.07184318
H        0.11108646       0.34067300      -1.10621000
H       -1.28731023      -0.91500100      -1.39466814
H        0.44917773      -2.14081280      -0.27613319
H        0.01749952      -1.30925597       1.28518016
H        2.30698039      -0.29382085       1.20913772
H        2.30091298       1.72971571       0.18040903
15
Frame=3 idx=003959 GeodesicLength=0.19743375619851214 rxn_smarts="[C:1]([C:2]([C:3]([N:4]([C:5](=[O:6])[H:15])[H:14])([H:12])[H:13])([H:10])[H:11])([H:7])([H:8])[H:9]>>[C:1]([C:2](=[C:3]([H:12])[H:13])[H:11])([H:7])([H:8])[H:9].[N:4](=[C:5](/[O:6][H:10])[H:15])\[H:14]"
C       -1.76936746       0.48618277       0.26816412
C       -0.88413381      -0.47408575      -0.49446848
C        0.04612989      -1.26409579       0.18854389
N        1.82356151      -0.29141176       0.34428705
C        1.81417265       0.85672115      -0.26153574
O        1.12046749       1.03357045      -1.31909244
H       -2.15026927       1.27499742      -0.38313422
H       -2.63369949      -0.01193836       0.71701669
H       -1.21189487       0.97299528       1.07300030
H        0.11111613       0.33715233      -1.11971469
H       -1.31520452      -0.92269634      -1.38750168
H        0.45190817      -2.13648712      -0.30609188
H        0.00300538      -1.34307264       1.26976462
H        2.27860665      -0.25557438       1.24768148
H        2.31560154       1.73774275       0.16308097
15
Frame=4 idx=003959 GeodesicLength=0.2631306775647202 rxn_smarts="[C:1]([C:2]([C:3]([N:4]([C:5](=[O:6])[H:15])[H:14])([H:12])[H:13])([H:10])[H:11])([H:7])([H:8])[H:9]>>[C:1]([C:2](=[C:3]([H:12])[H:13])[H:11])([H:7])([H:8])[H:9].[N:4](=[C:5](/[O:6][H:10])[H:15])\[H:14]"
C       -1.76452219       0.48494667       0.27585071
C       -0.89163663      -0.47628027      -0.49935678
C        0.04541126      -1.26926783       0.17543607
N        1.80898525      -0.27158836       0.37534366
C        1.83038936       0.85754811      -0.26640025
O        1.14873667       1.01787920      -1.33408536
H       -2.15187764       1.27483254      -0.37038682
H       -2.62472890      -0.01257447       0.73312927
H       -1.19613413       0.96940148       1.07427202
H        0.11085919       0.33499458      -1.13243551
H       -1.34249490      -0.93028558      -1.37987651
H        0.45463528      -2.13125793      -0.33541009
H       -0.01042005      -1.37520285       1.25386609
H        2.24872897      -0.21657929       1.28502205
H        2.33406844       1.74343400       0.14503145
15
Frame=5 idx=003959 GeodesicLength=0.328755323785777 rxn_smarts="[C:1]([C:2]([C:3]([N:4]([C:5](=[O:6])[H:15])[H:14])([H:12])[H:13])([H:10])[H:11])([H:7])([H:8])[H:9]>>[C:1]([C:2](=[C:3]([H:12])[H:13])[H:11])([H:7])([H:8])[H:9].[N:4](=[C:5](/[O:6][H:10])[H:15])\[H:14]"
C       -1.76047644       0.48322650       0.28338715
C       -0.89916933      -0.47816101      -0.50418789
C        0.04480272      -1.27366158       0.16265833
N        1.79360329      -0.25131790       0.40524830
C        1.84812534       0.85705189      -0.27138103
O        1.17741371       1.00239567      -1.34784592
H       -2.15467538       1.27396295      -0.35772629
H       -2.61618952      -0.01440454       0.74881012
H       -1.18187580       0.96570992       1.07546877
H        0.11039103       0.33405769      -1.14451228
H       -1.36916070      -0.93791586      -1.37171897
H        0.45713619      -2.12531282      -0.36385806
H       -0.02263877      -1.40536613       1.23768822
H        2.21817873      -0.17730490       1.32047299
H        2.35453494       1.74704012       0.12749655
15
Frame=6 idx=003959 GeodesicLength=0.394440426956179 rxn_smarts="[C:1]([C:2]([C:3]([N:4]([C:5](=[O:6])[H:15])[H:14])([H:12])[H:13])([H:10])[H:11])([H:7])([H:8])[H:9]>>[C:1]([C:2](=[C:3]([H:12])[H:13])[H:11])([H:7])([H:8])[H:9].[N:4](=[C:5](/[O:6][H:10])[H:15])\[H:14]"
C       -1.75735324       0.48087999       0.29082321
C       -0.90679076      -0.47973099      -0.50898801
C        0.04428483      -1.27726583       0.15009658
N        1.77734016      -0.23034689       0.43416053
C        1.86730324       0.85525360      -0.27629378
O        1.20638914       0.98731347      -1.36024415
H       -2.15885027       1.27223573      -0.34501554
H       -2.60817105      -0.01765718       0.76409478
H       -1.16925455       0.96177065       1.07665284
H        0.10966526       0.33445046      -1.15586431
H       -1.39525780      -0.94556147      -1.36305345
H        0.45949825      -2.11851984      -0.39164572
H       -0.03373580      -1.43372231       1.22117085
H        2.18639644      -0.13717220       1.35437785
H        2.37853615       1.74807281       0.10972834
15
Frame=7 idx=003959 GeodesicLength=0.46024157571851054 rxn_smarts="[C:1]([C:2]([C:3]([N:4]([C:5](=[O:6])[H:15])[H:14])([H:12])[H:13])([H:10])[H:11])([H:7])([H:8])[H:9]>>[C:1]([C:2](=[C:3]([H:12])[H:13])[H:11])([H:7])([H:8])[H:9].[N:4](=[C:5](/[O:6][H:10])[H:15])\[H:14]"
C       -1.75514734       0.47796106       0.29815988
C       -0.91451122      -0.48101424      -0.51379079
C        0.04388869      -1.28010957       0.13773271
N        1.76028362      -0.20865402       0.46200489
C        1.88787899       0.85206772      -0.28108991
O        1.23555956       0.97273954      -1.37134020
H       -2.16443071       1.26969303      -0.33228447
H       -2.60064693      -0.02225972       0.77903587
H       -1.15821983       0.95770090       1.07782093
H        0.10866770       0.33615741      -1.16657324
H       -1.42080440      -0.95331862      -1.35392432
H        0.46171213      -2.11098618      -0.41880967
H       -0.04366220      -1.46030189       1.20442428
H        2.15352719      -0.09609848       1.38664426
H        2.40590476       1.74642308       0.09198979
15
Frame=8 idx=003959 GeodesicLength=0.5261520815914141 rxn_smarts="[C:1]([C:2]([C:3]([N:4]([C:5](=[O:6])[H:15])[H:14])([H:12])[H:13])([H:10])[H:11])([H:7])([H:8])[H:9]>>[C:1]([C:2](=[C:3]([H:12])[H:13])[H:11])([H:7])([H:8])[H:9].[N:4](=[C:5](/[O:6][H:10])[H:15])\[H:14]"
C       -1.75384165       0.47448973       0.30538035
C       -0.92234381      -0.48203329      -0.51860291
C        0.04362048      -1.28217952       0.12555546
N        1.74253742      -0.18621293       0.48865409
C        1.90976984       0.84742502      -0.28568419
O        1.26483453       0.95881387      -1.38112545
H       -2.17139967       1.26631432      -0.31956380
H       -2.59359621      -0.02815427       0.79365307
H       -1.14871090       0.95356083       1.07891430
H        0.10740417       0.33912649      -1.17669405
H       -1.44581223      -0.96125127      -1.34431468
H        0.46371729      -2.10275966      -0.44534150
H       -0.05238362      -1.48506369       1.18752685
H        2.11973203      -0.05402311       1.41708687
H        2.43647232       1.74194750       0.07455559
15
Frame=9 idx=003959 GeodesicLength=0.5921668349850987 rxn_smarts="[C:1]([C:2]([C:3]([N:4]([C:5](=[O:6])[H:15])[H:14])([H:12])[H:13])([H:10])[H:11])([H:7])([H:8])[H:9]>>[C:1]([C:2](=[C:3]([H:12])[H:13])[H:11])([H:7])([H:8])[H:9].[N:4](=[C:5](/[O:6][H:10])[H:15])\[H:14]"
C       -1.75342032       0.47048913       0.31247210
C       -0.93030552      -0.48281593      -0.52343548
C        0.04349056      -1.28347511       0.11354903
N        1.72419473      -0.16299109       0.51401309
C        1.93285305       0.84127829      -0.28997760
O        1.29411862       0.94570222      -1.38959433
H       -2.17975189       1.26208703      -0.30688167
H       -2.58699131      -0.03528027       0.80797650
H       -1.14066878       0.94941267       1.07988255
H        0.10586808       0.34330116      -1.18629140
H       -1.47029307      -0.96942430      -1.33422017
H        0.46547796      -2.09389542      -0.47125356
H       -0.05987339      -1.50800193       1.17055231
H        2.08515995      -0.01087057       1.44556005
H        2.47014133       1.73448412       0.05764858
15
Frame=10 idx=003959 GeodesicLength=0.6582037110952711 rxn_smarts="[C:1]([C:2]([C:3]([N:4]([C:5](=[O:6])[H:15])[H:14])([H:12])[H:13])([H:10])[H:11])([H:7])([H:8])[H:9]>>[C:1]([C:2](=[C:3]([H:12])[H:13])[H:11])([H:7])([H:8])[H:9].[N:4](=[C:5](/[O:6][H:10])[H:15])\[H:14]"
C       -1.75381152       0.46599420       0.31941510
C       -0.93839440      -0.48340895      -0.52830895
C        0.04351817      -1.28401333       0.10167948
N        1.70539057      -0.13902117       0.53791510
C        1.95691824       0.83364708      -0.29383344
O        1.32326817       0.93368747      -1.39669502
H       -2.18944692       1.25698213      -0.29427904
H       -2.58071359      -0.04353938       0.82208764
H       -1.13395111       0.94535486       1.08061812
H        0.10406908       0.34854896      -1.19548051
H       -1.49427261      -0.97793701      -1.32360286
H        0.46692151      -2.08451624      -0.49654699
H       -0.06608577      -1.52906643       1.15356513
H        2.04981026       0.03341727       1.47190329
H        2.50677992       1.72387053       0.04156296
15
Frame=11 idx=003959 GeodesicLength=0.7242769309544363 rxn_smarts="[C:1]([C:2]([C:3]([N:4]([C:5](=[O:6])[H:15])[H:14])([H:12])[H:13])([H:10])[H:11])([H:7])([H:8])[H:9]>>[C:1]([C:2](=[C:3]([H:12])[H:13])[H:11])([H:7])([H:8])[H:9].[N:4](=[C:5](/[O:6][H:10])[H:15])\[H:14]"
C       -1.75497930       0.46105351       0.32618228
C       -0.94664220      -0.48385594      -0.53322599
C        0.04370021      -1.28381233       0.08995351
N        1.68624198      -0.11430218       0.56029488
C        1.98177797       0.82454804      -0.29715013
O        1.35222891       0.92292748      -1.40246235
H       -2.20042194       1.25103219      -0.28181511
H       -2.57474287      -0.05281763       0.83598735
H       -1.12847184       0.94145259       1.08106559
H        0.10198670       0.35476934      -1.20436324
H       -1.51776927      -0.98685217      -1.31246254
H        0.46799155      -2.07471087      -0.52121060
H       -0.07101685      -1.54827856       1.13666138
H        2.01407914       0.07877054       1.49593849
H        2.54603781       1.71007597       0.02660646
15
Frame=12 idx=003959 GeodesicLength=0.7903459233236293 rxn_smarts="[C:1]([C:2]([C:3]([N:4]([C:5](=[O:6])[H:15])[H:14])([H:12])[H:13])([H:10])[H:11])([H:7])([H:8])[H:9]>>[C:1]([C:2](=[C:3]([H:12])[H:13])[H:11])([H:7])([H:8])[H:9].[N:4](=[C:5](/[O:6][H:10])[H:15])\[H:14]"
C       -1.75684965       0.45570171       0.33277411
C       -0.95505820      -0.48419932      -0.53819858
C        0.04404817      -1.28289940       0.07833143
N        1.66684663      -0.08884624       0.58109072
C        2.00721477       0.81400767      -0.29983400
O        1.38093739       0.91362752      -1.40690318
H       -2.21261873       1.24423494      -0.26949660
H       -2.56897391      -0.06301999       0.84974989
H       -1.12410014       0.93776901       1.08116486
H        0.09960745       0.36185130      -1.21304986
H       -1.54080011      -0.99623125      -1.30077686
H        0.46865955      -2.06455928      -0.54529841
H       -0.07466091      -1.56568030       1.11987652
H        1.97799124       0.12529415       1.51758696
H        2.58775647       1.69294948       0.01298301
15
Frame=13 idx=003959 GeodesicLength=0.8561721748910869 rxn_smarts="[C:1]([C:2]([C:3]([N:4]([C:5](=[O:6])[H:15])[H:14])([H:12])[H:13])([H:10])[H:11])([H:7])([H:8])[H:9]>>[C:1]([C:2](=[C:3]([H:12])[H:13])[H:11])([H:7])([H:8])[H:9].[N:4](=[C:5](/[O:6][H:10])[H:15])\[H:14]"
C       -1.75917625       0.45017156       0.33903229
C       -0.96364009      -0.48455038      -0.54322996
C        0.04452729      -1.28135503       0.06687665
N        1.64752952      -0.06298228       0.60001433
C        2.03270168       0.80242200      -0.30161211
O        1.40939286       0.90583858      -1.41007471
H       -2.22569726       1.23673929      -0.25761663
H       -2.56319085      -0.07363977       0.86339891
H       -1.12042288       0.93460270       1.08056409
H        0.09700645       0.36932278      -1.22188188
H       -1.56345478      -1.00624133      -1.28840199
H        0.46862408      -2.05445134      -0.56857954
H       -0.07706202      -1.58113554       1.10339854
H        1.94289650       0.17176932       1.53640800
H        2.62996573       1.67348942       0.00170402
15
Frame=14 idx=003959 GeodesicLength=0.9218229692471434 rxn_smarts="[C:1]([C:2]([C:3]([N:4]([C:5](=[O:6])[H:15])[H:14])([H:12])[H:13])([H:10])[H:11])([H:7])([H:8])[H:9]>>[C:1]([C:2](=[C:3]([H:12])[H:13])[H:11])([H:7])([H:8])[H:9].[N:4](=[C:5](/[O:6][H:10])[H:15])\[H:14]"
C       -1.76183876       0.44453653       0.34496374
C       -0.97241344      -0.48496585      -0.54834661
C        0.04512093      -1.27927310       0.05553159
N        1.62837724      -0.03677334       0.61712208
C        2.05800083       0.78998579      -0.30241415
O        1.43766064       0.89955772      -1.41210330
H       -2.23953640       1.22862120      -0.24617889
H       -2.55725592      -0.08452296       0.87703818
H       -1.11723786       0.93203393       1.07921531
H        0.09417102       0.37703939      -1.23102930
H       -1.58581138      -1.01693535      -1.27531098
H        0.46784331      -2.04452188      -0.59116565
H       -0.07829978      -1.59483264       1.08723705
H        1.90890988       0.21807042       1.55257612
H        2.67230969       1.65198014      -0.00713518
15
Frame=15 idx=003959 GeodesicLength=0.987059869260184 rxn_smarts="[C:1]([C:2]([C:3]([N:4]([C:5](=[O:6])[H:15])[H:14])([H:12])[H:13])([H:10])[H:11])([H:7])([H:8])[H:9]>>[C:1]([C:2](=[C:3]([H:12])[H:13])[H:11])([H:7])([H:8])[H:9].[N:4](=[C:5](/[O:6][H:10])[H:15])\[H:14]"
C       -1.76483322       0.43887667       0.35048850
C       -0.98139804      -0.48547746      -0.55350899
C        0.04581530      -1.27660817       0.04434573
N        1.60937480      -0.01018470       0.63247103
C        2.08276058       0.77695543      -0.30214576
O        1.46577568       0.89461630      -1.41305889
H       -2.25403845       1.21993189      -0.23529339
H       -2.55121782      -0.09545673       0.89054737
H       -1.11457829       0.93010359       1.07701719
H        0.09105850       0.38482790      -1.24057195
H       -1.60777913      -1.02828470      -1.26147807
H        0.46632513      -2.03477393      -0.61295789
H       -0.07847963      -1.60672354       1.07145224
H        1.87717584       0.26331270       1.56611473
H        2.71403874       1.62888476      -0.01342186
15
Frame=16 idx=003959 GeodesicLength=1.0520826442040243 rxn_smarts="[C:1]([C:2]([C:3]([N:4]([C:5](=[O:6])[H:15])[H:14])([H:12])[H:13])([H:10])[H:11])([H:7])([H:8])[H:9]>>[C:1]([C:2](=[C:3]([H:12])[H:13])[H:11])([H:7])([H:8])[H:9].[N:4](=[C:5](/[O:6][H:10])[H:15])\[H:14]"
C       -1.76790553       0.43320058       0.35577351
C       -0.99056560      -0.48610477      -0.55875597
C        0.04663108      -1.27353430       0.03309420
N        1.59063002       0.01662626       0.64610024
C        2.10699473       0.76330749      -0.30087042
O        1.49392025       0.89088617      -1.41309368
H       -2.26902746       1.21073087      -0.22466621
H       -2.54472536      -0.10642400       0.90422801
H       -1.11206188       0.92877795       1.07406605
H        0.08770452       0.39265676      -1.25060824
H       -1.62949097      -1.04025235      -1.24682716
H        0.46407007      -2.02530526      -0.63435115
H       -0.07759660      -1.61719305       1.05582959
H        1.84605778       0.30853517       1.57736894
H        2.75536494       1.60409246      -0.01728771
