18
Frame=0 idx=006812 GeodesicLength=0.0 rxn_smarts="[C:1]([C:2]([C:3]([C@@:4]([C:5]([H:16])([H:17])[H:18])([C:6]#[N:7])[H:15])([H:13])[H:14])([H:11])[H:12])([H:8])([H:9])[H:10]>>[C:1]([C:2](=[C:3]([H:13])[H:14])[H:11])([H:8])([H:9])[H:10].[C:4]([C:5]([H:16])([H:17])[H:18])(=[C:6]=[N:7][H:12])[H:15]"
C       -2.54410484      -0.11506942      -0.58857007
C       -1.19817418       0.57462329      -0.66341099
C       -0.05158545      -0.13264674      -0.98165876
C        1.27668614      -0.56666118       0.85099388
C        2.63954235      -0.06606875       0.45255635
C        0.44210736       0.16225014       1.62020001
N       -0.50996137       0.83369814       1.86979906
H       -3.24287527       0.43455623       0.04383472
H       -2.99842959      -0.21049704      -1.57824045
H       -2.44211251      -1.11896150      -0.17034817
H       -1.21502954       1.62200336      -0.96034214
H       -0.98092452       0.87750530       0.72892559
H       -0.10262535      -1.20106481      -1.15708057
H        0.79264303       0.37198330      -1.43320597
H        1.15541224      -1.64263569       0.93423036
H        2.93879647      -0.50976834      -0.49890366
H        2.64183031       1.01861816       0.34000240
H        3.39880467      -0.33186441       1.19121843
18
Frame=1 idx=006812 GeodesicLength=0.08100826268423898 rxn_smarts="[C:1]([C:2]([C:3]([C@@:4]([C:5]([H:16])([H:17])[H:18])([C:6]#[N:7])[H:15])([H:13])[H:14])([H:11])[H:12])([H:8])([H:9])[H:10]>>[C:1]([C:2](=[C:3]([H:13])[H:14])[H:11])([H:8])([H:9])[H:10].[C:4]([C:5]([H:16])([H:17])[H:18])(=[C:6]=[N:7][H:12])[H:15]"
C       -2.54929800      -0.12600658      -0.59896533
C       -1.21012548       0.57721325      -0.65627528
C       -0.05548655      -0.12004554      -0.97710059
C        1.27777764      -0.55663254       0.84866037
C        2.65012501      -0.07917913       0.45208122
C        0.46484300       0.18813528       1.63007508
N       -0.48994778       0.85178014       1.88904904
H       -3.25780292       0.41011239       0.03430165
H       -2.99553836      -0.21379877      -1.59302077
H       -2.44174420      -1.13387508      -0.19187939
H       -1.23600341       1.62429453      -0.95418080
H       -0.99765560       0.88203710       0.74279775
H       -0.09751653      -1.18774890      -1.16048311
H        0.77163133       0.39530518      -1.44869734
H        1.14827846      -1.63027159       0.95180899
H        2.94574519      -0.53493930      -0.49483258
H        2.66977115       1.00443466       0.33152412
H        3.40294703      -0.35081508       1.19513696
18
Frame=2 idx=006812 GeodesicLength=0.1619062648778936 rxn_smarts="[C:1]([C:2]([C:3]([C@@:4]([C:5]([H:16])([H:17])[H:18])([C:6]#[N:7])[H:15])([H:13])[H:14])([H:11])[H:12])([H:8])([H:9])[H:10]>>[C:1]([C:2](=[C:3]([H:13])[H:14])[H:11])([H:8])([H:9])[H:10].[C:4]([C:5]([H:16])([H:17])[H:18])(=[C:6]=[N:7][H:12])[H:15]"
C       -2.55411514      -0.13775716      -0.60951124
C       -1.22251773       0.57982476      -0.64874916
C       -0.05933040      -0.10616098      -0.97267556
C        1.27860629      -0.54596818       0.84646914
C        2.66057117      -0.09332551       0.45172634
C        0.48827195       0.21541873       1.63933626
N       -0.46851306       0.87211585       1.90771190
H       -3.27258634       0.38376138       0.02481687
H       -2.99231457      -0.21745746      -1.60782610
H       -2.44004770      -1.14959996      -0.21426522
H       -1.25823938       1.62662702      -0.94722317
H       -1.01499679       0.88586732       0.75734188
H       -0.09161573      -1.17293594      -1.16463856
H        0.74971756       0.42035364      -1.46381968
H        1.13999628      -1.61673626       0.96962710
H        2.95203738      -0.56199144      -0.49019243
H        2.69852132       0.98875305       0.32241920
H        3.40655487      -0.37078887       1.19945242
18
Frame=3 idx=006812 GeodesicLength=0.24268564367778855 rxn_smarts="[C:1]([C:2]([C:3]([C@@:4]([C:5]([H:16])([H:17])[H:18])([C:6]#[N:7])[H:15])([H:13])[H:14])([H:11])[H:12])([H:8])([H:9])[H:10]>>[C:1]([C:2](=[C:3]([H:13])[H:14])[H:11])([H:8])([H:9])[H:10].[C:4]([C:5]([H:16])([H:17])[H:18])(=[C:6]=[N:7][H:12])[H:15]"
C       -2.55854918      -0.15019751      -0.62025374
C       -1.23529275       0.58238120      -0.64078045
C       -0.06315889      -0.09114173      -0.96836541
C        1.27924096      -0.53469295       0.84440625
C        2.67081740      -0.10839125       0.45149159
C        0.51240111       0.24391986       1.64796498
N       -0.44565598       0.89458060       1.92570718
H       -3.28713173       0.35564189       0.01533479
H       -2.98876555      -0.22121061      -1.62269608
H       -2.43712614      -1.16600973      -0.23761726
H       -1.28156224       1.62892734      -0.93934660
H       -1.03284347       0.88878347       0.77264436
H       -0.08503515      -1.15676110      -1.16938835
H        0.72683131       0.44687735      -1.47863811
H        1.13075158      -1.60203509       0.98765370
H        2.95764644      -0.59082860      -0.48491255
H        2.72783733       0.97162199       0.31260215
H        3.40959494      -0.39146512       1.20419355
18
Frame=4 idx=006812 GeodesicLength=0.3233299894437772 rxn_smarts="[C:1]([C:2]([C:3]([C@@:4]([C:5]([H:16])([H:17])[H:18])([C:6]#[N:7])[H:15])([H:13])[H:14])([H:11])[H:12])([H:8])([H:9])[H:10]>>[C:1]([C:2](=[C:3]([H:13])[H:14])[H:11])([H:8])([H:9])[H:10].[C:4]([C:5]([H:16])([H:17])[H:18])(=[C:6]=[N:7][H:12])[H:15]"
C       -2.56257042      -0.16325549      -0.63120744
C       -1.24840766       0.58482145      -0.63233514
C       -0.06699901      -0.07506457      -0.96417846
C        1.27971673      -0.52281996       0.84244958
C        2.68079964      -0.12431143       0.45139427
C        0.53722752       0.27351085       1.65593015
N       -0.42138127       0.91911948       1.94290942
H       -3.30133318       0.32581491       0.00585333
H       -2.98490529      -0.22488980      -1.63761967
H       -2.43299198      -1.18300873      -0.26200262
H       -1.30587648       1.63112893      -0.93047279
H       -1.05107458       0.89064924       0.78875542
H       -0.07783933      -1.13928370      -1.17465759
H        0.70290902       0.47473845      -1.49319255
H        1.12064530      -1.58615717       1.00584796
H        2.96251836      -0.62139231      -0.47891474
H        2.75754364       0.95304301       0.30204139
H        3.41201900      -0.41264319       1.20939947
18
Frame=5 idx=006812 GeodesicLength=0.40381977655503287 rxn_smarts="[C:1]([C:2]([C:3]([C@@:4]([C:5]([H:16])([H:17])[H:18])([C:6]#[N:7])[H:15])([H:13])[H:14])([H:11])[H:12])([H:8])([H:9])[H:10]>>[C:1]([C:2](=[C:3]([H:13])[H:14])[H:11])([H:8])([H:9])[H:10].[C:4]([C:5]([H:16])([H:17])[H:18])(=[C:6]=[N:7][H:12])[H:15]"
C       -2.56620093      -0.17674819      -0.64240688
C       -1.26178619       0.58705849      -0.62338918
C       -0.07090326      -0.05815015      -0.96010102
C        1.28012012      -0.51040760       0.84056318
C        2.69047474      -0.14089991       0.45145423
C        0.56272502       0.30391861       1.66322006
N       -0.39577607       0.94541863       1.95926059
H       -3.31510678       0.29455548      -0.00369291
H       -2.98077872      -0.22821189      -1.65260954
H       -2.42782242      -1.20039249      -0.28747040
H       -1.33094005       1.63314887      -0.92053654
H       -1.06951317       0.89131262       0.80570852
H       -0.07020266      -1.12073173      -1.18025123
H        0.67786333       0.50353172      -1.50760511
H        1.10995692      -1.56916633       1.02414489
H        2.96669180      -0.65346376      -0.47211195
H        2.78735626       0.93315490       0.29071578
H        3.41384205      -0.43392726       1.21510751
18
Frame=6 idx=006812 GeodesicLength=0.4841145401517708 rxn_smarts="[C:1]([C:2]([C:3]([C@@:4]([C:5]([H:16])([H:17])[H:18])([C:6]#[N:7])[H:15])([H:13])[H:14])([H:11])[H:12])([H:8])([H:9])[H:10]>>[C:1]([C:2](=[C:3]([H:13])[H:14])[H:11])([H:8])([H:9])[H:10].[C:4]([C:5]([H:16])([H:17])[H:18])(=[C:6]=[N:7][H:12])[H:15]"
C       -2.56941972      -0.19059151      -0.65383492
C       -1.27538321       0.58903774      -0.61394534
C       -0.07489612      -0.04048275      -0.95615963
C        1.28048641      -0.49748577       0.83870056
C        2.69980071      -0.15807371       0.45171406
C        0.58886048       0.33498088       1.66980470
N       -0.36893024       0.97329974       1.97465239
H       -3.32834522       0.26197368      -0.01328814
H       -2.97643348      -0.23105462      -1.66760572
H       -2.42163173      -1.21802984      -0.31400830
H       -1.35666073       1.63491864      -0.90953702
H       -1.08798388       0.89076169       0.82347973
H       -0.06220645      -1.10118334      -1.18611469
H        0.65162590       0.53307681      -1.52194349
H        1.09880229      -1.55108421       1.04245758
H        2.97015095      -0.68691863      -0.46441401
H        2.81712200       0.91199239       0.27867061
H        3.41504204      -0.45513717       1.22137164
18
Frame=7 idx=006812 GeodesicLength=0.5641777492268247 rxn_smarts="[C:1]([C:2]([C:3]([C@@:4]([C:5]([H:16])([H:17])[H:18])([C:6]#[N:7])[H:15])([H:13])[H:14])([H:11])[H:12])([H:8])([H:9])[H:10]>>[C:1]([C:2](=[C:3]([H:13])[H:14])[H:11])([H:8])([H:9])[H:10].[C:4]([C:5]([H:16])([H:17])[H:18])(=[C:6]=[N:7][H:12])[H:15]"
C       -2.57226619      -0.20459770      -0.66549669
C       -1.28912784       0.59068544      -0.60402421
C       -0.07902436      -0.02228386      -0.95235462
C        1.28090361      -0.48413152       0.83680396
C        2.70876979      -0.17563513       0.45221635
C        0.61557657       0.36640453       1.67567289
N       -0.34100557       1.00233326       1.98907748
H       -3.34098224       0.22839066      -0.02297746
H       -2.97194637      -0.23320056      -1.68257929
H       -2.41460440      -1.23569169      -0.34157810
H       -1.38280869       1.63636209      -0.89749969
H       -1.10628668       0.88899058       0.84201735
H       -0.05403662      -1.08088289      -1.19207787
H        0.62411455       0.56293880      -1.53634811
H        1.08747304      -1.53201356       1.06067253
H        2.97298341      -0.72148102      -0.45572838
H        2.84660024       0.88972922       0.26596709
H        3.41566772      -0.47591664       1.22823675
18
Frame=8 idx=006812 GeodesicLength=0.6439982358915081 rxn_smarts="[C:1]([C:2]([C:3]([C@@:4]([C:5]([H:16])([H:17])[H:18])([C:6]#[N:7])[H:15])([H:13])[H:14])([H:11])[H:12])([H:8])([H:9])[H:10]>>[C:1]([C:2](=[C:3]([H:13])[H:14])[H:11])([H:8])([H:9])[H:10].[C:4]([C:5]([H:16])([H:17])[H:18])(=[C:6]=[N:7][H:12])[H:15]"
C       -2.57472714      -0.21870713      -0.67734501
C       -1.30298834       0.59196999      -0.59366912
C       -0.08330252      -0.00359744      -0.94872676
C        1.28139658      -0.47037418       0.83480974
C        2.71736682      -0.19352325       0.45301568
C        0.64282170       0.39804094       1.68079379
N       -0.31211905       1.03229303       2.00249862
H       -3.35293758       0.19391371      -0.03274130
H       -2.96737915      -0.23463595      -1.69743441
H       -2.40672900      -1.25325266      -0.37007991
H       -1.40933544       1.63742718      -0.88449732
H       -1.12426584       0.88612569       0.86122583
H       -0.04575448      -1.05987318      -1.19814042
H        0.59526755       0.59297561      -1.55089080
H        1.07605435      -1.51199206       1.07867607
H        2.97519526      -0.75700676      -0.44598087
H        2.87571756       0.86639943       0.25273297
H        3.41571872      -0.49618297       1.23575322
18
Frame=9 idx=006812 GeodesicLength=0.7235455946008549 rxn_smarts="[C:1]([C:2]([C:3]([C@@:4]([C:5]([H:16])([H:17])[H:18])([C:6]#[N:7])[H:15])([H:13])[H:14])([H:11])[H:12])([H:8])([H:9])[H:10]>>[C:1]([C:2](=[C:3]([H:13])[H:14])[H:11])([H:8])([H:9])[H:10].[C:4]([C:5]([H:16])([H:17])[H:18])(=[C:6]=[N:7][H:12])[H:15]"
C       -2.57679280      -0.23292942      -0.68930526
C       -1.31696994       0.59287476      -0.58292931
C       -0.08776107       0.01561360      -0.94531426
C        1.28198765      -0.45623782       0.83263401
C        2.72561446      -0.21174385       0.45417456
C        0.67055604       0.42987770       1.68510160
N       -0.28238885       1.06301859       2.01483172
H       -3.36414407       0.15854723      -0.04252444
H       -2.96283075      -0.23543559      -1.71202163
H       -2.39796783      -1.27064852      -0.39942571
H       -1.43629001       1.63806180      -0.87062366
H       -1.14183035       0.88240036       0.88096380
H       -0.03738935      -1.03810123      -1.20436859
H        0.56508028       0.62321839      -1.56553698
H        1.06456718      -1.49109013       1.09632259
H        2.97682954      -0.79341291      -0.43508207
H        2.90455181       0.84195194       0.23910947
H        3.41517805      -0.51596493       1.24399417
18
Frame=10 idx=006812 GeodesicLength=0.8028496256016274 rxn_smarts="[C:1]([C:2]([C:3]([C@@:4]([C:5]([H:16])([H:17])[H:18])([C:6]#[N:7])[H:15])([H:13])[H:14])([H:11])[H:12])([H:8])([H:9])[H:10]>>[C:1]([C:2](=[C:3]([H:13])[H:14])[H:11])([H:8])([H:9])[H:10].[C:4]([C:5]([H:16])([H:17])[H:18])(=[C:6]=[N:7][H:12])[H:15]"
C       -2.57840492      -0.24723853      -0.70134013
C       -1.33101738       0.59338774      -0.57186008
C       -0.09237308       0.03536614      -0.94217086
C        1.28265412      -0.44174187       0.83023970
C        2.73344607      -0.23026761       0.45572649
C        0.69873132       0.46174737       1.68859498
N       -0.25183608       1.09440684       2.02612152
H       -3.37449950       0.12234028      -0.05229594
H       -2.95829270      -0.23565864      -1.72627974
H       -2.38821466      -1.28778614      -0.42948490
H       -1.46363446       1.63823737      -0.85594279
H       -1.15886435       0.87791567       0.90116020
H       -0.02893426      -1.01554242      -1.21081800
H        0.53347022       0.65357515      -1.58037054
H        1.05300031      -1.46928843       1.11354161
H        2.97777731      -0.83060201      -0.42300241
H        2.93297415       0.81640573       0.22523071
H        3.41401788      -0.53525664       1.25295018
18
Frame=11 idx=006812 GeodesicLength=0.8819204639296738 rxn_smarts="[C:1]([C:2]([C:3]([C@@:4]([C:5]([H:16])([H:17])[H:18])([C:6]#[N:7])[H:15])([H:13])[H:14])([H:11])[H:12])([H:8])([H:9])[H:10]>>[C:1]([C:2](=[C:3]([H:13])[H:14])[H:11])([H:8])([H:9])[H:10].[C:4]([C:5]([H:16])([H:17])[H:18])(=[C:6]=[N:7][H:12])[H:15]"
C       -2.57951869      -0.26166126      -0.71339687
C       -1.34511148       0.59350326      -0.56050913
C       -0.09713840       0.05573129      -0.93934170
C        1.28338153      -0.42688997       0.82756968
C        2.74083931      -0.24911755       0.45771223
C        0.72732166       0.49360675       1.69124465
N       -0.22047262       1.12643286       2.03634568
H       -3.38392713       0.08526214      -0.06201410
H       -2.95379210      -0.23541678      -1.74011377
H       -2.37736914      -1.30462498      -0.46015916
H       -1.49141035       1.63792062      -0.84051386
H       -1.17531638       0.87281442       0.92172854
H       -0.02037156      -0.99210328      -1.21757953
H        0.50040118       0.68408155      -1.59538313
H        1.04129747      -1.44659242       1.13024117
H        2.97798663      -0.86850809      -0.40970725
H        2.96100386       0.78971591       0.21125116
H        3.41219621      -0.55415446       1.26262539
18
Frame=12 idx=006812 GeodesicLength=0.9607926653842939 rxn_smarts="[C:1]([C:2]([C:3]([C@@:4]([C:5]([H:16])([H:17])[H:18])([C:6]#[N:7])[H:15])([H:13])[H:14])([H:11])[H:12])([H:8])([H:9])[H:10]>>[C:1]([C:2](=[C:3]([H:13])[H:14])[H:11])([H:8])([H:9])[H:10].[C:4]([C:5]([H:16])([H:17])[H:18])(=[C:6]=[N:7][H:12])[H:15]"
C       -2.58002904      -0.27631777      -0.72540619
C       -1.35924961       0.59323108      -0.54891011
C       -0.10204001       0.07691587      -0.93688731
C        1.28411419      -0.41164234       0.82457361
C        2.74773073      -0.26842203       0.46016581
C        0.75633726       0.52553486       1.69300090
N       -0.18824488       1.15925743       2.04542200
H       -3.39229248       0.04708069      -0.07158284
H       -2.94932860      -0.23491677      -1.75340649
H       -2.36517282      -1.32120381      -0.49137861
H       -1.51977543       1.63707523      -0.82436657
H       -1.19117295       0.86726129       0.94260087
H       -0.01158991      -0.96752051      -1.22484548
H        0.46584403       0.71501060      -1.61049002
H        1.02925027      -1.42292558       1.14634308
H        2.97728670      -0.90721326      -0.39516344
H        2.98873287       0.76169552       0.19729784
H        3.40959968      -0.57290050       1.27303296
18
Frame=13 idx=006812 GeodesicLength=1.0394892767739377 rxn_smarts="[C:1]([C:2]([C:3]([C@@:4]([C:5]([H:16])([H:17])[H:18])([C:6]#[N:7])[H:15])([H:13])[H:14])([H:11])[H:12])([H:8])([H:9])[H:10]>>[C:1]([C:2](=[C:3]([H:13])[H:14])[H:11])([H:8])([H:9])[H:10].[C:4]([C:5]([H:16])([H:17])[H:18])(=[C:6]=[N:7][H:12])[H:15]"
C       -2.57990684      -0.29121299      -0.73735757
C       -1.37340344       0.59254255      -0.53708158
C       -0.10709428       0.09895920      -0.93482164
C        1.28486152      -0.39599646       0.82120370
C        2.75409210      -0.28818263       0.46310924
C        0.78578812       0.55750442       1.69383971
N       -0.15511966       1.19286507       2.05333404
H       -3.39953663       0.00779412      -0.08101682
H       -2.94491742      -0.23421180      -1.76612024
H       -2.35159076      -1.33747091      -0.52310961
H       -1.54872719       1.63564964      -0.80749264
H       -1.20642423       0.86130056       0.96374279
H       -0.00260010      -0.94173024      -1.23264659
H        0.42974380       0.74633631      -1.62567033
H        1.01684690      -1.39827655       1.16178987
H        2.97561587      -0.94663421      -0.37935632
H        3.01616801       0.73230688       0.18349221
H        3.40620423      -0.59154295       1.28416179
18
Frame=14 idx=006812 GeodesicLength=1.1180344141958487 rxn_smarts="[C:1]([C:2]([C:3]([C@@:4]([C:5]([H:16])([H:17])[H:18])([C:6]#[N:7])[H:15])([H:13])[H:14])([H:11])[H:12])([H:8])([H:9])[H:10]>>[C:1]([C:2](=[C:3]([H:13])[H:14])[H:11])([H:8])([H:9])[H:10].[C:4]([C:5]([H:16])([H:17])[H:18])(=[C:6]=[N:7][H:12])[H:15]"
C       -2.57902303      -0.30648148      -0.74919103
C       -1.38756073       0.59143638      -0.52503582
C       -0.11229580       0.12208984      -0.93319937
C        1.28557409      -0.37988473       0.81740394
C        2.75983424      -0.30854305       0.46657163
C        0.81571654       0.58962196       1.69370036
N       -0.12100593       1.22747288       2.05996379
H       -3.40548295      -0.03287711      -0.09023272
H       -2.94054538      -0.23350363      -1.77815092
H       -2.33633652      -1.35346360      -0.55531695
H       -1.57842650       1.63358336      -0.78987462
H       -1.22106909       0.85503692       0.98512112
H        0.00670913      -0.91442923      -1.24117090
H        0.39205757       0.77836353      -1.64081469
H        1.00387552      -1.37252151       1.17651280
H        2.97273587      -0.98687117      -0.36226654
H        3.04339526       0.70132231       0.16995681
H        3.40184772      -0.61035168       1.29602309
18
Frame=15 idx=006812 GeodesicLength=1.196450961036128 rxn_smarts="[C:1]([C:2]([C:3]([C@@:4]([C:5]([H:16])([H:17])[H:18])([C:6]#[N:7])[H:15])([H:13])[H:14])([H:11])[H:12])([H:8])([H:9])[H:10]>>[C:1]([C:2](=[C:3]([H:13])[H:14])[H:11])([H:8])([H:9])[H:10].[C:4]([C:5]([H:16])([H:17])[H:18])(=[C:6]=[N:7][H:12])[H:15]"
C       -2.57731537      -0.32215369      -0.76089917
C       -1.40168396       0.58987375      -0.51277261
C       -0.11766829       0.14638432      -0.93203223
C        1.28626172      -0.36327786       0.81312169
C        2.76489984      -0.32953353       0.47057109
C        0.84616216       0.62189633       1.69254413
N       -0.08582677       1.26314473       2.06524507
H       -3.41002533      -0.07499185      -0.09925152
H       -2.93621386      -0.23286023      -1.78946387
H       -2.31932902      -1.36913619      -0.58799276
H       -1.60888679       1.63079839      -0.77146324
H       -1.23510473       0.84846373       1.00673301
H        0.01634003      -0.88549605      -1.25046080
H        0.35272027       0.81111712      -1.65586629
H        0.99029369      -1.34559841       1.19045211
H        2.96850502      -1.02786901      -0.34389396
H        3.07041580       0.66865697       0.15681599
H        3.39645559      -0.62941851       1.30861336
18
Frame=16 idx=006812 GeodesicLength=1.274760495576928 rxn_smarts="[C:1]([C:2]([C:3]([C@@:4]([C:5]([H:16])([H:17])[H:18])([C:6]#[N:7])[H:15])([H:13])[H:14])([H:11])[H:12])([H:8])([H:9])[H:10]>>[C:1]([C:2](=[C:3]([H:13])[H:14])[H:11])([H:8])([H:9])[H:10].[C:4]([C:5]([H:16])([H:17])[H:18])(=[C:6]=[N:7][H:12])[H:15]"
C       -2.57465348      -0.33833541      -0.77244285
C       -1.41573512       0.58782775      -0.50028542
C       -0.12322618       0.17203738      -0.93135659
C        1.28689201      -0.34611298       0.80829670
C        2.76917578      -0.35126818       0.47513270
C        0.87718937       0.65441701       1.69030108
N       -0.04946746       1.30007311       2.06903680
H       -3.41296095      -0.11878920      -0.10802363
H       -2.93190296      -0.23243968      -1.79997711
H       -2.30032058      -1.38448983      -0.62114052
H       -1.64021355       1.62720121      -0.75219754
H       -1.24851947       0.84161834       1.02857670
H        0.02636667      -0.85464851      -1.26066294
H        0.31166650       0.84483034      -1.67070655
H        0.97593284      -1.31737882       1.20354836
H        2.96266365      -1.06968229      -0.32422636
H        3.09725587       0.63409777       0.14417682
H        3.38985706      -0.64895801       1.32195035
