12
Frame=0 idx=002474 GeodesicLength=0.0 rxn_smarts="[N:1]([C:2]1([C:5]#[N:6])[C:3]([H:9])([H:10])[C:4]1([H:11])[H:12])([H:7])[H:8]>>[N:1]([C@:2]1([C+:5]=[N:6][H:11])[C:3]([H:9])([H:10])[C-:4]1[H:12])([H:7])[H:8]"
N        0.33831716       1.29789219       0.84847893
C        0.16795273       0.32348745      -0.16848710
C       -1.26929961       0.20676177      -0.68938342
C       -0.67445908      -0.92945948       0.07054968
C        1.31839176      -0.50163149      -0.38924202
N        1.80355610      -1.42013114       0.20092999
H        1.07616796       1.05920997       1.49649284
H        0.49531813       2.22092875       0.47108325
H       -1.47029193       0.07487249      -1.74668398
H       -1.88196497       0.95273328      -0.19755839
H        0.58019227      -1.59242995       0.78262629
H       -0.48388056      -1.69223380      -0.67880604
12
Frame=1 idx=002474 GeodesicLength=0.07655529353191354 rxn_smarts="[N:1]([C:2]1([C:5]#[N:6])[C:3]([H:9])([H:10])[C:4]1([H:11])[H:12])([H:7])[H:8]>>[N:1]([C@:2]1([C+:5]=[N:6][H:11])[C:3]([H:9])([H:10])[C-:4]1[H:12])([H:7])[H:8]"
N        0.33457196       1.30498192       0.85221293
C        0.16405269       0.32413060      -0.15833979
C       -1.26803035       0.20300561      -0.69199266
C       -0.68286589      -0.92604132       0.08415701
C        1.31633527      -0.48859930      -0.40440668
N        1.81849924      -1.40932959       0.16754246
H        1.05139576       1.05773714       1.52018343
H        0.52205678       2.21951683       0.46783542
H       -1.45063062       0.06925646      -1.75261347
H       -1.88436279       0.95409907      -0.21269492
H        0.58811445      -1.60415066       0.78129886
H       -0.50913650      -1.70460676      -0.65318259
12
Frame=2 idx=002474 GeodesicLength=0.15263279313420375 rxn_smarts="[N:1]([C:2]1([C:5]#[N:6])[C:3]([H:9])([H:10])[C:4]1([H:11])[H:12])([H:7])[H:8]>>[N:1]([C@:2]1([C+:5]=[N:6][H:11])[C:3]([H:9])([H:10])[C-:4]1[H:12])([H:7])[H:8]"
N        0.33096721       1.31196579       0.85586710
C        0.16040116       0.32474633      -0.14831295
C       -1.26628913       0.19911691      -0.69466585
C       -0.69115469      -0.92233864       0.09775003
C        1.31402791      -0.47524637      -0.41964655
N        1.83263897      -1.39809887       0.13338755
H        1.02603757       1.05673374       1.54330943
H        0.54890402       2.21719028       0.46557491
H       -1.43071620       0.06296346      -1.75816361
H       -1.88612099       0.95527312      -0.22813415
H        0.59570504      -1.61579646       0.77986389
H       -0.53440088      -1.71650929      -0.62682979
12
Frame=3 idx=002474 GeodesicLength=0.22894981674389592 rxn_smarts="[N:1]([C:2]1([C:5]#[N:6])[C:3]([H:9])([H:10])[C:4]1([H:11])[H:12])([H:7])[H:8]>>[N:1]([C@:2]1([C+:5]=[N:6][H:11])[C:3]([H:9])([H:10])[C-:4]1[H:12])([H:7])[H:8]"
N        0.32753325       1.31895592       0.85944593
C        0.15704275       0.32537641      -0.13840723
C       -1.26425229       0.19514962      -0.69745888
C       -0.69941812      -0.91850853       0.11127356
C        1.31171486      -0.46157926      -0.43486822
N        1.84626497      -1.38660610       0.09857655
H        1.00021691       1.05629281       1.56594762
H        0.57590153       2.21422985       0.46430158
H       -1.41077259       0.05612536      -1.76341548
H       -1.88752184       0.95633363      -0.24393419
H        0.60301654      -1.62767979       0.77835727
H       -0.55972597      -1.72808992      -0.59981853
12
Frame=4 idx=002474 GeodesicLength=0.30533755647933947 rxn_smarts="[N:1]([C:2]1([C:5]#[N:6])[C:3]([H:9])([H:10])[C:4]1([H:11])[H:12])([H:7])[H:8]>>[N:1]([C@:2]1([C+:5]=[N:6][H:11])[C:3]([H:9])([H:10])[C-:4]1[H:12])([H:7])[H:8]"
N        0.32425572       1.32591915       0.86293097
C        0.15398738       0.32599440      -0.12863813
C       -1.26186004       0.19109065      -0.70033754
C       -0.70761700      -0.91450518       0.12474860
C        1.30937334      -0.44760125      -0.45009089
N        1.85931446      -1.37483909       0.06304418
H        0.97386767       1.05642076       1.58808315
H        0.60298179       2.21058020       0.46401118
H       -1.39074965       0.04871305      -1.76834812
H       -1.88847221       0.95726273      -0.26005330
H        0.61002061      -1.63977060       0.77678787
H       -0.58510207      -1.73926482      -0.57213797
12
Frame=5 idx=002474 GeodesicLength=0.3819458184887392 rxn_smarts="[N:1]([C:2]1([C:5]#[N:6])[C:3]([H:9])([H:10])[C:4]1([H:11])[H:12])([H:7])[H:8]>>[N:1]([C@:2]1([C+:5]=[N:6][H:11])[C:3]([H:9])([H:10])[C-:4]1[H:12])([H:7])[H:8]"
N        0.32114821       1.33287193       0.86630947
C        0.15126204       0.32660674      -0.11901145
C       -1.25914531       0.18693779      -0.70330683
C       -0.71577204      -0.91036349       0.13816502
C        1.30708237      -0.43329991      -0.46528009
N        1.87185452      -1.36284623       0.02677907
H        0.94701985       1.05714062       1.60971879
H        0.63011579       2.20634888       0.46473769
H       -1.37069384       0.04075023      -1.77296987
H       -1.88901919       0.95806443      -0.27652239
H        0.61671952      -1.65216524       0.77517034
H       -0.61057193      -1.75004575      -0.54378976
12
Frame=6 idx=002474 GeodesicLength=0.45820063876398076 rxn_smarts="[N:1]([C:2]1([C:5]#[N:6])[C:3]([H:9])([H:10])[C:4]1([H:11])[H:12])([H:7])[H:8]>>[N:1]([C@:2]1([C+:5]=[N:6][H:11])[C:3]([H:9])([H:10])[C-:4]1[H:12])([H:7])[H:8]"
N        0.31822417       1.33974408       0.86956343
C        0.14885413       0.32714972      -0.10953150
C       -1.25595734       0.18262696      -0.70630095
C       -0.72378067      -0.90596075       0.15151620
C        1.30468487      -0.41866740      -0.48046307
N        1.88365134      -1.35046808      -0.01029985
H        0.91950226       1.05854886       1.63083471
H        0.65730828       2.20122183       0.46648306
H       -1.35051996       0.03209514      -1.77721327
H       -1.88889156       0.95862404      -0.29322345
H        0.62302593      -1.66468022       0.77344623
H       -0.63610145      -1.76023418      -0.51481155
12
Frame=7 idx=002474 GeodesicLength=0.5346849592824003 rxn_smarts="[N:1]([C:2]1([C:5]#[N:6])[C:3]([H:9])([H:10])[C:4]1([H:11])[H:12])([H:7])[H:8]>>[N:1]([C@:2]1([C+:5]=[N:6][H:11])[C:3]([H:9])([H:10])[C-:4]1[H:12])([H:7])[H:8]"
N        0.31546061       1.34658961       0.87269173
C        0.14681886       0.32766540      -0.10020849
C       -1.25242656       0.17821072      -0.70935388
C       -0.73172556      -0.90141536       0.16482635
C        1.30240600      -0.40371197      -0.49560387
N        1.89495359      -1.33790667      -0.04820269
H        0.89144879       1.06056285       1.65143293
H        0.68443942       2.19560491       0.46926132
H       -1.33028810       0.02289536      -1.78113427
H       -1.88832548       0.95905438      -0.31026072
H        0.62899907      -1.67758548       0.77169434
H       -0.66176064      -1.76996376      -0.48514275
12
Frame=8 idx=002474 GeodesicLength=0.6112104874206113 rxn_smarts="[N:1]([C:2]1([C:5]#[N:6])[C:3]([H:9])([H:10])[C:4]1([H:11])[H:12])([H:7])[H:8]>>[N:1]([C@:2]1([C+:5]=[N:6][H:11])[C:3]([H:9])([H:10])[C-:4]1[H:12])([H:7])[H:8]"
N        0.31288169       1.35340283       0.87565646
C        0.14515698       0.32811105      -0.09105002
C       -1.24851099       0.17365978      -0.71242677
C       -0.73955884      -0.89669391       0.17806814
C        1.30021893      -0.38840740      -0.51069432
N        1.90570590      -1.32502144      -0.08693095
H        0.86266872       1.06331036       1.67154270
H        0.71166532       2.18924801       0.47304294
H       -1.31004632       0.01310014      -1.78470897
H       -1.88723694       0.95927924      -0.32752359
H        0.63457920      -1.69085208       0.76987466
H       -0.68752364      -1.77913657      -0.45485027
12
Frame=9 idx=002474 GeodesicLength=0.6877671472872537 rxn_smarts="[N:1]([C:2]1([C:5]#[N:6])[C:3]([H:9])([H:10])[C:4]1([H:11])[H:12])([H:7])[H:8]>>[N:1]([C@:2]1([C+:5]=[N:6][H:11])[C:3]([H:9])([H:10])[C-:4]1[H:12])([H:7])[H:8]"
N        0.31048589       1.36017202       0.87847434
C        0.14388916       0.32849089      -0.08204653
C       -1.24419013       0.16896147      -0.71551939
C       -0.74726717      -0.89180339       0.19127625
C        1.29813049      -0.37274709      -0.52573076
N        1.91589039      -1.31187458      -0.12658465
H        0.83322020       1.06673329       1.69112668
H        0.73882987       2.18233858       0.47788579
H       -1.28974612       0.00270403      -1.78794341
H       -1.88557757       0.95931079      -0.34508193
H        0.63978160      -1.70454566       0.76801306
H       -0.71344661      -1.78774034      -0.42386946
12
Frame=10 idx=002474 GeodesicLength=0.7643581671130288 rxn_smarts="[N:1]([C:2]1([C:5]#[N:6])[C:3]([H:9])([H:10])[C:4]1([H:11])[H:12])([H:7])[H:8]>>[N:1]([C@:2]1([C+:5]=[N:6][H:11])[C:3]([H:9])([H:10])[C-:4]1[H:12])([H:7])[H:8]"
N        0.30826644       1.36689589       0.88109830
C        0.14303259       0.32875921      -0.07320800
C       -1.23945421       0.16411391      -0.71858388
C       -0.75484452      -0.88673520       0.20442564
C        1.29619864      -0.35673793      -0.54070780
N        1.92554938      -1.29836855      -0.16715617
H        0.80292403       1.07095803       1.71015833
H        0.76605074       2.17468087       0.48375120
H       -1.26940203      -0.00828413      -1.79079645
H       -1.88335120       0.95911738      -0.36280292
H        0.64452991      -1.71868767       0.76608067
H       -0.73949978      -1.79571182      -0.39225892
12
Frame=11 idx=002474 GeodesicLength=0.8410093633768704 rxn_smarts="[N:1]([C:2]1([C:5]#[N:6])[C:3]([H:9])([H:10])[C:4]1([H:11])[H:12])([H:7])[H:8]>>[N:1]([C@:2]1([C+:5]=[N:6][H:11])[C:3]([H:9])([H:10])[C-:4]1[H:12])([H:7])[H:8]"
N        0.30626666       1.37357394       0.88353415
C        0.14260954       0.32892684      -0.06453145
C       -1.23432721       0.15908047      -0.72164671
C       -0.76228059      -0.88149677       0.21751882
C        1.29444870      -0.34035574      -0.55561353
N        1.93470121      -1.28451031      -0.20871210
H        0.77183392       1.07601519       1.72862528
H        0.79330031       2.16637542       0.49078835
H       -1.24907203      -0.01990501      -1.79329730
H       -1.88055832       0.95867460      -0.38078976
H        0.64883958      -1.73335053       0.76409457
H       -0.76576178      -1.80302811      -0.35997030
12
Frame=12 idx=002474 GeodesicLength=0.9177126109362009 rxn_smarts="[N:1]([C:2]1([C:5]#[N:6])[C:3]([H:9])([H:10])[C:4]1([H:11])[H:12])([H:7])[H:8]>>[N:1]([C@:2]1([C+:5]=[N:6][H:11])[C:3]([H:9])([H:10])[C-:4]1[H:12])([H:7])[H:8]"
N        0.30445978       1.38021714       0.88577737
C        0.14263776       0.32897582      -0.05599470
C       -1.22875751       0.15386130      -0.72465365
C       -0.76955095      -0.87608290       0.23061322
C        1.29287812      -0.32357447      -0.57047414
N        1.94330750      -1.27025174      -0.25138481
H        0.73973363       1.08186856       1.74652232
H        0.82060920       2.15740270       0.49890365
H       -1.22864504      -0.03216998      -1.79540606
H       -1.87713346       0.95799624      -0.39898382
H        0.65268811      -1.74858935       0.76203608
H       -0.79222716      -1.80965333      -0.32695547
12
Frame=13 idx=002474 GeodesicLength=0.9945069428662322 rxn_smarts="[N:1]([C:2]1([C:5]#[N:6])[C:3]([H:9])([H:10])[C:4]1([H:11])[H:12])([H:7])[H:8]>>[N:1]([C@:2]1([C+:5]=[N:6][H:11])[C:3]([H:9])([H:10])[C-:4]1[H:12])([H:7])[H:8]"
N        0.30287195       1.38682354       0.88780692
C        0.14314099       0.32888066      -0.04760518
C       -1.22276524       0.14843791      -0.72760864
C       -0.77665163      -0.87051099       0.24368440
C        1.29154333      -0.30639432      -0.58527040
N        1.95142097      -1.25553465      -0.29519171
H        0.70662780       1.08865776       1.76377992
H        0.84800404       2.14771071       0.50823310
H       -1.20819436      -0.04508965      -1.79713460
H       -1.87309940       0.95705153      -0.41738063
H        0.65602513      -1.76447475       0.75991363
H       -0.81892358      -1.81555774      -0.29322680
12
Frame=14 idx=002474 GeodesicLength=1.071374907835415 rxn_smarts="[N:1]([C:2]1([C:5]#[N:6])[C:3]([H:9])([H:10])[C:4]1([H:11])[H:12])([H:7])[H:8]>>[N:1]([C@:2]1([C+:5]=[N:6][H:11])[C:3]([H:9])([H:10])[C-:4]1[H:12])([H:7])[H:8]"
N        0.30152181       1.39337844       0.88961873
C        0.14414552       0.32861179      -0.03934840
C       -1.21633718       0.14280290      -0.73049058
C       -0.78357233      -0.86479882       0.25672836
C        1.29046974      -0.28881732      -0.59998873
N        1.95904987      -1.24030464      -0.34015953
H        0.67251592       1.09643188       1.78031634
H        0.87541906       2.13730519       0.51879268
H       -1.18770742      -0.05864313      -1.79847051
H       -1.86843763       0.95581865      -0.43594014
H        0.65879626      -1.78108543       0.75775010
H       -0.84586364      -1.82069952      -0.25880831
12
Frame=15 idx=002474 GeodesicLength=1.1482908714380589 rxn_smarts="[N:1]([C:2]1([C:5]#[N:6])[C:3]([H:9])([H:10])[C:4]1([H:11])[H:12])([H:7])[H:8]>>[N:1]([C@:2]1([C+:5]=[N:6][H:11])[C:3]([H:9])([H:10])[C-:4]1[H:12])([H:7])[H:8]"
N        0.30041149       1.39988673       0.89117208
C        0.14566295       0.32813578      -0.03121554
C       -1.20946469       0.13693714      -0.73326735
C       -0.79029734      -0.85895126       0.26974684
C        1.28965851      -0.27084377      -0.61463892
N        1.96622134      -1.22443973      -0.38633352
H        0.63725398       1.10528552       1.79604693
H        0.90296717       2.12605329       0.53064017
H       -1.16718988      -0.07283357      -1.79938799
H       -1.86313696       0.95425561      -0.45459990
H        0.66094667      -1.79846477       0.75554579
H       -0.87303324      -1.82502096      -0.22370859
12
Frame=16 idx=002474 GeodesicLength=1.225156671725063 rxn_smarts="[N:1]([C:2]1([C:5]#[N:6])[C:3]([H:9])([H:10])[C:4]1([H:11])[H:12])([H:7])[H:8]>>[N:1]([C@:2]1([C+:5]=[N:6][H:11])[C:3]([H:9])([H:10])[C-:4]1[H:12])([H:7])[H:8]"
N        0.29955307       1.40626854       0.89249177
C        0.14773586       0.32741834      -0.02318720
C       -1.20206798       0.13081828      -0.73590361
C       -0.79678494      -0.85293550       0.28277369
C        1.28911617      -0.25245935      -0.62922788
N        1.97283143      -1.20788907      -0.43386192
H        0.60086118       1.11518916       1.81085984
H        0.93042120       2.11397895       0.54380606
H       -1.14651816      -0.08769966      -1.79984656
H       -1.85707840       0.95233864      -0.47335853
H        0.66238976      -1.81662341       0.75332862
H       -0.90045918      -1.82840493      -0.18787429
