11
Frame=0 idx=003002 GeodesicLength=0.0 rxn_smarts="[C:1]([c:2]1[c:3]([H:10])[n:4]([H:11])[n:5][n:6]1)([H:7])([H:8])[H:9]>>[C:1]([C:3](=[C:2]=[N:6][N:5]=[N:4][H:11])[H:10])([H:7])([H:8])[H:9]"
C       -1.68663625       0.17177119      -0.00296968
C       -0.00176601      -0.06389371       0.04296674
C       -0.14467275       1.21560679      -0.12369027
N        2.44030574      -0.39837515      -0.00423010
N        1.79886075      -1.28202525       0.56788105
N        0.41455909      -1.20839321       0.40565000
H       -1.91846506      -0.63708303      -0.69412157
H       -2.17625198       1.07979359      -0.35115171
H       -1.99246425      -0.03247594       1.01638045
H       -0.15636846       1.73553149      -1.07070812
H        3.42289921      -0.58045675       0.21399318
11
Frame=1 idx=003002 GeodesicLength=0.07977038600657366 rxn_smarts="[C:1]([c:2]1[c:3]([H:10])[n:4]([H:11])[n:5][n:6]1)([H:7])([H:8])[H:9]>>[C:1]([C:3](=[C:2]=[N:6][N:5]=[N:4][H:11])[H:10])([H:7])([H:8])[H:9]"
C       -1.69156411       0.18272741       0.00660664
C       -0.01042332      -0.12168981      -0.03121883
C       -0.10891419       1.16817902      -0.15686745
N        2.42761790      -0.36162434       0.03354089
N        1.80076287      -1.28638177       0.56113867
N        0.42221209      -1.24844550       0.36769858
H       -1.98909254      -0.60593312      -0.68312593
H       -2.16745126       1.11242940      -0.30133081
H       -1.96231497      -0.03204177       1.03410614
H       -0.13289718       1.71151938      -1.09047849
H        3.41206472      -0.51873891       0.25993060
11
Frame=2 idx=003002 GeodesicLength=0.15967452030145313 rxn_smarts="[C:1]([c:2]1[c:3]([H:10])[n:4]([H:11])[n:5][n:6]1)([H:7])([H:8])[H:9]>>[C:1]([C:3](=[C:2]=[N:6][N:5]=[N:4][H:11])[H:10])([H:7])([H:8])[H:9]"
C       -1.69406218       0.19250538       0.01417107
C       -0.02038367      -0.17505223      -0.09094387
C       -0.07586283       1.12187412      -0.18462539
N        2.40946221      -0.32862384       0.06230765
N        1.80218681      -1.28818001       0.55606622
N        0.42988709      -1.28408221       0.33924958
H       -2.04893085      -0.57336722      -0.67450174
H       -2.15427115       1.14146574      -0.25694763
H       -1.93857928      -0.03449494       1.04601249
H       -0.10533596       1.68550203      -1.10601332
H        3.39588981      -0.45754681       0.29522495
11
Frame=3 idx=003002 GeodesicLength=0.23979208941370184 rxn_smarts="[C:1]([c:2]1[c:3]([H:10])[n:4]([H:11])[n:5][n:6]1)([H:7])([H:8])[H:9]>>[C:1]([C:3](=[C:2]=[N:6][N:5]=[N:4][H:11])[H:10])([H:7])([H:8])[H:9]"
C       -1.69505269       0.20160476       0.02044441
C       -0.03078529      -0.22444179      -0.13880546
C       -0.04538313       1.07703297      -0.20837253
N        2.38849029      -0.29915998       0.08353348
N        1.80358807      -1.28848486       0.55181754
N        0.43794844      -1.31666168       0.31671755
H       -2.10046724      -0.53922447      -0.66809884
H       -2.13850059       1.16778551      -0.21604411
H       -1.92032612      -0.03913244       1.05397626
H       -0.07560563       1.65758387      -1.11922841
H        3.37609391      -0.39690190       0.32406012
11
Frame=4 idx=003002 GeodesicLength=0.3200726779887804 rxn_smarts="[C:1]([c:2]1[c:3]([H:10])[n:4]([H:11])[n:5][n:6]1)([H:7])([H:8])[H:9]>>[C:1]([C:3](=[C:2]=[N:6][N:5]=[N:4][H:11])[H:10])([H:7])([H:8])[H:9]"
C       -1.69491785       0.21034743       0.02604722
C       -0.04119198      -0.27056397      -0.17807326
C       -0.01715205       1.03359375      -0.22968051
N        2.36618607      -0.27270529       0.09911791
N        1.80505989      -1.28795970       0.54774957
N        0.44662163      -1.34718604       0.29702368
H       -2.14587175      -0.50354449      -0.66300362
H       -2.12099033       1.19197328      -0.17698851
H       -1.90591400      -0.04532182       1.05943977
H       -0.04523954       1.62812534      -1.13161075
H        3.35340991      -0.33675849       0.34997851
11
Frame=5 idx=003002 GeodesicLength=0.40043059424437966 rxn_smarts="[C:1]([c:2]1[c:3]([H:10])[n:4]([H:11])[n:5][n:6]1)([H:7])([H:8])[H:9]>>[C:1]([C:3](=[C:2]=[N:6][N:5]=[N:4][H:11])[H:10])([H:7])([H:8])[H:9]"
C       -1.69389043       0.21887854       0.03124655
C       -0.05141512      -0.31400249      -0.21074601
C        0.00906420       0.99144426      -0.24920277
N        2.34351436      -0.24912709       0.10950747
N        1.80660823      -1.28670201       0.54410412
N        0.45599974      -1.37621170       0.27902316
H       -2.18625314      -0.46629792      -0.65897218
H       -2.10216972       1.21437234      -0.13895665
H       -1.89454237      -0.05276069       1.06305572
H       -0.01505561       1.59744760      -1.14364941
H        3.32813987      -0.27704085       0.37459000
11
Frame=6 idx=003002 GeodesicLength=0.48095196906626436 rxn_smarts="[C:1]([c:2]1[c:3]([H:10])[n:4]([H:11])[n:5][n:6]1)([H:7])([H:8])[H:9]>>[C:1]([C:3](=[C:2]=[N:6][N:5]=[N:4][H:11])[H:10])([H:7])([H:8])[H:9]"
C       -1.69211345       0.22721269       0.03611160
C       -0.06129004      -0.35509237      -0.23854688
C        0.03340734       0.95059582      -0.26767659
N        2.32063651      -0.22716120       0.11764863
N        1.80807878      -1.28459436       0.54145784
N        0.46626366      -1.40395454       0.26159811
H       -2.22253191      -0.42768594      -0.65567892
H       -2.08240887       1.23508463      -0.10130881
H       -1.88548914      -0.06138801       1.06515659
H        0.01435819       1.56600299      -1.15588857
H        3.30108892      -0.21901973       0.39712701
11
Frame=7 idx=003002 GeodesicLength=0.5615420094260954 rxn_smarts="[C:1]([c:2]1[c:3]([H:10])[n:4]([H:11])[n:5][n:6]1)([H:7])([H:8])[H:9]>>[C:1]([C:3](=[C:2]=[N:6][N:5]=[N:4][H:11])[H:10])([H:7])([H:8])[H:9]"
C       -1.68961449       0.23548577       0.04088654
C       -0.07080695      -0.39430479      -0.26242396
C        0.05618133       0.91079827      -0.28545599
N        2.29807636      -0.20733462       0.12242811
N        1.80954331      -1.28203961       0.53919152
N        0.47737312      -1.43074144       0.24441903
H       -2.25523640      -0.38765339      -0.65272890
H       -2.06168795       1.25431948      -0.06371595
H       -1.87826813      -0.07080595       1.06615357
H        0.04279688       1.53377503      -1.16857297
H        3.27164291      -0.16149874       0.41981900
11
Frame=8 idx=003002 GeodesicLength=0.6422263200773637 rxn_smarts="[C:1]([c:2]1[c:3]([H:10])[n:4]([H:11])[n:5][n:6]1)([H:7])([H:8])[H:9]>>[C:1]([C:3](=[C:2]=[N:6][N:5]=[N:4][H:11])[H:10])([H:7])([H:8])[H:9]"
C       -1.68672407       0.24354869       0.04517421
C       -0.07985675      -0.43165038      -0.28267115
C        0.07732143       0.87227387      -0.30208708
N        2.27564885      -0.18838282       0.12654002
N        1.81080597      -1.27838158       0.53885795
N        0.48944883      -1.45627498       0.22792944
H       -2.28455126      -0.34657014      -0.65070818
H       -2.04056625       1.27189055      -0.02646002
H       -1.87341898      -0.08126906       1.06557554
H        0.07025442       1.50144901      -1.18098305
H        3.24163780      -0.10663317       0.43883232
11
Frame=9 idx=003002 GeodesicLength=0.7229140075060422 rxn_smarts="[C:1]([c:2]1[c:3]([H:10])[n:4]([H:11])[n:5][n:6]1)([H:7])([H:8])[H:9]>>[C:1]([C:3](=[C:2]=[N:6][N:5]=[N:4][H:11])[H:10])([H:7])([H:8])[H:9]"
C       -1.68330564       0.25159901       0.04938438
C       -0.08848365      -0.46759106      -0.29996598
C        0.09718511       0.83463074      -0.31810183
N        2.25389487      -0.17128705       0.12784582
N        1.81197597      -1.27422977       0.53925187
N        0.50244470      -1.48095856       0.21159801
H       -2.31080901      -0.30419124      -0.64899613
H       -2.01877901       1.28804867       0.01090862
H       -1.87025751      -0.09225139       1.06396163
H        0.09659655       1.46860479      -1.19366390
H        3.20953760      -0.05237414       0.45777751
11
Frame=10 idx=003002 GeodesicLength=0.8036647577513095 rxn_smarts="[C:1]([c:2]1[c:3]([H:10])[n:4]([H:11])[n:5][n:6]1)([H:7])([H:8])[H:9]>>[C:1]([C:3](=[C:2]=[N:6][N:5]=[N:4][H:11])[H:10])([H:7])([H:8])[H:9]"
C       -1.67959355       0.25952951       0.05325912
C       -0.09664259      -0.50213283      -0.31461806
C        0.11571249       0.79804428      -0.33337904
N        2.23235661      -0.15473280       0.12916595
N        1.81286408      -1.26925751       0.54119077
N        0.51641789      -1.50460453       0.19549649
H       -2.33427992      -0.26084081      -0.64784552
H       -1.99675545       1.30265105       0.04826863
H       -1.86905058      -0.10391934       1.06102071
H        0.12182033       1.43572045      -1.20633822
H        3.17715068      -0.00045748       0.47377915
11
Frame=11 idx=003002 GeodesicLength=0.8844487948097728 rxn_smarts="[C:1]([c:2]1[c:3]([H:10])[n:4]([H:11])[n:5][n:6]1)([H:7])([H:8])[H:9]>>[C:1]([C:3](=[C:2]=[N:6][N:5]=[N:4][H:11])[H:10])([H:7])([H:8])[H:9]"
C       -1.67547919       0.26747070       0.05706717
C       -0.10438607      -0.53558094      -0.32705321
C        0.13313498       0.76225376      -0.34832418
N        2.21124654      -0.13911593       0.12959682
N        1.81357582      -1.26391073       0.54375020
N        0.53135287      -1.52745486       0.17920974
H       -2.35519330      -0.21646709      -0.64671612
H       -1.97432466       1.31584309       0.08575589
H       -1.86930362      -0.11583914       1.05713260
H        0.14586987       1.40252926      -1.21942733
H        3.14350677       0.05027189       0.48900843
11
Frame=12 idx=003002 GeodesicLength=0.965279400060013 rxn_smarts="[C:1]([c:2]1[c:3]([H:10])[n:4]([H:11])[n:5][n:6]1)([H:7])([H:8])[H:9]>>[C:1]([C:3](=[C:2]=[N:6][N:5]=[N:4][H:11])[H:10])([H:7])([H:8])[H:9]"
C       -1.67104537       0.27541625       0.06075057
C       -0.11171622      -0.56804090      -0.33743075
C        0.14947995       0.72722877      -0.36295784
N        2.19035272      -0.12397955       0.13003413
N        1.81410468      -1.25816617       0.54696479
N        0.54728328      -1.54944638       0.16276417
H       -2.37370284      -0.17112922      -0.64562924
H       -1.95162990       1.32759927       0.12340225
H       -1.87106744      -0.12798450       1.05219476
H        0.16875091       1.36909307      -1.23289443
H        3.10919023       0.09940937       0.50280159
11
Frame=13 idx=003002 GeodesicLength=1.0461454639789893 rxn_smarts="[C:1]([c:2]1[c:3]([H:10])[n:4]([H:11])[n:5][n:6]1)([H:7])([H:8])[H:9]>>[C:1]([C:3](=[C:2]=[N:6][N:5]=[N:4][H:11])[H:10])([H:7])([H:8])[H:9]"
C       -1.66623176       0.28343797       0.06445227
C       -0.11866117      -0.59970792      -0.34590402
C        0.16489330       0.69280172      -0.37743851
N        2.16981647      -0.10953294       0.12991749
N        1.81452832      -1.25222154       0.55039677
N        0.56421533      -1.57068377       0.14599770
H       -2.38986697      -0.12477959      -0.64435832
H       -1.92857973       1.33799742       0.16126309
H       -1.87414274      -0.14011561       1.04637663
H        0.19046673       1.33523253      -1.24692087
H        3.07356224       0.14757174       0.51621778
11
Frame=14 idx=003002 GeodesicLength=1.1270532500204038 rxn_smarts="[C:1]([c:2]1[c:3]([H:10])[n:4]([H:11])[n:5][n:6]1)([H:7])([H:8])[H:9]>>[C:1]([C:3](=[C:2]=[N:6][N:5]=[N:4][H:11])[H:10])([H:7])([H:8])[H:9]"
C       -1.66114748       0.29151750       0.06807573
C       -0.12522214      -0.63063660      -0.35248980
C        0.17937121       0.65897299      -0.39167048
N        2.14938879      -0.09533252       0.13008171
N        1.81490758      -1.24607413       0.55400682
N        0.58215424      -1.59105785       0.12903233
H       -2.40380265      -0.07753922      -0.64296402
H       -1.90538694       1.34698739       0.19924497
H       -1.87866179      -0.15217468       1.03954227
H        0.21106349       1.30104504      -1.26134462
H        3.03733569       0.19429207       0.52848508
11
Frame=15 idx=003002 GeodesicLength=1.2080053691993102 rxn_smarts="[C:1]([c:2]1[c:3]([H:10])[n:4]([H:11])[n:5][n:6]1)([H:7])([H:8])[H:9]>>[C:1]([C:3](=[C:2]=[N:6][N:5]=[N:4][H:11])[H:10])([H:7])([H:8])[H:9]"
C       -1.65573089       0.29971760       0.07173103
C       -0.13141860      -0.66097758      -0.35726037
C        0.19301796       0.62559975      -0.40579523
N        2.12911381      -0.08146547       0.13021602
N        1.81538127      -1.23992324       0.55732553
N        0.60109172      -1.61063466       0.11172897
H       -2.41554057      -0.02940386      -0.64123598
H       -1.88199143       1.35464103       0.23734241
H       -1.88444152      -0.16391600       1.03183857
H        0.23055023       1.26634590      -1.27634583
H        2.99996801       0.24001653       0.54045487
11
Frame=16 idx=003002 GeodesicLength=1.2890065011312617 rxn_smarts="[C:1]([c:2]1[c:3]([H:10])[n:4]([H:11])[n:5][n:6]1)([H:7])([H:8])[H:9]>>[C:1]([C:3](=[C:2]=[N:6][N:5]=[N:4][H:11])[H:10])([H:7])([H:8])[H:9]"
C       -1.65002410       0.30804783       0.07538806
C       -0.13724526      -0.69079769      -0.36018023
C        0.20586316       0.59263399      -0.41974995
N        2.10887638      -0.06776608       0.13055409
N        1.81608417      -1.23383550       0.56014569
N        0.62100416      -1.62935716       0.09415910
H       -2.42512848       0.01955529      -0.63917052
H       -1.85851831       1.36095702       0.27547482
H       -1.89151874      -0.17521674       1.02321705
H        0.24897094       1.23112359      -1.29183059
H        2.96163608       0.28465545       0.55199247
