11
Frame=0 idx=003740 GeodesicLength=0.0 rxn_smarts="[C:1]([C@@:2]([N:3]([H:10])[H:11])([C:4]#[N:5])[H:9])([H:6])([H:7])[H:8]>>[C:1]([C:2]([N:3]([H:10])[H:11])=[C:4]=[N:5][H:9])([H:6])([H:7])[H:8]"
C        1.28395306      -0.08434893       0.07336396
C       -0.20617050       0.13533883       0.09747159
N       -1.05138421      -0.92950972       0.35919527
C       -0.68981439       1.48248108       0.59369753
N       -0.82424747       1.58801947      -0.65998472
H        1.79453649       0.77838960      -0.34975445
H        1.62261157      -0.21709254       1.10340259
H        1.55195008      -0.97449233      -0.49843299
H       -0.42285341       0.56257883      -1.18599795
H       -1.13752672      -1.64777407      -0.34036687
H       -1.92105449      -0.69359017       0.80740609
11
Frame=1 idx=003740 GeodesicLength=0.0982796248366502 rxn_smarts="[C:1]([C@@:2]([N:3]([H:10])[H:11])([C:4]#[N:5])[H:9])([H:6])([H:7])[H:8]>>[C:1]([C:2]([N:3]([H:10])[H:11])=[C:4]=[N:5][H:9])([H:6])([H:7])[H:8]"
C        1.28567509      -0.08733318       0.07927781
C       -0.20491852       0.13247833       0.08869725
N       -1.04350983      -0.93830533       0.36302020
C       -0.68755636       1.47497800       0.57557963
N       -0.83763667       1.61384921      -0.66833547
H        1.80089479       0.77605826      -0.33712782
H        1.61697600      -0.22364756       1.11122933
H        1.55776772      -0.97580699      -0.49320815
H       -0.43195385       0.57458388      -1.20467204
H       -1.15387377      -1.64101226      -0.34907441
H       -1.90186459      -0.70584235       0.83461367
11
Frame=2 idx=003740 GeodesicLength=0.19654695908518055 rxn_smarts="[C:1]([C@@:2]([N:3]([H:10])[H:11])([C:4]#[N:5])[H:9])([H:6])([H:7])[H:8]>>[C:1]([C:2]([N:3]([H:10])[H:11])=[C:4]=[N:5][H:9])([H:6])([H:7])[H:8]"
C        1.28744349      -0.09046049       0.08526798
C       -0.20353594       0.12922146       0.07957565
N       -1.03549561      -0.94732854       0.36655058
C       -0.68548086       1.46715954       0.55678770
N       -0.85117946       1.64048892      -0.67612143
H        1.80720002       0.77359714      -0.32436389
H        1.61117581      -0.23013466       1.11916503
H        1.56385174      -0.97726819      -0.48777225
H       -0.44140039       0.58708527      -1.22362100
H       -1.17075823      -1.63419064      -0.35686882
H       -1.88182057      -0.71816982       0.86140045
11
Frame=3 idx=003740 GeodesicLength=0.29479766602094093 rxn_smarts="[C:1]([C@@:2]([N:3]([H:10])[H:11])([C:4]#[N:5])[H:9])([H:6])([H:7])[H:8]>>[C:1]([C:2]([N:3]([H:10])[H:11])=[C:4]=[N:5][H:9])([H:6])([H:7])[H:8]"
C        1.28925109      -0.09373752       0.09133686
C       -0.20201761       0.12554956       0.07007573
N       -1.02735976      -0.95657560       0.36977698
C       -0.68357948       1.45901471       0.53726686
N       -0.86486664       1.66797249      -0.68326955
H        1.81344497       0.77099621      -0.31146209
H        1.60518509      -0.23654248       1.12721450
H        1.57020920      -0.97889007      -0.48209457
H       -0.45123382       0.60010397      -1.24286104
H       -1.18813878      -1.62734795      -0.36370646
H       -1.86089426      -0.73054332       0.88772278
11
Frame=4 idx=003740 GeodesicLength=0.3930405668380667 rxn_smarts="[C:1]([C@@:2]([N:3]([H:10])[H:11])([C:4]#[N:5])[H:9])([H:6])([H:7])[H:8]>>[C:1]([C:2]([N:3]([H:10])[H:11])=[C:4]=[N:5][H:9])([H:6])([H:7])[H:8]"
C        1.29109558      -0.09716884       0.09748627
C       -0.20035266       0.12144473       0.06017157
N       -1.01910664      -0.96604896       0.37270227
C       -0.68184304       1.45053303       0.51695591
N       -0.87868549       1.69632945      -0.68969361
H        1.81962423       0.76824673      -0.29843486
H        1.59898905      -0.24285213       1.13538072
H        1.57685360      -0.98068801      -0.47614178
H       -0.46149191       0.61365878      -1.26240925
H       -1.20597371      -1.62052004      -0.36955338
H       -1.83910901      -0.74293473       0.91353615
11
Frame=5 idx=003740 GeodesicLength=0.49128113153957553 rxn_smarts="[C:1]([C@@:2]([N:3]([H:10])[H:11])([C:4]#[N:5])[H:9])([H:6])([H:7])[H:8]>>[C:1]([C:2]([N:3]([H:10])[H:11])=[C:4]=[N:5][H:9])([H:6])([H:7])[H:8]"
C        1.29296760      -0.10076021       0.10372171
C       -0.19853288       0.11688519       0.04982696
N       -1.01075328      -0.97574139       0.37533053
C       -0.68026763       1.44170314       0.49577979
N       -0.89262217       1.72558995      -0.69528941
H        1.82572165       0.76533700      -0.28529321
H        1.59255904      -0.24903765       1.14367650
H        1.58379113      -0.98268715      -0.46987098
H       -0.47221474       0.62777054      -1.28228365
H       -1.22425234      -1.61372746      -0.37434973
H       -1.81639639      -0.75533197       0.93875148
11
Frame=6 idx=003740 GeodesicLength=0.5895208464026562 rxn_smarts="[C:1]([C@@:2]([N:3]([H:10])[H:11])([C:4]#[N:5])[H:9])([H:6])([H:7])[H:8]>>[C:1]([C:2]([N:3]([H:10])[H:11])=[C:4]=[N:5][H:9])([H:6])([H:7])[H:8]"
C        1.29486464      -0.10451771       0.11004403
C       -0.19654648       0.11184772       0.03899981
N       -1.00231026      -0.98564951       0.37765464
C       -0.67883679       1.43251339       0.47365990
N       -0.90667061       1.75576628      -0.69993630
H        1.83173557       0.76225911      -0.27204063
H        1.58586644      -0.25507974       1.15210800
H        1.59103996      -0.98490569      -0.46324373
H       -0.48345556       0.64245782      -1.30251254
H       -1.24291771      -1.60701210      -0.37805772
H       -1.79276920      -0.76767958       0.96332454
11
Frame=7 idx=003740 GeodesicLength=0.6877730514911702 rxn_smarts="[C:1]([C@@:2]([N:3]([H:10])[H:11])([C:4]#[N:5])[H:9])([H:6])([H:7])[H:8]>>[C:1]([C:2]([N:3]([H:10])[H:11])=[C:4]=[N:5][H:9])([H:6])([H:7])[H:8]"
C        1.29678635      -0.10844405       0.11645219
C       -0.19437260       0.10630748       0.02764961
N       -0.99377253      -0.99577513       0.37967488
C       -0.67752505       1.42295376       0.45050896
N       -0.92082401       1.78686079      -0.70349085
H        1.83766426       0.75900758      -0.25869267
H        1.57889344      -0.26095171       1.16067625
H        1.59861719      -0.98735729      -0.45621877
H       -0.49526008       0.65773266      -1.32312372
H       -1.26190925      -1.60041467      -0.38063916
H       -1.76829772      -0.77991943       0.98720329
11
Frame=8 idx=003740 GeodesicLength=0.7860550301155879 rxn_smarts="[C:1]([C@@:2]([N:3]([H:10])[H:11])([C:4]#[N:5])[H:9])([H:6])([H:7])[H:8]>>[C:1]([C:2]([N:3]([H:10])[H:11])=[C:4]=[N:5][H:9])([H:6])([H:7])[H:8]"
C        1.29872677      -0.11254284       0.12294916
C       -0.19199668       0.10023871       0.01572938
N       -0.98515118      -1.00611128       0.38138844
C       -0.67631610       1.41301160       0.42622445
N       -0.93506947       1.81886413      -0.70579078
H        1.84350247       0.75557545      -0.24526060
H        1.57160397      -0.26662022       1.16938919
H        1.60653688      -0.99006351      -0.44874781
H       -0.50767011       0.67361279      -1.34416262
H       -1.28118550      -1.59396151      -0.38205026
H       -1.74298105      -0.79200331       1.01033146
11
Frame=9 idx=003740 GeodesicLength=0.8841959243611472 rxn_smarts="[C:1]([C@@:2]([N:3]([H:10])[H:11])([C:4]#[N:5])[H:9])([H:6])([H:7])[H:8]>>[C:1]([C:2]([N:3]([H:10])[H:11])=[C:4]=[N:5][H:9])([H:6])([H:7])[H:8]"
C        1.30069040      -0.11680552       0.12951985
C       -0.18938492       0.09362984       0.00316343
N       -0.97640058      -1.01663065       0.38283537
C       -0.67507778       1.40262750       0.40082154
N       -0.94941449       1.85169074      -0.70665858
H        1.84927617       0.75194627      -0.23179799
H        1.56398664      -0.27204465       1.17821035
H        1.61482295      -0.99301109      -0.44077129
H       -0.52080364       0.69008719      -1.36567411
H       -1.30055615      -1.58766566      -0.38219690
H       -1.71713859      -0.80382397       1.03254835
11
Frame=10 idx=003740 GeodesicLength=0.9823940556499282 rxn_smarts="[C:1]([C@@:2]([N:3]([H:10])[H:11])([C:4]#[N:5])[H:9])([H:6])([H:7])[H:8]>>[C:1]([C:2]([N:3]([H:10])[H:11])=[C:4]=[N:5][H:9])([H:6])([H:7])[H:8]"
C        1.30265520      -0.12124411       0.13618087
C       -0.18653338       0.08645244      -0.01007495
N       -0.96757970      -1.02732481       0.38397741
C       -0.67387988       1.39185655       0.37405146
N       -0.96384132       1.88535025      -0.70586793
H        1.85495697       0.74810596      -0.21829939
H        1.55598210      -0.27718479       1.18719199
H        1.62347353      -0.99626739      -0.43222815
H       -0.53464404       0.70719249      -1.38771414
H       -1.32006313      -1.58157931      -0.38112459
H       -1.69052635      -0.81535728       1.05390742
11
Frame=11 idx=003740 GeodesicLength=1.080642976172814 rxn_smarts="[C:1]([C@@:2]([N:3]([H:10])[H:11])([C:4]#[N:5])[H:9])([H:6])([H:7])[H:8]>>[C:1]([C:2]([N:3]([H:10])[H:11])=[C:4]=[N:5][H:9])([H:6])([H:7])[H:8]"
C        1.30461345      -0.12585546       0.14292836
C       -0.18342061       0.07868399      -0.02402837
N       -0.95869278      -1.03817048       0.38482430
C       -0.67267198       1.38067903       0.34581618
N       -0.97834247       1.91976471      -0.70319814
H        1.86054137       0.74404716      -0.20479439
H        1.54755867      -0.28198670       1.19632429
H        1.63249072      -0.99984578      -0.42305761
H       -0.54921999       0.72492644      -1.41035396
H       -1.33962117      -1.57572836      -0.37882325
H       -1.66323521      -0.82651454       1.07436261
11
Frame=12 idx=003740 GeodesicLength=1.17891567419999 rxn_smarts="[C:1]([C@@:2]([N:3]([H:10])[H:11])([C:4]#[N:5])[H:9])([H:6])([H:7])[H:8]>>[C:1]([C:2]([N:3]([H:10])[H:11])=[C:4]=[N:5][H:9])([H:6])([H:7])[H:8]"
C        1.30655179      -0.13063691       0.14976153
C       -0.18002712       0.07030512      -0.03874362
N       -0.94975495      -1.04913170       0.38538063
C       -0.67140872       1.36908936       0.31599494
N       -0.99291470       1.95481833      -0.69839908
H        1.86602834       0.73975837      -0.19130990
H        1.53867619      -0.28640197       1.20560901
H        1.64187328      -1.00376514      -0.41319474
H       -0.56456970       0.74328311      -1.43367254
H       -1.35914235      -1.57012153      -0.37528778
H       -1.63531204      -0.83719704       1.09386155
11
Frame=13 idx=003740 GeodesicLength=1.2771552631099228 rxn_smarts="[C:1]([C@@:2]([N:3]([H:10])[H:11])([C:4]#[N:5])[H:9])([H:6])([H:7])[H:8]>>[C:1]([C:2]([N:3]([H:10])[H:11])=[C:4]=[N:5][H:9])([H:6])([H:7])[H:8]"
C        1.30845395      -0.13557428       0.15667458
C       -0.17632608       0.06130599      -0.05426370
N       -0.94077527      -1.06017340       0.38565490
C       -0.67003233       1.35708767       0.28446226
N       -1.00752638       1.99035348      -0.69119840
H        1.87141290       0.73523724      -0.17787741
H        1.52929413      -0.29036205       1.21503368
H        1.65160823      -1.00804099      -0.40257904
H       -0.58071185       0.76225694      -1.45775925
H       -1.37854289      -1.56477351      -0.37052483
H       -1.60685440      -0.84731708       1.11237722
11
Frame=14 idx=003740 GeodesicLength=1.3753367549852236 rxn_smarts="[C:1]([C@@:2]([N:3]([H:10])[H:11])([C:4]#[N:5])[H:9])([H:6])([H:7])[H:8]>>[C:1]([C:2]([N:3]([H:10])[H:11])=[C:4]=[N:5][H:9])([H:6])([H:7])[H:8]"
C        1.31030637      -0.14065890       0.16366433
C       -0.17229105       0.05166637      -0.07064013
N       -0.93177466      -1.07122985       0.38565226
C       -0.66847884       1.34466705       0.25105100
N       -1.02218354       2.02613740      -0.68123232
H        1.87670408       0.73046539      -0.16453676
H        1.51936545      -0.29379354       1.22458756
H        1.66168851      -1.01268670      -0.39112074
H       -0.59767747       0.78183096      -1.48271832
H       -1.39773384      -1.55967208      -0.36454832
H       -1.57792501      -0.85672610       1.12984145
11
Frame=15 idx=003740 GeodesicLength=1.473426026408854 rxn_smarts="[C:1]([C@@:2]([N:3]([H:10])[H:11])([C:4]#[N:5])[H:9])([H:6])([H:7])[H:8]>>[C:1]([C:2]([N:3]([H:10])[H:11])=[C:4]=[N:5][H:9])([H:6])([H:7])[H:8]"
C        1.31209183      -0.14587079       0.17072370
C       -0.16789196       0.04138597      -0.08792045
N       -0.92276581      -1.08223699       0.38538832
C       -0.66667643       1.33184001       0.21557305
N       -1.03685099       2.06188870      -0.66810589
H        1.88190587       0.72542932      -0.15134174
H        1.50885047      -0.29660077       1.23425847
H        1.67209069      -1.01772202      -0.37873160
H       -0.61549036       0.80200238      -1.50867209
H       -1.41662218      -1.55481333      -0.35737914
H       -1.54864113      -0.86530248       1.14620737
11
Frame=16 idx=003740 GeodesicLength=1.5714825820038996 rxn_smarts="[C:1]([C@@:2]([N:3]([H:10])[H:11])([C:4]#[N:5])[H:9])([H:6])([H:7])[H:8]>>[C:1]([C:2]([N:3]([H:10])[H:11])=[C:4]=[N:5][H:9])([H:6])([H:7])[H:8]"
C        1.31379675      -0.15119878       0.17784778
C       -0.16309932       0.03047150      -0.10615742
N       -0.91376413      -1.09312355       0.38489333
C       -0.66455650       1.31864173       0.17779460
N       -1.05151986       2.09728856      -0.65135223
H        1.88702811       0.72011241      -0.13836967
H        1.49770015      -0.29868283       1.24407016
H        1.68280720      -1.02320815      -0.36531288
H       -0.63418431       0.82278869      -1.53579097
H       -1.43509893      -1.55018902      -0.34905652
H       -1.51910914      -0.87290056       1.16143381
