17
Frame=0 idx=009656 GeodesicLength=0.0 rxn_smarts="[C:1]([C@@:2]12[C:3]([H:11])([H:12])[C@@:4]([H:13])([C:5]([H:14])([H:15])[C:6]1([H:16])[H:17])[O:7]2)([H:8])([H:9])[H:10]>>[C:1]([C@:2]1([C:6]([C:5][H:14])([H:16])[H:17])[C:3]([H:11])([H:12])[C:4]([H:13])([H:15])[O:7]1)([H:8])([H:9])[H:10]"
C        1.89360471       0.39393700       0.21450750
C        0.44533891       0.10241833      -0.06869994
C       -0.18783583      -1.24165230       0.32627107
C       -0.86130863      -1.05746186      -1.02698644
C       -1.93724296       0.98716199       0.08096942
C       -0.49460933       1.29741661       0.28174882
O        0.19944819      -0.22260504      -1.45309484
H        2.20661889       1.30328145      -0.30134481
H        2.51993030      -0.43031287      -0.12705515
H        2.04877418       0.53367032       1.28580694
H       -0.78609050      -1.31460368       1.23109685
H        0.55579527      -2.03721032       0.28683415
H       -1.07633134      -1.88941114      -1.69625319
H       -2.23125623       0.31870714       0.91203935
H       -1.80424696      -0.42149460      -0.95065936
H       -0.16625553       2.13743552      -0.33514369
H       -0.32433314       1.54072352       1.33996337
17
Frame=1 idx=009656 GeodesicLength=0.07131254414125948 rxn_smarts="[C:1]([C@@:2]12[C:3]([H:11])([H:12])[C@@:4]([H:13])([C:5]([H:14])([H:15])[C:6]1([H:16])[H:17])[O:7]2)([H:8])([H:9])[H:10]>>[C:1]([C@:2]1([C:6]([C:5][H:14])([H:16])[H:17])[C:3]([H:11])([H:12])[C:4]([H:13])([H:15])[O:7]1)([H:8])([H:9])[H:10]"
C        1.89784857       0.39290290       0.21001406
C        0.44805528       0.10409383      -0.06691512
C       -0.18456989      -1.23946169       0.33037273
C       -0.86489816      -1.05368289      -1.01961953
C       -1.92991739       0.97692810       0.07060889
C       -0.49142190       1.29652265       0.28578747
O        0.19576791      -0.21882990      -1.45135152
H        2.21093577       1.30038425      -0.30913172
H        2.52116667      -0.43348316      -0.13203051
H        2.05710373       0.53512121       1.28045165
H       -0.78089138      -1.30943140       1.23689137
H        0.55686276      -2.03705721       0.29356195
H       -1.07065554      -1.89165899      -1.68478563
H       -2.24111692       0.31468479       0.89936021
H       -1.82573753      -0.41391262      -0.97245541
H       -0.16180266       2.14461797      -0.31904804
H       -0.33672932       1.53226214       1.34828914
17
Frame=2 idx=009656 GeodesicLength=0.14260756650456638 rxn_smarts="[C:1]([C@@:2]12[C:3]([H:11])([H:12])[C@@:4]([H:13])([C:5]([H:14])([H:15])[C:6]1([H:16])[H:17])[O:7]2)([H:8])([H:9])[H:10]>>[C:1]([C@:2]1([C:6]([C:5][H:14])([H:16])[H:17])[C:3]([H:11])([H:12])[C:4]([H:13])([H:15])[O:7]1)([H:8])([H:9])[H:10]"
C        1.90212321       0.39192268       0.20554533
C        0.45086011       0.10570011      -0.06505103
C       -0.18111701      -1.23740054       0.33455624
C       -0.86866072      -1.04978427      -1.01199939
C       -1.92248978       0.96656140       0.06030995
C       -0.48829290       1.29549119       0.28987175
O        0.19222595      -0.21535135      -1.44947618
H        2.21514261       1.29754158      -0.31695105
H        2.52249984      -0.43656829      -0.13689528
H        2.06545763       0.53671604       1.27508855
H       -0.77545948      -1.30432992       1.24279137
H        0.55808007      -2.03703341       0.30020097
H       -1.06572984      -1.89347207      -1.67307626
H       -2.25094313       0.31063187       0.88640071
H       -1.84681173      -0.40584348      -0.99476047
H       -0.15760180       2.15148340      -0.30291558
H       -0.34928305       1.52373507       1.35636036
17
Frame=3 idx=009656 GeodesicLength=0.21388910759991325 rxn_smarts="[C:1]([C@@:2]12[C:3]([H:11])([H:12])[C@@:4]([H:13])([C:5]([H:14])([H:15])[C:6]1([H:16])[H:17])[O:7]2)([H:8])([H:9])[H:10]>>[C:1]([C@:2]1([C:6]([C:5][H:14])([H:16])[H:17])[C:3]([H:11])([H:12])[C:4]([H:13])([H:15])[O:7]1)([H:8])([H:9])[H:10]"
C        1.90642094       0.39099559       0.20110102
C        0.45374528       0.10723701      -0.06311282
C       -0.17748336      -1.23547030       0.33881161
C       -0.87257139      -1.04578768      -1.00414597
C       -1.91496852       0.95607255       0.05007698
C       -0.48522708       1.29432342       0.29399576
O        0.18882119      -0.21216180      -1.44747792
H        2.21923399       1.29475480      -0.32479671
H        2.52392449      -0.43956700      -0.14165277
H        2.07382652       0.53844798       1.26971777
H       -0.76980453      -1.29930319       1.24878327
H        0.55944772      -2.03713674       0.30675689
H       -1.06154804      -1.89487994      -1.66115717
H       -2.26072837       0.30657166       0.87317178
H       -1.86744084      -0.39727768      -1.01748751
H       -0.15365623       2.15803633      -0.28675630
H       -0.36199178       1.51514499       1.36417209
17
Frame=4 idx=009656 GeodesicLength=0.28516188157645594 rxn_smarts="[C:1]([C@@:2]12[C:3]([H:11])([H:12])[C@@:4]([H:13])([C:5]([H:14])([H:15])[C:6]1([H:16])[H:17])[O:7]2)([H:8])([H:9])[H:10]>>[C:1]([C@:2]1([C:6]([C:5][H:14])([H:16])[H:17])[C:3]([H:11])([H:12])[C:4]([H:13])([H:15])[O:7]1)([H:8])([H:9])[H:10]"
C        1.91073397       0.39012009       0.19668053
C        0.45670228       0.10870494      -0.06110648
C       -0.17367706      -1.23367102       0.34312831
C       -0.87660179      -1.04171691      -0.99608229
C       -1.90736256       0.94547379       0.03991645
C       -0.48222868       1.29302121       0.29815339
O        0.18555184      -0.20925083      -1.44536712
H        2.22320576       1.29202455      -0.33266242
H        2.52543448      -0.44247923      -0.14630709
H        2.08220108       0.54030893       1.26433924
H       -0.76394046      -1.29435424       1.25485147
H        0.56096454      -2.03736317       0.31323854
H       -1.05809192      -1.89591592      -1.64906372
H       -2.27046522       0.30252819       0.85968638
H       -1.88760688      -0.38820883      -1.04054435
H       -0.14996845       2.16428219      -0.27057809
H       -0.37485092       1.50649626       1.37171723
17
Frame=5 idx=009656 GeodesicLength=0.35641700168117496 rxn_smarts="[C:1]([C@@:2]12[C:3]([H:11])([H:12])[C@@:4]([H:13])([C:5]([H:14])([H:15])[C:6]1([H:16])[H:17])[O:7]2)([H:8])([H:9])[H:10]>>[C:1]([C@:2]1([C:6]([C:5][H:14])([H:16])[H:17])[C:3]([H:11])([H:12])[C:4]([H:13])([H:15])[O:7]1)([H:8])([H:9])[H:10]"
C        1.91505478       0.38929434       0.19228296
C        0.45972280       0.11010481      -0.05903836
C       -0.16970792      -1.23200124       0.34749559
C       -0.88072201      -1.03759583      -0.98783232
C       -1.89968000       0.93477903       0.02983444
C       -0.47930089       1.29158724       0.30233819
O        0.18241547      -0.20660589      -1.44315458
H        2.22705423       1.28935127      -0.34054151
H        2.52702297      -0.44530546      -0.15086319
H        2.09057201       0.54228928       1.25895284
H       -0.75788360      -1.28948466       1.26097987
H        0.56262790      -2.03770737       0.31965652
H       -1.05533521      -1.89661384      -1.63683257
H       -2.28014679       0.29852434       0.84595770
H       -1.90730017      -0.37863633      -1.06383663
H       -0.14653971       2.17022710      -0.25439054
H       -0.38785386       1.49779319       1.37899158
17
Frame=6 idx=009656 GeodesicLength=0.4276756849666081 rxn_smarts="[C:1]([C@@:2]12[C:3]([H:11])([H:12])[C@@:4]([H:13])([C:5]([H:14])([H:15])[C:6]1([H:16])[H:17])[O:7]2)([H:8])([H:9])[H:10]>>[C:1]([C@:2]1([C:6]([C:5][H:14])([H:16])[H:17])[C:3]([H:11])([H:12])[C:4]([H:13])([H:15])[O:7]1)([H:8])([H:9])[H:10]"
C        1.91937623       0.38851628       0.18790665
C        0.46279847       0.11143733      -0.05691522
C       -0.16558561      -1.23045886       0.35190479
C       -0.88489811      -1.03345372      -0.97942116
C       -1.89192907       0.92400222       0.01984164
C       -0.47644640       1.29002379       0.30654433
O        0.17940873      -0.20421337      -1.44085160
H        2.23077662       1.28673480      -0.34842893
H        2.52868362      -0.44804674      -0.15532691
H        2.09893117       0.54437995       1.25355755
H       -0.75165336      -1.28469630       1.26715217
H        0.56443602      -2.03816213       0.32602741
H       -1.05324254      -1.89701116      -1.62450002
H       -2.28976598       0.29458121       0.83199689
H       -1.92652707      -0.36855027      -1.08727716
H       -0.14336984       2.17587787      -0.23820026
H       -0.40099290       1.48903911       1.38598984
17
Frame=7 idx=009656 GeodesicLength=0.4989355220819488 rxn_smarts="[C:1]([C@@:2]12[C:3]([H:11])([H:12])[C@@:4]([H:13])([C:5]([H:14])([H:15])[C:6]1([H:16])[H:17])[O:7]2)([H:8])([H:9])[H:10]>>[C:1]([C@:2]1([C:6]([C:5][H:14])([H:16])[H:17])[C:3]([H:11])([H:12])[C:4]([H:13])([H:15])[O:7]1)([H:8])([H:9])[H:10]"
C        1.92369167       0.38778319       0.18355010
C        0.46592151       0.11270353      -0.05474329
C       -0.16132091      -1.22904095       0.35634728
C       -0.88909782      -1.02931707      -0.97087265
C       -1.88411814       0.91315686       0.00994540
C       -0.47366732       1.28833321       0.31076726
O        0.17652797      -0.20205843      -1.43846880
H        2.23437088       1.28417483      -0.35631871
H        2.53040923      -0.45070478      -0.15970454
H        2.10727090       0.54657040       1.24815274
H       -0.74526971      -1.27999013       1.27335284
H        0.56638587      -2.03872003       0.33236715
H       -1.05177239      -1.89714402      -1.61210189
H       -2.29931439       0.29071759       0.81781830
H       -1.94530044      -0.35794587      -1.11078314
H       -0.14045858       2.18123992      -0.22201329
H       -0.41425833       1.48024176       1.39270525
17
Frame=8 idx=009656 GeodesicLength=0.5701973282416771 rxn_smarts="[C:1]([C@@:2]12[C:3]([H:11])([H:12])[C@@:4]([H:13])([C:5]([H:14])([H:15])[C:6]1([H:16])[H:17])[O:7]2)([H:8])([H:9])[H:10]>>[C:1]([C@:2]1([C:6]([C:5][H:14])([H:16])[H:17])[C:3]([H:11])([H:12])[C:4]([H:13])([H:15])[O:7]1)([H:8])([H:9])[H:10]"
C        1.92799523       0.38709297       0.17921130
C        0.46908477       0.11390439      -0.05252893
C       -0.15692345      -1.22774404       0.36081699
C       -0.89328971      -1.02521338      -0.96220868
C       -1.87625485       0.90225533       0.00015381
C       -0.47096478       1.28651828       0.31500081
O        0.17376905      -0.20012781      -1.43601652
H        2.23783564       1.28167029      -0.36420748
H        2.53219364      -0.45328151      -0.16400195
H        2.11558462       0.54885280       1.24273699
H       -0.73875165      -1.27536602       1.27956890
H        0.56847501      -2.03937286       0.33869434
H       -1.05088264      -1.89704808      -1.59967019
H       -2.30878433       0.28694863       0.80343105
H       -1.96364037      -0.34681099      -1.13428150
H       -0.13780412       2.18632051      -0.20583576
H       -0.42764208       1.47140149       1.39913681
17
Frame=9 idx=009656 GeodesicLength=0.6414309193008461 rxn_smarts="[C:1]([C@@:2]12[C:3]([H:11])([H:12])[C@@:4]([H:13])([C:5]([H:14])([H:15])[C:6]1([H:16])[H:17])[O:7]2)([H:8])([H:9])[H:10]>>[C:1]([C@:2]1([C:6]([C:5][H:14])([H:16])[H:17])[C:3]([H:11])([H:12])[C:4]([H:13])([H:15])[O:7]1)([H:8])([H:9])[H:10]"
C        1.93228194       0.38644360       0.17488883
C        0.47228259       0.11504063      -0.05027717
C       -0.15240192      -1.22656508       0.36530862
C       -0.89744611      -1.02116575      -0.95344664
C       -1.86834655       0.89130402      -0.00952790
C       -0.46833964       1.28458066       0.31924103
O        0.17112877      -0.19840994      -1.43350315
H        2.24116993       1.27922072      -0.37209122
H        2.53403141      -0.45577862      -0.16822445
H        2.12386668       0.55121892       1.23730953
H       -0.73211465      -1.27082419       1.28578989
H        0.57070162      -2.04011400       0.34502413
H       -1.05053829      -1.89675077      -1.58723364
H       -2.31817020       0.28328751       0.78883951
H       -1.98156350      -0.33513573      -1.15770443
H       -0.13540735       2.19112309      -0.18967279
H       -0.44113474       1.46252493       1.40527984
17
Frame=10 idx=009656 GeodesicLength=0.7126739230289308 rxn_smarts="[C:1]([C@@:2]12[C:3]([H:11])([H:12])[C@@:4]([H:13])([C:5]([H:14])([H:15])[C:6]1([H:16])[H:17])[O:7]2)([H:8])([H:9])[H:10]>>[C:1]([C@:2]1([C:6]([C:5][H:14])([H:16])[H:17])[C:3]([H:11])([H:12])[C:4]([H:13])([H:15])[O:7]1)([H:8])([H:9])[H:10]"
C        1.93654683       0.38583293       0.17057959
C        0.47550827       0.11611280      -0.04799390
C       -0.14776478      -1.22550022       0.36982014
C       -0.90153769      -1.01720409      -0.94460511
C       -1.86040005       0.88031433      -0.01908837
C       -0.46579278       1.28252208       0.32348366
O        0.16860155      -0.19689334      -1.43093766
H        2.24437281       1.27682460      -0.37996900
H        2.53591675      -0.45819830      -0.17237857
H        2.13211225       0.55366222       1.23186766
H       -0.72537816      -1.26636413       1.29200610
H        0.57306457      -2.04093393       0.35138042
H       -1.05068333      -1.89629549      -1.57481608
H       -2.32746303       0.27973929       0.77405542
H       -1.99911246      -0.32288440      -1.18100977
H       -0.13326477       2.19565342      -0.17352863
H       -0.45472596       1.45361222       1.41113412
17
Frame=11 idx=009656 GeodesicLength=0.7839165573071152 rxn_smarts="[C:1]([C@@:2]12[C:3]([H:11])([H:12])[C@@:4]([H:13])([C:5]([H:14])([H:15])[C:6]1([H:16])[H:17])[O:7]2)([H:8])([H:9])[H:10]>>[C:1]([C@:2]1([C:6]([C:5][H:14])([H:16])[H:17])[C:3]([H:11])([H:12])[C:4]([H:13])([H:15])[O:7]1)([H:8])([H:9])[H:10]"
C        1.94078590       0.38525924       0.16628174
C        0.47875673       0.11712094      -0.04568326
C       -0.14301870      -1.22454683       0.37435031
C       -0.90554091      -1.01335182      -0.93569713
C       -1.85242192       0.86929217      -0.02852256
C       -0.46332500       1.28034276       0.32772652
O        0.16618307      -0.19556955      -1.42832658
H        2.24744312       1.27448098      -0.38783890
H        2.53784532      -0.46054219      -0.17646945
H        2.14031733       0.55617705       1.22640992
H       -0.71855618      -1.26198616       1.29821128
H        0.57556343      -2.04182572       0.35778123
H       -1.05127463      -1.89571302      -1.56243895
H       -2.33665562       0.27630781       0.75908737
H       -2.01632079      -0.31002839      -1.20415873
H       -0.13137480       2.19991463      -0.15740910
H       -0.46840634       1.44466811       1.41669630
17
Frame=12 idx=009656 GeodesicLength=0.8551585721185495 rxn_smarts="[C:1]([C@@:2]12[C:3]([H:11])([H:12])[C@@:4]([H:13])([C:5]([H:14])([H:15])[C:6]1([H:16])[H:17])[O:7]2)([H:8])([H:9])[H:10]>>[C:1]([C@:2]1([C:6]([C:5][H:14])([H:16])[H:17])[C:3]([H:11])([H:12])[C:4]([H:13])([H:15])[O:7]1)([H:8])([H:9])[H:10]"
C        1.94499557       0.38472118       0.16199221
C        0.48202340       0.11806484      -0.04334924
C       -0.13816870      -1.22370235       0.37890025
C       -0.90943532      -1.00963272      -0.92673191
C       -1.84441890       0.85823919      -0.03782363
C       -0.46093697       1.27804293       0.33196649
O        0.16386804      -0.19443281      -1.42567555
H        2.25037988       1.27218826      -0.39570248
H        2.53981326      -0.46281171      -0.18050200
H        2.14847885       0.55876036       1.22093302
H       -0.71165971      -1.25768998       1.30440247
H        0.57819952      -2.04278273       0.36424552
H       -1.05227049      -1.89503723      -1.55011541
H       -2.34574290       0.27299259       0.74393543
H       -2.03322114      -0.29652175      -1.22712480
H       -0.12973638       2.20390968      -0.14131667
H       -0.48216799       1.43569225       1.42196627
17
Frame=13 idx=009656 GeodesicLength=0.9264020110885028 rxn_smarts="[C:1]([C@@:2]12[C:3]([H:11])([H:12])[C@@:4]([H:13])([C:5]([H:14])([H:15])[C:6]1([H:16])[H:17])[O:7]2)([H:8])([H:9])[H:10]>>[C:1]([C@:2]1([C:6]([C:5][H:14])([H:16])[H:17])[C:3]([H:11])([H:12])[C:4]([H:13])([H:15])[O:7]1)([H:8])([H:9])[H:10]"
C        1.94917265       0.38421784       0.15770836
C        0.48530448       0.11894362      -0.04099502
C       -0.13321859      -1.22296478       0.38347300
C       -0.91320173      -1.00606982      -0.91771593
C       -1.83639699       0.84715646      -0.04698994
C       -0.45862930       1.27562168       0.33620088
O        0.16165178      -0.19347964      -1.42298881
H        2.25318176       1.26994518      -0.40356130
H        2.54181731      -0.46500801      -0.18448054
H        2.15659396       0.56141021       1.21543420
H       -0.70469826      -1.25347523       1.31057889
H        0.58097526      -2.04379889       0.37079280
H       -1.05363270      -1.89429624      -1.53785624
H       -2.35471712       0.26978765       0.72860635
H       -2.04984914      -0.28231360      -1.24989376
H       -0.12834912       2.20763888      -0.12525700
H       -0.49600423       1.42668469       1.42694407
17
Frame=14 idx=009656 GeodesicLength=0.9976407309278621 rxn_smarts="[C:1]([C@@:2]12[C:3]([H:11])([H:12])[C@@:4]([H:13])([C:5]([H:14])([H:15])[C:6]1([H:16])[H:17])[O:7]2)([H:8])([H:9])[H:10]>>[C:1]([C@:2]1([C:6]([C:5][H:14])([H:16])[H:17])[C:3]([H:11])([H:12])[C:4]([H:13])([H:15])[O:7]1)([H:8])([H:9])[H:10]"
C        1.95331435       0.38374868       0.15342725
C        0.48859628       0.11975623      -0.03862355
C       -0.12817080      -1.22233286       0.38807234
C       -0.91682583      -1.00268424      -0.90865313
C       -1.82836208       0.83604094      -0.05601778
C       -0.45640334       1.27307773       0.34042655
O        0.15952919      -0.19270932      -1.42026986
H        2.25584723       1.26775005      -0.41141872
H        2.54385511      -0.46713206      -0.18840851
H        2.16466039       0.56412691       1.20990999
H       -0.69767826      -1.24934163       1.31674178
H        0.58389339      -2.04486887       0.37744074
H       -1.05532388      -1.89352067      -1.52566836
H       -2.36357356       0.26668680       0.71309906
H       -2.06623723      -0.26734534      -1.27245456
H       -0.12721242       2.21110382      -0.10923308
H       -0.50990853       1.41764384       1.43162984
17
Frame=15 idx=009656 GeodesicLength=1.0688681505968471 rxn_smarts="[C:1]([C@@:2]12[C:3]([H:11])([H:12])[C@@:4]([H:13])([C:5]([H:14])([H:15])[C:6]1([H:16])[H:17])[O:7]2)([H:8])([H:9])[H:10]>>[C:1]([C@:2]1([C:6]([C:5][H:14])([H:16])[H:17])[C:3]([H:11])([H:12])[C:4]([H:13])([H:15])[O:7]1)([H:8])([H:9])[H:10]"
C        1.95741799       0.38331348       0.14914607
C        0.49189580       0.12050090      -0.03623709
C       -0.12302636      -1.22180608       0.39270349
C       -0.92029474      -0.99949656      -0.89954464
C       -1.82031976       0.82488760      -0.06490651
C       -0.45426067       1.27040831       0.34464171
O        0.15749569      -0.19212328      -1.41752094
H        2.25837393       1.26560161      -0.41927823
H        2.54592483      -0.46918413      -0.19228905
H        2.17267589       0.56691150       1.20435702
H       -0.69060410      -1.24528948       1.32289426
H        0.58695847      -2.04598839       0.38420651
H       -1.05731215      -1.89273720      -1.51355501
H       -2.37230637       0.26368001       0.69741401
H       -2.08241542      -0.25155109      -1.29480405
H       -0.12632732       2.21430323      -0.09324989
H       -0.52387569       1.40856960       1.43602232
17
Frame=16 idx=009656 GeodesicLength=1.140080941649518 rxn_smarts="[C:1]([C@@:2]12[C:3]([H:11])([H:12])[C@@:4]([H:13])([C:5]([H:14])([H:15])[C:6]1([H:16])[H:17])[O:7]2)([H:8])([H:9])[H:10]>>[C:1]([C@:2]1([C:6]([C:5][H:14])([H:16])[H:17])[C:3]([H:11])([H:12])[C:4]([H:13])([H:15])[O:7]1)([H:8])([H:9])[H:10]"
C        1.96148097       0.38291238       0.14486162
C        0.49520015       0.12117542      -0.03383770
C       -0.11778519      -1.22138451       0.39737292
C       -0.92359816      -0.99652713      -0.89038907
C       -1.81227545       0.81368913      -0.07365716
C       -0.45220339       1.26761016       0.34884359
O        0.15554615      -0.19172567      -1.41474361
H        2.26075911       1.26349826      -0.42714505
H        2.54802513      -0.47116427      -0.19612470
H        2.18063836       0.56976717       1.19877113
H       -0.68347810      -1.24131882       1.32904145
H        0.59017593      -2.04715361       0.39110743
H       -1.05956694      -1.89197308      -1.50151532
H       -2.38091009       0.26075398       0.68155040
H       -2.09841140      -0.23485422      -1.31694519
H       -0.12569506       2.21723626      -0.07731277
H       -0.53790202       1.39945855       1.44012200
