15
Frame=0 idx=007296 GeodesicLength=0.0 rxn_smarts="[C:1]([C:2]([C:3](=[O:4])[C:5]#[C:6][C:7]([H:13])([H:14])[H:15])([H:11])[H:12])([H:8])([H:9])[H:10]>>[C:1]([C:2]([C:3]([O:4][H:14])=[C:5]=[C:6]=[C:7]([H:13])[H:15])([H:11])[H:12])([H:8])([H:9])[H:10]"
C       -2.36072939      -0.09032439       0.64005013
C       -1.45992383      -0.18165455      -0.57743979
C       -0.00667064       0.05094567      -0.34553276
O        0.37810792       0.40122491       0.79472056
C        0.93500966      -0.13935439      -1.46885130
C        2.07558150      -0.08226554      -0.93111479
C        2.94832395       0.13064460       0.08951739
H       -2.07828221      -0.82215371       1.39737171
H       -3.39660099      -0.27954198       0.35646049
H       -2.30879877       0.89687200       1.09947858
H       -1.74195892       0.53433765      -1.35716552
H       -1.52163204      -1.15388064      -1.07804335
H        3.43913760       1.09862335       0.14636857
H        1.59223705       0.34067805       0.73126400
H        3.50619906      -0.70415109       0.50291602
15
Frame=1 idx=007296 GeodesicLength=0.09856631936400892 rxn_smarts="[C:1]([C:2]([C:3](=[O:4])[C:5]#[C:6][C:7]([H:13])([H:14])[H:15])([H:11])[H:12])([H:8])([H:9])[H:10]>>[C:1]([C:2]([C:3]([O:4][H:14])=[C:5]=[C:6]=[C:7]([H:13])[H:15])([H:11])[H:12])([H:8])([H:9])[H:10]"
C       -2.37218069      -0.09749398       0.63577144
C       -1.46432331      -0.18078198      -0.57722460
C       -0.01610408       0.07649739      -0.33833895
O        0.36579610       0.43285292       0.80313863
C        0.93234613      -0.12081464      -1.44820555
C        2.08209237      -0.08578450      -0.93096647
C        2.96251784       0.12061189       0.08733783
H       -2.08475579      -0.82308789       1.39718937
H       -3.40383081      -0.30223825       0.34722880
H       -2.33533036       0.89237209       1.09084839
H       -1.75559401       0.52843946      -1.35975966
H       -1.51141437      -1.15658180      -1.07214160
H        3.47871650       1.07619262       0.12587922
H        1.60393375       0.36390120       0.75516395
H        3.51813071      -0.72408454       0.48407919
15
Frame=2 idx=007296 GeodesicLength=0.1970663944602142 rxn_smarts="[C:1]([C:2]([C:3](=[O:4])[C:5]#[C:6][C:7]([H:13])([H:14])[H:15])([H:11])[H:12])([H:8])([H:9])[H:10]>>[C:1]([C:2]([C:3]([O:4][H:14])=[C:5]=[C:6]=[C:7]([H:13])[H:15])([H:11])[H:12])([H:8])([H:9])[H:10]"
C       -2.38362667      -0.10440651       0.63131226
C       -1.46852640      -0.17983752      -0.57693061
C       -0.02561098       0.10083470      -0.33066722
O        0.35327126       0.46271875       0.81224047
C        0.92992921      -0.10368803      -1.42660561
C        2.08848802      -0.08939611      -0.93097887
C        2.97660874       0.11125177       0.08481052
H       -2.09211745      -0.82418355       1.39667268
H       -3.41089194      -0.32374657       0.33750473
H       -2.36124202       0.88774085       1.08229643
H       -1.76812853       0.52293791      -1.36216056
H       -1.50161183      -1.15879563      -1.06642250
H        3.51667043       1.05412775       0.10472300
H        1.61624207       0.38713945       0.77964530
H        3.53054609      -0.74269726       0.46455997
15
Frame=3 idx=007296 GeodesicLength=0.2955249679879221 rxn_smarts="[C:1]([C:2]([C:3](=[O:4])[C:5]#[C:6][C:7]([H:13])([H:14])[H:15])([H:11])[H:12])([H:8])([H:9])[H:10]>>[C:1]([C:2]([C:3]([O:4][H:14])=[C:5]=[C:6]=[C:7]([H:13])[H:15])([H:11])[H:12])([H:8])([H:9])[H:10]"
C       -2.39488821      -0.11135439       0.62676426
C       -1.47247803      -0.17887118      -0.57656937
C       -0.03528787       0.12513256      -0.32284145
O        0.34039012       0.49253724       0.82155257
C        0.92770425      -0.08660753      -1.40435351
C        2.09467858      -0.09267945      -0.93130145
C        2.99044706       0.10189688       0.08207217
H       -2.09952374      -0.82525727       1.39612634
H       -3.41750449      -0.34523833       0.32761199
H       -2.38701857       0.88288781       1.07355476
H       -1.78016200       0.51727742      -1.36460540
H       -1.49149107      -1.16080695      -1.06052131
H        3.55381818       1.03127259       0.08336847
H        1.62908133       0.41111544       0.80453259
H        3.54223444      -0.76130485       0.44460935
15
Frame=4 idx=007296 GeodesicLength=0.393820127628831 rxn_smarts="[C:1]([C:2]([C:3](=[O:4])[C:5]#[C:6][C:7]([H:13])([H:14])[H:15])([H:11])[H:12])([H:8])([H:9])[H:10]>>[C:1]([C:2]([C:3]([O:4][H:14])=[C:5]=[C:6]=[C:7]([H:13])[H:15])([H:11])[H:12])([H:8])([H:9])[H:10]"
C       -2.40605476      -0.11817033       0.62206576
C       -1.47619093      -0.17787492      -0.57612659
C       -0.04507002       0.14880414      -0.31467153
O        0.32720872       0.52153009       0.83132985
C        0.92571522      -0.07031514      -1.38121280
C        2.10073549      -0.09581225      -0.93192749
C        3.00409859       0.09284957       0.07898100
H       -2.10738817      -0.82635056       1.39540707
H       -3.42380342      -0.36613329       0.31736427
H       -2.41243895       0.87790536       1.06471141
H       -1.79137058       0.51169984      -1.36699289
H       -1.48139576      -1.16252182      -1.05458122
H        3.58966426       1.00828135       0.06165200
H        1.64259903       0.43535317       0.82996877
H        3.55369129      -0.77924522       0.42403238
15
Frame=5 idx=007296 GeodesicLength=0.49215394070213514 rxn_smarts="[C:1]([C:2]([C:3](=[O:4])[C:5]#[C:6][C:7]([H:13])([H:14])[H:15])([H:11])[H:12])([H:8])([H:9])[H:10]>>[C:1]([C:2]([C:3]([O:4][H:14])=[C:5]=[C:6]=[C:7]([H:13])[H:15])([H:11])[H:12])([H:8])([H:9])[H:10]"
C       -2.41689959      -0.12522244       0.61733538
C       -1.47959787      -0.17687649      -0.57561860
C       -0.05509546       0.17319875      -0.30656636
O        0.31352800       0.55163986       0.84099157
C        0.92387914      -0.05317973      -1.35758007
C        2.10652080      -0.09825220      -0.93305074
C        3.01738983       0.08336512       0.07571402
H       -2.11473710      -0.82730403       1.39485440
H       -3.42942747      -0.38779365       0.30716258
H       -2.43802995       0.87261137       1.05548750
H       -1.80242637       0.50561011      -1.36956843
H       -1.47049191      -1.16418164      -1.04820770
H        3.62514635       0.98377785       0.04011916
H        1.65665047       0.46065625       0.85576087
H        3.56359110      -0.79804912       0.40316643
15
Frame=6 idx=007296 GeodesicLength=0.590344849941645 rxn_smarts="[C:1]([C:2]([C:3](=[O:4])[C:5]#[C:6][C:7]([H:13])([H:14])[H:15])([H:11])[H:12])([H:8])([H:9])[H:10]>>[C:1]([C:2]([C:3]([O:4][H:14])=[C:5]=[C:6]=[C:7]([H:13])[H:15])([H:11])[H:12])([H:8])([H:9])[H:10]"
C       -2.42763657      -0.13216328       0.61245139
C       -1.48274474      -0.17587115      -0.57501630
C       -0.06523532       0.19712699      -0.29814407
O        0.29947754       0.58126234       0.85105177
C        0.92228496      -0.03670343      -1.33300104
C        2.11217003      -0.10040713      -0.93459883
C        3.03048966       0.07408018       0.07201992
H       -2.12244781      -0.82819300       1.39419622
H       -3.43469591      -0.40902901       0.29663196
H       -2.46336378       0.86721807       1.04604630
H       -1.81270584       0.49948164      -1.37214651
H       -1.45949563      -1.16561793      -1.04167947
H        3.65935309       0.95907875       0.01837830
H        1.67148844       0.48611291       0.88217706
H        3.57306187      -0.81637594       0.38163329
15
Frame=7 idx=007296 GeodesicLength=0.688546409980926 rxn_smarts="[C:1]([C:2]([C:3](=[O:4])[C:5]#[C:6][C:7]([H:13])([H:14])[H:15])([H:11])[H:12])([H:8])([H:9])[H:10]>>[C:1]([C:2]([C:3]([O:4][H:14])=[C:5]=[C:6]=[C:7]([H:13])[H:15])([H:11])[H:12])([H:8])([H:9])[H:10]"
C       -2.43812770      -0.13920826       0.60747737
C       -1.48558516      -0.17486102      -0.57432719
C       -0.07558262       0.22134318      -0.28963497
O        0.28490539       0.61150336       0.86117457
C        0.92087907      -0.01994950      -1.30767844
C        2.11759936      -0.10197161      -0.93668982
C        3.04330866       0.06456658       0.06796694
H       -2.12997313      -0.82893765       1.39361088
H       -3.43937600      -0.43061057       0.28599544
H       -2.48873131       0.86159351       1.03623585
H       -1.82256089       0.49299828      -1.37485084
H       -1.44793147      -1.16693034      -1.03478397
H        3.69277311       0.93343927      -0.00328032
H        1.68703462       0.51211098       0.90915926
H        3.58136805      -0.83508622       0.35962525
15
Frame=8 idx=007296 GeodesicLength=0.7866213900242038 rxn_smarts="[C:1]([C:2]([C:3](=[O:4])[C:5]#[C:6][C:7]([H:13])([H:14])[H:15])([H:11])[H:12])([H:8])([H:9])[H:10]>>[C:1]([C:2]([C:3]([O:4][H:14])=[C:5]=[C:6]=[C:7]([H:13])[H:15])([H:11])[H:12])([H:8])([H:9])[H:10]"
C       -2.44857371      -0.14607794       0.60230523
C       -1.48817129      -0.17386735      -0.57352026
C       -0.08603354       0.24497715      -0.28072844
O        0.26990123       0.64122475       0.87176354
C        0.91973293      -0.00406888      -1.28121897
C        2.12290952      -0.10326060      -0.93927216
C        3.05600540       0.05530036       0.06335633
H       -2.13800586      -0.82955083       1.39290859
H       -3.44375849      -0.45166058       0.27494606
H       -2.51386640       0.85595603       1.02611769
H       -1.83155170       0.48646851      -1.37756681
H       -1.43634043      -1.16806288      -1.02767543
H        3.72479977       0.90788438      -0.02517033
H        1.70353225       0.53793031       0.93694174
H        3.58942033      -0.85319243       0.33681323
15
Frame=9 idx=007296 GeodesicLength=0.8849441960770023 rxn_smarts="[C:1]([C:2]([C:3](=[O:4])[C:5]#[C:6][C:7]([H:13])([H:14])[H:15])([H:11])[H:12])([H:8])([H:9])[H:10]>>[C:1]([C:2]([C:3]([O:4][H:14])=[C:5]=[C:6]=[C:7]([H:13])[H:15])([H:11])[H:12])([H:8])([H:9])[H:10]"
C       -2.45884811      -0.15305040       0.59701277
C       -1.49044389      -0.17289515      -0.57259764
C       -0.09671230       0.26900746      -0.27171741
O        0.25423129       0.67181049       0.88239475
C        0.91878585       0.01214881      -1.25384614
C        2.12794797      -0.10370530      -0.94251057
C        3.06847043       0.04574722       0.05829678
H       -2.14593295      -0.82991735       1.39234379
H       -3.44759385      -0.47318241       0.26377369
H       -2.53919328       0.85012144       1.01545786
H       -1.84009977       0.47945557      -1.38046893
H       -1.42409887      -1.16913400      -1.02004395
H        3.75611917       0.88144480      -0.04686389
H        1.72103695       0.56398088       0.96545442
H        3.59633138      -0.87183206       0.31331448
15
Frame=10 idx=007296 GeodesicLength=0.9831985802224832 rxn_smarts="[C:1]([C:2]([C:3](=[O:4])[C:5]#[C:6][C:7]([H:13])([H:14])[H:15])([H:11])[H:12])([H:8])([H:9])[H:10]>>[C:1]([C:2]([C:3]([O:4][H:14])=[C:5]=[C:6]=[C:7]([H:13])[H:15])([H:11])[H:12])([H:8])([H:9])[H:10]"
C       -2.46916376      -0.15979017       0.59147176
C       -1.49246192      -0.17198135      -0.57152384
C       -0.10749870       0.29242623      -0.26224010
O        0.23801096       0.70198688       0.89352604
C        0.91811947       0.02736021      -1.22509660
C        2.13284686      -0.10377167      -0.94629651
C        3.08090754       0.03644435       0.05254894
H       -2.15451895      -0.83002798       1.39169282
H       -3.45119440      -0.49414741       0.25211151
H       -2.56439011       0.84437366       1.00431964
H       -1.84771017       0.47229799      -1.38343033
H       -1.41182764      -1.17011235      -1.01205736
H        3.78607719       0.85532274      -0.06883573
H        1.73965253       0.58945597       0.99502727
H        3.60315110      -0.88983710       0.28878247
15
Frame=11 idx=007296 GeodesicLength=1.0814428212597975 rxn_smarts="[C:1]([C:2]([C:3](=[O:4])[C:5]#[C:6][C:7]([H:13])([H:14])[H:15])([H:11])[H:12])([H:8])([H:9])[H:10]>>[C:1]([C:2]([C:3]([O:4][H:14])=[C:5]=[C:6]=[C:7]([H:13])[H:15])([H:11])[H:12])([H:8])([H:9])[H:10]"
C       -2.47948271      -0.16636234       0.58568770
C       -1.49419055      -0.17114653      -0.57028450
C       -0.11843549       0.31556431      -0.25237960
O        0.22111922       0.73226856       0.90502065
C        0.91772815       0.04193208      -1.19495188
C        2.13754731      -0.10322229      -0.95069249
C        3.09328301       0.02720354       0.04609554
H       -2.16358297      -0.82977959       1.39105380
H       -3.45446298      -0.51488245       0.24003154
H       -2.58961572       0.83869476       0.99255122
H       -1.85448264       0.46479860      -1.38653251
H       -1.39929232      -1.17107430      -1.00354510
H        3.81488281       0.82929188      -0.09095479
H        1.75937836       0.61427935       1.02578884
H        3.60960653      -0.90756557       0.26311159
15
Frame=12 idx=007296 GeodesicLength=1.17962400587207 rxn_smarts="[C:1]([C:2]([C:3](=[O:4])[C:5]#[C:6][C:7]([H:13])([H:14])[H:15])([H:11])[H:12])([H:8])([H:9])[H:10]>>[C:1]([C:2]([C:3]([O:4][H:14])=[C:5]=[C:6]=[C:7]([H:13])[H:15])([H:11])[H:12])([H:8])([H:9])[H:10]"
C       -2.48999413      -0.17254526       0.57956106
C       -1.49566403      -0.17045467      -0.56883678
C       -0.12945404       0.33792584      -0.24191094
O        0.20355950       0.76210589       0.91712902
C        0.91766738       0.05510930      -1.16302668
C        2.14209899      -0.10221245      -0.95562998
C        3.10576711       0.01830109       0.03875998
H       -2.17363266      -0.82904713       1.39035644
H       -3.45763998      -0.53486858       0.22730561
H       -2.61480552       0.83333523       0.98003614
H       -1.86013974       0.45701572      -1.38976875
H       -1.38679001      -1.17210717      -0.99445805
H        3.84224981       0.80410175      -0.11350001
H        1.78038544       0.63776002       1.05807206
H        3.61639188      -0.92441958       0.23591087
15
Frame=13 idx=007296 GeodesicLength=1.277850483237422 rxn_smarts="[C:1]([C:2]([C:3](=[O:4])[C:5]#[C:6][C:7]([H:13])([H:14])[H:15])([H:11])[H:12])([H:8])([H:9])[H:10]>>[C:1]([C:2]([C:3]([O:4][H:14])=[C:5]=[C:6]=[C:7]([H:13])[H:15])([H:11])[H:12])([H:8])([H:9])[H:10]"
C       -2.50070358      -0.17840189       0.57308655
C       -1.49685554      -0.16993248      -0.56715495
C       -0.14060345       0.35985210      -0.23090388
O        0.18518267       0.79200633       0.92972878
C        0.91793240       0.06728073      -1.12925371
C        2.14639478      -0.10046280      -0.96115140
C        3.11840046       0.00957194       0.03050874
H       -2.18455733      -0.82771593       1.38970204
H       -3.46066834      -0.55444612       0.21399168
H       -2.64016538       0.82828677       0.96657242
H       -1.86476960       0.44873226      -1.39322419
H       -1.37408711      -1.17330082      -0.98457668
H        3.86851448       0.77954170      -0.13642687
H        1.80267239       0.65977510       1.09205703
H        3.62331315      -0.94078689       0.20704446
15
Frame=14 idx=007296 GeodesicLength=1.3760342979826952 rxn_smarts="[C:1]([C:2]([C:3](=[O:4])[C:5]#[C:6][C:7]([H:13])([H:14])[H:15])([H:11])[H:12])([H:8])([H:9])[H:10]>>[C:1]([C:2]([C:3]([O:4][H:14])=[C:5]=[C:6]=[C:7]([H:13])[H:15])([H:11])[H:12])([H:8])([H:9])[H:10]"
C       -2.51197502      -0.18351372       0.56607089
C       -1.49784859      -0.16969480      -0.56515913
C       -0.15175304       0.38039795      -0.21892481
O        0.16604972       0.82084799       0.94332100
C        0.91861030       0.07701490      -1.09294296
C        2.15051106      -0.09849619      -0.96702876
C        3.13153171       0.00156768       0.02104817
H       -2.19732334      -0.82558792       1.38892286
H       -3.46402701      -0.57260242       0.19964526
H       -2.66555312       0.82402303       0.95198702
H       -1.86787286       0.44009737      -1.39685817
H       -1.36177898      -1.17481284      -0.97385028
H        3.89314739       0.75700195      -0.16044012
H        1.82653703       0.67923316       1.12824646
H        3.63174475      -0.95547612       0.17596257
15
Frame=15 idx=007296 GeodesicLength=1.4742298787649886 rxn_smarts="[C:1]([C:2]([C:3](=[O:4])[C:5]#[C:6][C:7]([H:13])([H:14])[H:15])([H:11])[H:12])([H:8])([H:9])[H:10]>>[C:1]([C:2]([C:3]([O:4][H:14])=[C:5]=[C:6]=[C:7]([H:13])[H:15])([H:11])[H:12])([H:8])([H:9])[H:10]"
C       -2.52408753      -0.18763891       0.55836984
C       -1.49868965      -0.16984910      -0.56276683
C       -0.16283976       0.39919104      -0.20571581
O        0.14611956       0.84820369       0.95819135
C        0.91975216       0.08362283      -1.05355961
C        2.15437898      -0.09648877      -0.97312177
C        3.14547839      -0.00542652       0.01015303
H       -2.21253987      -0.82244203       1.38797201
H       -3.46804371      -0.58890874       0.18399473
H       -2.69104108       0.82088369       0.93599446
H       -1.86919084       0.43103708      -1.40070314
H       -1.35010670      -1.17684633      -0.96205647
H        3.91611607       0.73726542      -0.18603164
H        1.85219388       0.69538688       1.16704648
H        3.64250009      -0.96799022       0.14223339
15
Frame=16 idx=007296 GeodesicLength=1.5724706648535371 rxn_smarts="[C:1]([C:2]([C:3](=[O:4])[C:5]#[C:6][C:7]([H:13])([H:14])[H:15])([H:11])[H:12])([H:8])([H:9])[H:10]>>[C:1]([C:2]([C:3]([O:4][H:14])=[C:5]=[C:6]=[C:7]([H:13])[H:15])([H:11])[H:12])([H:8])([H:9])[H:10]"
C       -2.53765764      -0.19017793       0.54967921
C       -1.49952285      -0.17060182      -0.55982917
C       -0.17366583       0.41501182      -0.19061902
O        0.12549684       0.87253570       0.97512520
C        0.92146522       0.08512011      -1.01001776
C        2.15799628      -0.09522042      -0.97907097
C        3.16090242      -0.01060020      -0.00263656
H       -2.23167582      -0.81794956       1.38663108
H       -3.47352363      -0.60202830       0.16636871
H       -2.71656538       0.81962373       0.91822140
H       -1.86806657       0.42166225      -1.40473546
H       -1.33987794      -1.17974894      -0.94897953
H        3.93698797       0.72226446      -0.21439361
H        1.88011405       0.70691604       1.20907859
H        3.65759288      -0.97680693       0.10517790
