15
Frame=0 idx=009921 GeodesicLength=0.0 rxn_smarts="[N:1]([C@@:2]([C:3]([C:4]([O:5][H:15])([H:13])[H:14])([H:11])[H:12])([C:6]#[N:7])[H:10])([H:8])[H:9]>>[N:1]([C@@:2]1([H:10])[C:3]([H:11])([H:12])[C:4]([H:13])([H:14])[O:5]/[C:6]1=[N:7]\[H:15])([H:8])[H:9]"
N       -1.88538272      -0.20053474      -0.26373945
C       -0.65483967      -0.45397398       0.47560723
C        0.46510126      -0.99807234      -0.43517761
C        1.39203053       0.18642318      -0.72684593
O        1.50167488       0.82318620       0.53604979
C       -0.15009924       0.86962614       0.97390004
N       -0.33838551       2.02229390       1.25161406
H       -2.41884882      -1.05273935      -0.36780096
H       -2.46336592       0.47550929       0.21807540
H       -0.79266293      -1.11242163       1.34121843
H        0.04559154      -1.43404419      -1.34187278
H        1.02911398      -1.76645746       0.09594114
H        0.94498800       0.86232783      -1.46488348
H        2.37434534      -0.13061788      -1.07793058
H        0.95073922       1.90949503       0.78584464
15
Frame=1 idx=009921 GeodesicLength=0.08876717388299482 rxn_smarts="[N:1]([C@@:2]([C:3]([C:4]([O:5][H:15])([H:13])[H:14])([H:11])[H:12])([C:6]#[N:7])[H:10])([H:8])[H:9]>>[N:1]([C@@:2]1([H:10])[C:3]([H:11])([H:12])[C:4]([H:13])([H:14])[O:5]/[C:6]1=[N:7]\[H:15])([H:8])[H:9]"
N       -1.90556370      -0.22248622      -0.24914163
C       -0.65756014      -0.44792545       0.46821346
C        0.45522484      -0.98693752      -0.45134505
C        1.40930427       0.17999149      -0.71729326
O        1.50509253       0.82266439       0.54391342
C       -0.17089635       0.88760493       0.94508978
N       -0.35012722       2.03856590       1.23436127
H       -2.42564423      -1.08498294      -0.33481557
H       -2.48536077       0.44880504       0.23732337
H       -0.76766042      -1.09558715       1.34616048
H        0.03317907      -1.39185016      -1.37127804
H        0.99927007      -1.78197723       0.06107590
H        0.99573287       0.86302153      -1.46795762
H        2.39413598      -0.15586374      -1.04380125
H        0.97087319       1.92695712       0.79949473
15
Frame=2 idx=009921 GeodesicLength=0.1772542283033793 rxn_smarts="[N:1]([C@@:2]([C:3]([C:4]([O:5][H:15])([H:13])[H:14])([H:11])[H:12])([C:6]#[N:7])[H:10])([H:8])[H:9]>>[N:1]([C@@:2]1([H:10])[C:3]([H:11])([H:12])[C:4]([H:13])([H:14])[O:5]/[C:6]1=[N:7]\[H:15])([H:8])[H:9]"
N       -1.92541443      -0.24528982      -0.23367190
C       -0.66032382      -0.44152327       0.46048580
C        0.44512926      -0.97519389      -0.46821652
C        1.42654351       0.17288520      -0.70717471
O        1.50790169       0.82237695       0.55174940
C       -0.19201450       0.90611467       0.91414056
N       -0.36230260       2.05484102       1.21639136
H       -2.43095117      -1.11807252      -0.30061067
H       -2.50684844       0.42120933       0.25762671
H       -0.74179081      -1.07730418       1.35048181
H        0.02048435      -1.34713206      -1.40089741
H        0.96802172      -1.79680925       0.02394792
H        1.04816175       0.86239421      -1.47019332
H        2.41295949      -0.18270664      -1.00787262
H        0.99044399       1.94421025       0.81381360
15
Frame=3 idx=009921 GeodesicLength=0.2654403053391691 rxn_smarts="[N:1]([C@@:2]([C:3]([C:4]([O:5][H:15])([H:13])[H:14])([H:11])[H:12])([C:6]#[N:7])[H:10])([H:8])[H:9]>>[N:1]([C@@:2]1([H:10])[C:3]([H:11])([H:12])[C:4]([H:13])([H:14])[O:5]/[C:6]1=[N:7]\[H:15])([H:8])[H:9]"
N       -1.94468892      -0.26880860      -0.21742548
C       -0.66309991      -0.43477917       0.45244985
C        0.43488619      -0.96289868      -0.48569001
C        1.44358527       0.16505791      -0.69655735
O        1.51007357       0.82246197       0.55935224
C       -0.21336571       0.92501914       0.88110389
N       -0.37492485       2.07079322       1.19821978
H       -2.43455812      -1.15173820      -0.26539155
H       -2.52755992       0.39288632       0.27885740
H       -0.71518204      -1.05757937       1.35404967
H        0.00763268      -1.30003157      -1.43044695
H        0.93547651      -1.81075836      -0.01528408
H        1.10197935       0.86018063      -1.47157896
H        2.43050876      -0.21113331      -0.97024640
H        1.00923714       1.96132806       0.82858795
15
Frame=4 idx=009921 GeodesicLength=0.35333796822841085 rxn_smarts="[N:1]([C@@:2]([C:3]([C:4]([O:5][H:15])([H:13])[H:14])([H:11])[H:12])([C:6]#[N:7])[H:10])([H:8])[H:9]>>[N:1]([C@@:2]1([H:10])[C:3]([H:11])([H:12])[C:4]([H:13])([H:14])[O:5]/[C:6]1=[N:7]\[H:15])([H:8])[H:9]"
N       -1.96313336      -0.29286082      -0.20054435
C       -0.66585867      -0.42770847       0.44413827
C        0.42458037      -0.95013876      -0.50362933
C        1.46024580       0.15648916      -0.68553812
O        1.51161602       0.82305024       0.56650018
C       -0.23484728       0.94415217       0.84612828
N       -0.38800900       2.08604950       1.18042901
H       -2.43628321      -1.18567655      -0.22943760
H       -2.54723197       0.36405678       0.30082668
H       -0.68803119      -1.03648044       1.35674038
H       -0.00520847      -1.25081775      -1.45958758
H        0.90181595      -1.82361019      -0.05636057
H        1.15678486       0.85615218      -1.47212163
H        2.44645369      -0.24107221      -0.93110845
H        1.02710646       1.97841517       0.84356483
15
Frame=5 idx=009921 GeodesicLength=0.44088393162838274 rxn_smarts="[N:1]([C@@:2]([C:3]([C:4]([O:5][H:15])([H:13])[H:14])([H:11])[H:12])([C:6]#[N:7])[H:10])([H:8])[H:9]>>[N:1]([C@@:2]1([H:10])[C:3]([H:11])([H:12])[C:4]([H:13])([H:14])[O:5]/[C:6]1=[N:7]\[H:15])([H:8])[H:9]"
N       -1.98055686      -0.31724712      -0.18318963
C       -0.66858968      -0.42031793       0.43558760
C        0.41429562      -0.93701369      -0.52186260
C        1.47633759       0.14720770      -0.67424347
O        1.51257178       0.82424741       0.57296399
C       -0.25635800       0.96338005       0.80945979
N       -0.40150885       2.10026256       1.16351220
H       -2.43603312      -1.21963282      -0.19317262
H       -2.56568523       0.33494375       0.32335736
H       -0.66061622      -1.01414684       1.35847263
H       -0.01787865      -1.19990907      -1.48793499
H        0.86731437      -1.83514452      -0.09886346
H        1.21218934       0.85019620      -1.47183787
H        2.46048837      -0.27236509      -0.89082405
H        1.04402953       1.99553941       0.85857513
15
Frame=6 idx=009921 GeodesicLength=0.5281346887673795 rxn_smarts="[N:1]([C@@:2]([C:3]([C:4]([O:5][H:15])([H:13])[H:14])([H:11])[H:12])([C:6]#[N:7])[H:10])([H:8])[H:9]>>[N:1]([C@@:2]1([H:10])[C:3]([H:11])([H:12])[C:4]([H:13])([H:14])[O:5]/[C:6]1=[N:7]\[H:15])([H:8])[H:9]"
N       -1.99669634      -0.34172928      -0.16560065
C       -0.67124987      -0.41265280       0.42686990
C        0.40413305      -0.92365901      -0.54019686
C        1.49165010       0.13726800      -0.66280894
O        1.51304610       0.82611097       0.57856888
C       -0.27776115       0.98243195       0.77155688
N       -0.41550656       2.11309033       1.14779158
H       -2.43371739      -1.25318344      -0.15685431
H       -2.58266369       0.30583615       0.34608741
H       -0.63318283      -0.99074821       1.35915673
H       -0.03015843      -1.14776401      -1.51515986
H        0.83224328      -1.84522595      -0.14241094
H        1.26751224       0.84219098      -1.47075743
H        2.47230902      -0.30473674      -0.84969578
H        1.06004244       2.01277105       0.87345340
15
Frame=7 idx=009921 GeodesicLength=0.6151060302274424 rxn_smarts="[N:1]([C@@:2]([C:3]([C:4]([O:5][H:15])([H:13])[H:14])([H:11])[H:12])([C:6]#[N:7])[H:10])([H:8])[H:9]>>[N:1]([C@@:2]1([H:10])[C:3]([H:11])([H:12])[C:4]([H:13])([H:14])[O:5]/[C:6]1=[N:7]\[H:15])([H:8])[H:9]"
N       -2.01138566      -0.36607148      -0.14798083
C       -0.67381724      -0.40477521       0.41807366
C        0.39417553      -0.91019771      -0.55843794
C        1.50599869       0.12677746      -0.65137154
O        1.51317801       0.82863443       0.58320116
C       -0.29893722       1.00105021       0.73302839
N       -0.43000809       2.12437143       1.13315421
H       -2.42934417      -1.28601073      -0.12085762
H       -2.59803188       0.27698673       0.36875266
H       -0.60601227      -0.96657847       1.35876880
H       -0.04187257      -1.09489540      -1.54095639
H        0.79692067      -1.85374599      -0.18656163
H        1.32210293       0.83218121      -1.46887859
H        2.48169556      -0.33784075      -0.80814239
H        1.07533771       2.03011426       0.88820807
15
Frame=8 idx=009921 GeodesicLength=0.7018191586818835 rxn_smarts="[N:1]([C@@:2]([C:3]([C:4]([O:5][H:15])([H:13])[H:14])([H:11])[H:12])([C:6]#[N:7])[H:10])([H:8])[H:9]>>[N:1]([C@@:2]1([H:10])[C:3]([H:11])([H:12])[C:4]([H:13])([H:14])[O:5]/[C:6]1=[N:7]\[H:15])([H:8])[H:9]"
N       -2.02454340      -0.39010037      -0.13048156
C       -0.67628703      -0.39679318       0.40929671
C        0.38448130      -0.89673920      -0.57642942
C        1.51925146       0.11586275      -0.64002947
O        1.51312055       0.83174255       0.58685180
C       -0.31980556       1.01896617       0.69453853
N       -0.44497093       2.13421279       1.11906488
H       -2.42300803      -1.31787841      -0.08549405
H       -2.61174141       0.24857954       0.39117198
H       -0.57935345      -0.94197970       1.35734085
H       -0.05288137      -1.04175112      -1.56511130
H        0.76165263      -1.86064900      -0.23096297
H        1.37540528       0.82033783      -1.46619316
H        2.48850892      -0.37132172      -0.76659487
H        1.09017104       2.04751107       0.90303205
15
Frame=9 idx=009921 GeodesicLength=0.7880754837824053 rxn_smarts="[N:1]([C@@:2]([C:3]([C:4]([O:5][H:15])([H:13])[H:14])([H:11])[H:12])([C:6]#[N:7])[H:10])([H:8])[H:9]>>[N:1]([C@@:2]1([H:10])[C:3]([H:11])([H:12])[C:4]([H:13])([H:14])[O:5]/[C:6]1=[N:7]\[H:15])([H:8])[H:9]"
N       -2.03628427      -0.41377682      -0.11311545
C       -0.67868896      -0.38875213       0.40058217
C        0.37503219      -0.88332017      -0.59410415
C        1.53138996       0.10467452      -0.62885997
O        1.51301037       0.83535398       0.58956419
C       -0.34033384       1.03605093       0.65656705
N       -0.46028205       2.14298443       1.10464508
H       -2.41486702      -1.34881342      -0.05095625
H       -2.62396596       0.22059770       0.41342253
H       -0.55336236      -0.91718525       1.35492772
H       -0.06318219      -0.98863024      -1.58754618
H        0.72663592      -1.86589401      -0.27536353
H        1.42735342       0.80699519      -1.46276518
H        2.49278071      -0.40496431      -0.72540586
H        1.10476410       2.06467960       0.91840784
15
Frame=10 idx=009921 GeodesicLength=0.8741653952358381 rxn_smarts="[N:1]([C@@:2]([C:3]([C:4]([O:5][H:15])([H:13])[H:14])([H:11])[H:12])([C:6]#[N:7])[H:10])([H:8])[H:9]>>[N:1]([C@@:2]1([H:10])[C:3]([H:11])([H:12])[C:4]([H:13])([H:14])[O:5]/[C:6]1=[N:7]\[H:15])([H:8])[H:9]"
N       -2.04655028      -0.43702196      -0.09602234
C       -0.68102738      -0.38082012       0.39201629
C        0.36587372      -0.87002378      -0.61136726
C        1.54234684       0.09330320      -0.61791915
O        1.51293491       0.83940815       0.59137289
C       -0.36059936       1.05212918       0.61951213
N       -0.47581641       2.15091581       1.08961938
H       -2.40505524      -1.37865346      -0.01736301
H       -2.63463889       0.19317577       0.43525320
H       -0.52815500      -0.89246298       1.35162929
H       -0.07267929      -0.93582935      -1.60822058
H        0.69206910      -1.86956598      -0.31960414
H        1.47737806       0.79220300      -1.45860331
H        2.49452462      -0.43843471      -0.68477568
H        1.11939459       2.08167721       0.93447228
15
Frame=11 idx=009921 GeodesicLength=0.9601523154656332 rxn_smarts="[N:1]([C@@:2]([C:3]([C:4]([O:5][H:15])([H:13])[H:14])([H:11])[H:12])([C:6]#[N:7])[H:10])([H:8])[H:9]>>[N:1]([C@@:2]1([H:10])[C:3]([H:11])([H:12])[C:4]([H:13])([H:14])[O:5]/[C:6]1=[N:7]\[H:15])([H:8])[H:9]"
N       -2.05536950      -0.45978927      -0.07931772
C       -0.68331698      -0.37307294       0.38364448
C        0.35702692      -0.85690637      -0.62814021
C        1.55207100       0.08183308      -0.60727639
O        1.51296312       0.84386430       0.59226723
C       -0.38067393       1.06713873       0.58358790
N       -0.49141620       2.15819873       1.07381673
H       -2.39374008      -1.40733767       0.01511841
H       -2.64378183       0.16637467       0.45648523
H       -0.50382348      -0.86797078       1.34755518
H       -0.08129703      -0.88369648      -1.62704851
H        0.65816431      -1.87168581      -0.36341652
H        1.52511627       0.77605446      -1.45376807
H        2.49375435      -0.47142827      -0.64499410
H        1.13432306       2.09842361       0.95148635
15
Frame=12 idx=009921 GeodesicLength=1.0460554005901985 rxn_smarts="[N:1]([C@@:2]([C:3]([C:4]([O:5][H:15])([H:13])[H:14])([H:11])[H:12])([C:6]#[N:7])[H:10])([H:8])[H:9]>>[N:1]([C@@:2]1([H:10])[C:3]([H:11])([H:12])[C:4]([H:13])([H:14])[O:5]/[C:6]1=[N:7]\[H:15])([H:8])[H:9]"
N       -2.06283419      -0.48210231      -0.06305247
C       -0.68557361      -0.36554159       0.37546496
C        0.34847890      -0.84399742      -0.64440760
C        1.56058699       0.07034700      -0.59699541
O        1.51315067       0.84870154       0.59223445
C       -0.40064445       1.08109604       0.54883285
N       -0.50695603       2.16500957       1.05716201
H       -2.38106246      -1.43491577       0.04649966
H       -2.65152825       0.14019654       0.47702264
H       -0.48038293      -0.84372886       1.34280332
H       -0.08904013      -0.83247060      -1.64408462
H        0.62500991      -1.87231799      -0.40663606
H        1.57048290       0.75870066      -1.44841498
H        2.49060164      -0.50378850      -0.60615027
H        1.14971104       2.11481167       0.96972151
15
Frame=13 idx=009921 GeodesicLength=1.131848747094652 rxn_smarts="[N:1]([C@@:2]([C:3]([C:4]([O:5][H:15])([H:13])[H:14])([H:11])[H:12])([C:6]#[N:7])[H:10])([H:8])[H:9]>>[N:1]([C@@:2]1([H:10])[C:3]([H:11])([H:12])[C:4]([H:13])([H:14])[O:5]/[C:6]1=[N:7]\[H:15])([H:8])[H:9]"
N       -2.06902017      -0.50396695      -0.04728067
C       -0.68781528      -0.35822532       0.36747289
C        0.34022911      -0.83132741      -0.66014112
C        1.56791820       0.05891470      -0.58713904
O        1.51353168       0.85391889       0.59124829
C       -0.42061567       1.09404397       0.51521629
N       -0.52229506       2.17147211       1.03963687
H       -2.36714867      -1.46142220       0.07675880
H       -2.65799741       0.11465614       0.49677155
H       -0.45787099      -0.81971733       1.33747196
H       -0.09586954      -0.78244387      -1.65935899
H        0.59272219      -1.87152220      -0.44904097
H        1.61334642       0.74027028      -1.44270505
H        2.48517204      -0.53533238      -0.56841064
H        1.16571314       2.13068158       0.98949983
15
Frame=14 idx=009921 GeodesicLength=1.2175613884689132 rxn_smarts="[N:1]([C@@:2]([C:3]([C:4]([O:5][H:15])([H:13])[H:14])([H:11])[H:12])([C:6]#[N:7])[H:10])([H:8])[H:9]>>[N:1]([C@@:2]1([H:10])[C:3]([H:11])([H:12])[C:4]([H:13])([H:14])[O:5]/[C:6]1=[N:7]\[H:15])([H:8])[H:9]"
N       -2.07413453      -0.52548494      -0.03194182
C       -0.69007155      -0.35108642       0.35960006
C        0.33222787      -0.81891573      -0.67540046
C        1.57421059       0.04760400      -0.57776091
O        1.51412196       0.85951778       0.58931743
C       -0.44070603       1.10612196       0.48247429
N       -0.53734031       2.17772927       1.02122289
H       -2.35211164      -1.48700683       0.10614356
H       -2.66345322       0.08965042       0.51578313
H       -0.43623042      -0.79574684       1.33163517
H       -0.10190932      -0.73372270      -1.67312290
H        0.56125120      -1.86946028      -0.49060879
H        1.65399589       0.72097506      -1.43687806
H        2.47777468      -0.56602970      -0.53166093
H        1.18237482       2.14585494       1.01119733
15
Frame=15 idx=009921 GeodesicLength=1.3032239786987103 rxn_smarts="[N:1]([C@@:2]([C:3]([C:4]([O:5][H:15])([H:13])[H:14])([H:11])[H:12])([C:6]#[N:7])[H:10])([H:8])[H:9]>>[N:1]([C@@:2]1([H:10])[C:3]([H:11])([H:12])[C:4]([H:13])([H:14])[O:5]/[C:6]1=[N:7]\[H:15])([H:8])[H:9]"
N       -2.07823553      -0.54667514      -0.01705189
C       -0.69235830      -0.34409544       0.35182656
C        0.32447893      -0.80678818      -0.69016239
C        1.57947670       0.03647940      -0.56892911
O        1.51492929       0.86552144       0.58638640
C       -0.46101621       1.11740806       0.45046343
N       -0.55201372       2.18385270       1.00195115
H       -2.33602752      -1.51169445       0.13468796
H       -2.66796904       0.06518612       0.53397852
H       -0.41548348      -0.77172100       1.32535490
H       -0.10714787      -0.68654599      -1.68543758
H        0.53068842      -1.86619386      -0.53113161
H        1.69237429       0.70086449      -1.43107420
H        2.46850256      -0.59571441      -0.49604382
H        1.19980151       2.16011627       1.03518169
15
Frame=16 idx=009921 GeodesicLength=1.3888934762641285 rxn_smarts="[N:1]([C@@:2]([C:3]([C:4]([O:5][H:15])([H:13])[H:14])([H:11])[H:12])([C:6]#[N:7])[H:10])([H:8])[H:9]>>[N:1]([C@@:2]1([H:10])[C:3]([H:11])([H:12])[C:4]([H:13])([H:14])[O:5]/[C:6]1=[N:7]\[H:15])([H:8])[H:9]"
N       -2.08143424      -0.56759675      -0.00253807
C       -0.69469719      -0.33719871       0.34410262
C        0.31695623      -0.79496249      -0.70446214
C        1.58381302       0.02559988      -0.56069211
O        1.51594363       0.87195333       0.58244449
C       -0.48164635       1.12800927       0.41892157
N       -0.56626748       2.18995273       0.98167503
H       -2.31894744      -1.53556674       0.16257901
H       -2.67169031       0.04121463       0.55143119
H       -0.39561130      -0.74746498       1.31867352
H       -0.11166540      -0.64102902      -1.69649243
H        0.50102904      -1.86185275      -0.57054523
H        1.72866272       0.68005517      -1.42545728
H        2.45755342      -0.62431300      -0.46157465
H        1.21800165       2.17319943       1.06193448
