13
Frame=0 idx=000073 GeodesicLength=0.0 rxn_smarts="[C:1]([C:2]([C:3]([C:4](=[O:5])[H:13])([H:11])[H:12])([H:9])[H:10])([H:6])([H:7])[H:8]>>[C:1](=[C:2]([H:9])[H:10])([H:6])[H:8].[C:3](=[C:4]([O:5][H:7])[H:13])([H:11])[H:12]"
C       -1.46418767      -0.45611832      -0.10776713
C       -0.76894714       0.65204548      -0.58164508
C        1.19334654       0.73008566       0.39879531
C        1.41093622      -0.60954369       0.22247251
O        0.67532226      -1.48598397       0.81111875
H       -2.17687146      -0.31015367       0.69766533
H       -0.41909731      -1.13658467       0.54218043
H       -1.70797155      -1.24458179      -0.81261216
H       -0.38623966       0.66243115      -1.59398570
H       -0.94494104       1.63405418      -0.16347495
H        1.78982330       1.44985175      -0.14798699
H        0.72373454       1.07228595       1.31085166
H        2.07509292      -0.95778810      -0.57561200
13
Frame=1 idx=000073 GeodesicLength=0.09704477130541608 rxn_smarts="[C:1]([C:2]([C:3]([C:4](=[O:5])[H:13])([H:11])[H:12])([H:9])[H:10])([H:6])([H:7])[H:8]>>[C:1](=[C:2]([H:9])[H:10])([H:6])[H:8].[C:3](=[C:4]([O:5][H:7])[H:13])([H:11])[H:12]"
C       -1.48214401      -0.44679086      -0.09669427
C       -0.77316029       0.64600660      -0.59072767
C        1.18682859       0.72668731       0.40188401
C        1.43352905      -0.60875926       0.21445785
O        0.69766402      -1.50680897       0.76711217
H       -2.17330873      -0.27870599       0.72337149
H       -0.42546256      -1.14670759       0.52793897
H       -1.76859982      -1.22768215      -0.79396430
H       -0.40367487       0.62745040      -1.60834665
H       -0.94934564       1.64128666      -0.20515789
H        1.79155595       1.46140599      -0.11549664
H        0.71460767       1.04880145       1.32042371
H        2.15151064      -0.93618360      -0.54480078
13
Frame=2 idx=000073 GeodesicLength=0.19338565675555497 rxn_smarts="[C:1]([C:2]([C:3]([C:4](=[O:5])[H:13])([H:11])[H:12])([H:9])[H:10])([H:6])([H:7])[H:8]>>[C:1](=[C:2]([H:9])[H:10])([H:6])[H:8].[C:3](=[C:4]([O:5][H:7])[H:13])([H:11])[H:12]"
C       -1.49993188      -0.43718633      -0.08546156
C       -0.77783924       0.63985484      -0.59990727
C        1.18043445       0.72272916       0.40402378
C        1.45647764      -0.60783836       0.20568287
O        0.72021323      -1.52682630       0.72004106
H       -2.16873324      -0.24721210       0.74856791
H       -0.43237705      -1.15694587       0.51323672
H       -1.82859282      -1.20924560      -0.77398645
H       -0.42267251       0.59236835      -1.62218519
H       -0.95352428       1.64733235      -0.24701657
H        1.79258395       1.47220987      -0.08296046
H        0.70632144       1.02434845       1.32908696
H        2.22764030      -0.91358845      -0.50912179
13
Frame=3 idx=000073 GeodesicLength=0.28905147965653843 rxn_smarts="[C:1]([C:2]([C:3]([C:4](=[O:5])[H:13])([H:11])[H:12])([H:9])[H:10])([H:6])([H:7])[H:8]>>[C:1](=[C:2]([H:9])[H:10])([H:6])[H:8].[C:3](=[C:4]([O:5][H:7])[H:13])([H:11])[H:12]"
C       -1.51744460      -0.42735579      -0.07407619
C       -0.78296727       0.63360250      -0.60916625
C        1.17423879       0.71826180       0.40516986
C        1.47984466      -0.60672665       0.19610877
O        0.74305713      -1.54582999       0.66975195
H       -2.16311757      -0.21577908       0.77318825
H       -0.43975927      -1.16730174       0.49811335
H       -1.88772694      -1.18933799      -0.75272390
H       -0.44325517       0.55731399      -1.63546816
H       -0.95755924       1.65218303      -0.28892442
H        1.79292836       1.48223620      -0.05048626
H        0.69895722       0.99897673       1.33677880
H        2.30280391      -0.89024303      -0.46826580
13
Frame=4 idx=000073 GeodesicLength=0.3843489095889522 rxn_smarts="[C:1]([C:2]([C:3]([C:4](=[O:5])[H:13])([H:11])[H:12])([H:9])[H:10])([H:6])([H:7])[H:8]>>[C:1](=[C:2]([H:9])[H:10])([H:6])[H:8].[C:3](=[C:4]([O:5][H:7])[H:13])([H:11])[H:12]"
C       -1.53462160      -0.41737913      -0.06254630
C       -0.78854364       0.62730375      -0.61848929
C        1.16836261       0.71338126       0.40529761
C        1.50377600      -0.60536747       0.18575363
O        0.76634337      -1.56363115       0.61617010
H       -2.15658324      -0.18455963       0.79715045
H       -0.44751820      -1.17780738       0.48268521
H       -1.94575144      -1.16809337      -0.73024372
H       -0.46540079       0.52248675      -1.64817302
H       -0.96159426       1.65590786      -0.33076803
H        1.79269704       1.49152595      -0.01819856
H        0.69258108       0.97277583       1.34345010
H        2.37625309      -0.86654328      -0.42208817
13
Frame=5 idx=000073 GeodesicLength=0.4784724111943332 rxn_smarts="[C:1]([C:2]([C:3]([C:4](=[O:5])[H:13])([H:11])[H:12])([H:9])[H:10])([H:6])([H:7])[H:8]>>[C:1](=[C:2]([H:9])[H:10])([H:6])[H:8].[C:3](=[C:4]([O:5][H:7])[H:13])([H:11])[H:12]"
C       -1.55111724      -0.40727309      -0.05090725
C       -0.79427710       0.62071781      -0.62793283
C        1.16273479       0.70810860       0.40473803
C        1.52818800      -0.60360245       0.17509350
O        0.79005851      -1.57973604       0.55950351
H       -2.14855837      -0.15345111       0.82041539
H       -0.45550518      -1.18845051       0.46676362
H       -2.00249709      -1.14549939      -0.70652113
H       -0.48879069       0.48750632      -1.66025700
H       -0.96540888       1.65822686      -0.37274685
H        1.79173889       1.49993818       0.01427619
H        0.68706514       0.94586363       1.34927349
H        2.44636921      -0.84234881      -0.37169865
13
Frame=6 idx=000073 GeodesicLength=0.5723021383144393 rxn_smarts="[C:1]([C:2]([C:3]([C:4](=[O:5])[H:13])([H:11])[H:12])([H:9])[H:10])([H:6])([H:7])[H:8]>>[C:1](=[C:2]([H:9])[H:10])([H:6])[H:8].[C:3](=[C:4]([O:5][H:7])[H:13])([H:11])[H:12]"
C       -1.56700952      -0.39719127      -0.03920684
C       -0.80027613       0.61406701      -0.63739744
C        1.15758079       0.70263859       0.40337451
C        1.55331477      -0.60142476       0.16418403
O        0.81445519      -1.59401338       0.49998321
H       -2.13966767      -0.12280291       0.84277230
H       -0.46365811      -1.19928405       0.45070238
H       -2.05754295      -1.12185804      -0.68180197
H       -0.51339779       0.45293174      -1.67165741
H       -0.96935235       1.65940136      -0.41449607
H        1.79034268       1.50761777       0.04652800
H        0.68250054       0.91850018       1.35412776
H        2.51271054      -0.81858226      -0.31711246
13
Frame=7 idx=000073 GeodesicLength=0.6655310138179894 rxn_smarts="[C:1]([C:2]([C:3]([C:4](=[O:5])[H:13])([H:11])[H:12])([H:9])[H:10])([H:6])([H:7])[H:8]>>[C:1](=[C:2]([H:9])[H:10])([H:6])[H:8].[C:3](=[C:4]([O:5][H:7])[H:13])([H:11])[H:12]"
C       -1.58217157      -0.38716677      -0.02742135
C       -0.80654978       0.60733591      -0.64683015
C        1.15289161       0.69703030       0.40109258
C        1.57903722      -0.59872353       0.15286962
O        0.83960841      -1.60611613       0.43737118
H       -2.12964867      -0.09269329       0.86432654
H       -0.47185831      -1.21033206       0.43424525
H       -2.11082738      -1.09718943      -0.65609694
H       -0.53933649       0.41883215      -1.68231559
H       -0.97349087       1.65939321      -0.45583877
H        1.78844097       1.51451891       0.07836825
H        0.67895800       0.89076973       1.35787065
H        2.57494687      -0.79565900      -0.25764127
13
Frame=8 idx=000073 GeodesicLength=0.7584673274750688 rxn_smarts="[C:1]([C:2]([C:3]([C:4](=[O:5])[H:13])([H:11])[H:12])([H:9])[H:10])([H:6])([H:7])[H:8]>>[C:1](=[C:2]([H:9])[H:10])([H:6])[H:8].[C:3](=[C:4]([O:5][H:7])[H:13])([H:11])[H:12]"
C       -1.59658342      -0.37730173      -0.01557415
C       -0.81312025       0.60057451      -0.65619724
C        1.14878919       0.69145217       0.39792147
C        1.60542671      -0.59541083       0.14122392
O        0.86572362      -1.61575962       0.37181780
H       -2.11859843      -0.06327872       0.88503536
H       -0.48001011      -1.22165634       0.41738091
H       -2.16221455      -1.07171097      -0.62952078
H       -0.56660685       0.38534685      -1.69219537
H       -0.97798722       1.65832564      -0.49667192
H        1.78618597       1.52076800       0.10971227
H        0.67651178       0.86289925       1.36047539
H        2.63248356      -0.77424820      -0.19340766
13
Frame=9 idx=000073 GeodesicLength=0.8507025330613498 rxn_smarts="[C:1]([C:2]([C:3]([C:4](=[O:5])[H:13])([H:11])[H:12])([H:9])[H:10])([H:6])([H:7])[H:8]>>[C:1](=[C:2]([H:9])[H:10])([H:6])[H:8].[C:3](=[C:4]([O:5][H:7])[H:13])([H:11])[H:12]"
C       -1.61000338      -0.36753801      -0.00361976
C       -0.81965829       0.59358072      -0.66564096
C        1.14506123       0.68579075       0.39421780
C        1.63235955      -0.59147116       0.12993584
O        0.89289000      -1.62263761       0.30380546
H       -2.10603856      -0.03436989       0.90508255
H       -0.48807669      -1.23337280       0.39983548
H       -2.21179708      -1.04513317      -0.60185256
H       -0.59459612       0.35215429      -1.70136724
H       -0.98261833       1.65592173      -0.53739486
H        1.78337938       1.52615125       0.14084812
H        0.67463297       0.83482257       1.36217731
H        2.68446533      -0.75389868      -0.12602719
13
Frame=10 idx=000073 GeodesicLength=0.9427474148036484 rxn_smarts="[C:1]([C:2]([C:3]([C:4](=[O:5])[H:13])([H:11])[H:12])([H:9])[H:10])([H:6])([H:7])[H:8]>>[C:1](=[C:2]([H:9])[H:10])([H:6])[H:8].[C:3](=[C:4]([O:5][H:7])[H:13])([H:11])[H:12]"
C       -1.62255739      -0.35807638       0.00827252
C       -0.82628030       0.58650761      -0.67497193
C        1.14201109       0.68040337       0.39003491
C        1.65990779      -0.58679793       0.11905645
O        0.92135076      -1.62646985       0.23400391
H       -2.09269559      -0.00627013       0.92401488
H       -0.49604219      -1.24535550       0.38209686
H       -2.25905569      -1.01812334      -0.57362021
H       -0.62337945       0.31956499      -1.70963815
H       -0.98765832       1.65247616      -0.57752979
H        1.78041074       1.53097448       0.17163149
H        0.67362805       0.80709925       1.36295100
H        2.73036051      -0.73593276      -0.05630194
13
Frame=11 idx=000073 GeodesicLength=1.0342013169664062 rxn_smarts="[C:1]([C:2]([C:3]([C:4](=[O:5])[H:13])([H:11])[H:12])([H:9])[H:10])([H:6])([H:7])[H:8]>>[C:1](=[C:2]([H:9])[H:10])([H:6])[H:8].[C:3](=[C:4]([O:5][H:7])[H:13])([H:11])[H:12]"
C       -1.63410636      -0.34888454       0.02015658
C       -0.83290384       0.57927320      -0.68421680
C        1.13951244       0.67526732       0.38539497
C        1.68790982      -0.58130295       0.10852950
O        0.95121801      -1.62689988       0.16249945
H       -2.07831585       0.02107267       0.94198784
H       -0.50384607      -1.25753436       0.36406274
H       -2.30392218      -0.99059851      -0.54475315
H       -0.65284103       0.28748900      -1.71704430
H       -0.99307674       1.64785052      -0.61713895
H        1.77711232       1.53514115       0.20205471
H        0.67334213       0.77966933       1.36282329
H        2.76991737      -0.72054294       0.01564412
13
Frame=12 idx=000073 GeodesicLength=1.125618345299779 rxn_smarts="[C:1]([C:2]([C:3]([C:4](=[O:5])[H:13])([H:11])[H:12])([H:9])[H:10])([H:6])([H:7])[H:8]>>[C:1](=[C:2]([H:9])[H:10])([H:6])[H:8].[C:3](=[C:4]([O:5][H:7])[H:13])([H:11])[H:12]"
C       -1.64479841      -0.34000840       0.03202675
C       -0.83954143       0.57189803      -0.69341257
C        1.13765850       0.67050609       0.38045109
C        1.71646460      -0.57498284       0.09847278
O        0.98274108      -1.62383614       0.08966747
H       -2.06318220       0.04769823       0.95895442
H       -0.51155500      -1.26999449       0.34591541
H       -2.34654721      -0.96275235      -0.51532249
H       -0.68288234       0.25588056      -1.72358904
H       -0.99894635       1.64220100      -0.65639059
H        1.77366046       1.53885202       0.23226936
H        0.67375367       0.75261422       1.36191615
H        2.80317464      -0.70807593       0.08904125
13
Frame=13 idx=000073 GeodesicLength=1.2164935889084152 rxn_smarts="[C:1]([C:2]([C:3]([C:4](=[O:5])[H:13])([H:11])[H:12])([H:9])[H:10])([H:6])([H:7])[H:8]>>[C:1](=[C:2]([H:9])[H:10])([H:6])[H:8].[C:3](=[C:4]([O:5][H:7])[H:13])([H:11])[H:12]"
C       -1.65444407      -0.33133342       0.04388853
C       -0.84589233       0.56414145      -0.70264016
C        1.13614865       0.66599142       0.37551448
C        1.74530904      -0.56785763       0.08936041
O        1.01603954      -1.61709672       0.01587390
H       -2.04685631       0.07389619       0.97501789
H       -0.51925027      -1.28271642       0.32745154
H       -2.38704091      -0.93416694      -0.48513740
H       -0.71293011       0.22428819      -1.72923848
H       -1.00497483       1.63518018      -0.69547175
H        1.76966691       1.54191620       0.26252156
H        0.67431033       0.72587262       1.36044859
H        2.82991436      -0.69811511       0.16241088
13
Frame=14 idx=000073 GeodesicLength=1.307281363301335 rxn_smarts="[C:1]([C:2]([C:3]([C:4](=[O:5])[H:13])([H:11])[H:12])([H:9])[H:10])([H:6])([H:7])[H:8]>>[C:1](=[C:2]([H:9])[H:10])([H:6])[H:8].[C:3](=[C:4]([O:5][H:7])[H:13])([H:11])[H:12]"
C       -1.66337317      -0.32290040       0.05562671
C       -0.85203182       0.55606816      -0.71181784
C        1.13520518       0.66190638       0.37085948
C        1.77443775      -0.55991355       0.08126850
O        1.05122110      -1.60661011      -0.05806043
H       -2.03031721       0.09976109       0.98973006
H       -0.52713583      -1.29554774       0.30959192
H       -2.42518158      -0.90547050      -0.45474793
H       -0.74291862       0.19272616      -1.73387389
H       -1.01119312       1.62700992      -0.73438159
H        1.76549164       1.54454656       0.29311032
H        0.67523046       0.69957488       1.35865337
H        2.85056522      -0.69115084       0.23404135
13
Frame=15 idx=000073 GeodesicLength=1.398061542243334 rxn_smarts="[C:1]([C:2]([C:3]([C:4](=[O:5])[H:13])([H:11])[H:12])([H:9])[H:10])([H:6])([H:7])[H:8]>>[C:1](=[C:2]([H:9])[H:10])([H:6])[H:8].[C:3](=[C:4]([O:5][H:7])[H:13])([H:11])[H:12]"
C       -1.67161458      -0.31463691       0.06731264
C       -0.85796433       0.54755977      -0.72103957
C        1.13471013       0.65822775       0.36651182
C        1.80383450      -0.55112656       0.07410698
O        1.08850759      -1.59219809      -0.13245526
H       -2.01330333       0.12549555       1.00328732
H       -0.53527776      -1.30856613       0.29224240
H       -2.46134570      -0.87637839      -0.42395330
H       -0.77282635       0.16090464      -1.73753817
H       -1.01758263       1.61757064      -0.77333645
H        1.76095702       1.54676683       0.32412054
H        0.67638220       0.67357212       1.35657825
H        2.86552323      -0.68719120       0.30416281
13
Frame=16 idx=000073 GeodesicLength=1.488230858207087 rxn_smarts="[C:1]([C:2]([C:3]([C:4](=[O:5])[H:13])([H:11])[H:12])([H:9])[H:10])([H:6])([H:7])[H:8]>>[C:1](=[C:2]([H:9])[H:10])([H:6])[H:8].[C:3](=[C:4]([O:5][H:7])[H:13])([H:11])[H:12]"
C       -1.67908614      -0.30642073       0.07902870
C       -0.86352388       0.53847343      -0.73024762
C        1.13447589       0.65489479       0.36251583
C        1.83325735      -0.54132378       0.06758635
O        1.12790144      -1.57334528      -0.20729905
H       -1.99591102       0.15127699       1.01567713
H       -0.54374017      -1.32148073       0.27587806
H       -2.49515874      -0.84689398      -0.39279945
H       -0.80234293       0.12862822      -1.74009950
H       -1.02389680       1.60656667      -0.81244384
H        1.75579107       1.54839198       0.35567466
H        0.67758497       0.64761228       1.35426937
H        2.87464896      -0.68637985       0.37225936
