13
Frame=0 idx=000511 GeodesicLength=0.0 rxn_smarts="[C:1]([n:2]1[c:3]([H:10])[c:4]([H:11])[c:5]([H:12])[c:6]1[H:13])([H:7])([H:8])[H:9]>>[C-:1]([N+:2]1([H:8])[C:3]([H:10])=[C:4]([H:11])[C:5]([H:12])=[C:6]1[H:13])([H:7])[H:9]"
C       -2.22446334       0.36990486       0.15291836
N       -0.48113515      -0.17515602      -0.43288993
C        0.17899471      -1.14138998       0.31170477
C        1.46674074      -0.75398287       0.45836541
C        1.62388722       0.49781388      -0.23052550
C        0.42496915       0.82053790      -0.76762437
H       -2.16917448      -0.13711902       1.12327966
H       -1.38950274      -0.34055506      -0.95450815
H       -1.95189060       1.41583401       0.33439141
H       -0.34931100      -2.01006137       0.66935777
H        2.23099335      -1.29014676       0.99838441
H        2.52963580       1.07823175      -0.30577006
H        0.11025629       1.66608868      -1.35708378
13
Frame=1 idx=000511 GeodesicLength=0.08490700147821673 rxn_smarts="[C:1]([n:2]1[c:3]([H:10])[c:4]([H:11])[c:5]([H:12])[c:6]1[H:13])([H:7])([H:8])[H:9]>>[C-:1]([N+:2]1([H:8])[C:3]([H:10])=[C:4]([H:11])[C:5]([H:12])=[C:6]1[H:13])([H:7])[H:9]"
C       -2.20522783       0.35369435       0.15559171
N       -0.48711451      -0.16924489      -0.42082701
C        0.17881040      -1.14448496       0.30875502
C        1.46662533      -0.75804328       0.45563681
C        1.62151536       0.50019196      -0.22207100
C        0.42180853       0.82542982      -0.75566006
H       -2.14382242      -0.10356487       1.14974233
H       -1.39929350      -0.35485295      -0.96017511
H       -1.97449827       1.41679753       0.28669167
H       -0.34852496      -2.01649693       0.65969708
H        2.23374998      -1.30147163       0.98421119
H        2.52718219       1.08097106      -0.29565742
H        0.10878970       1.67107480      -1.34593520
13
Frame=2 idx=000511 GeodesicLength=0.16980434563226388 rxn_smarts="[C:1]([n:2]1[c:3]([H:10])[c:4]([H:11])[c:5]([H:12])[c:6]1[H:13])([H:7])([H:8])[H:9]>>[C-:1]([N+:2]1([H:8])[C:3]([H:10])=[C:4]([H:11])[C:5]([H:12])=[C:6]1[H:13])([H:7])[H:9]"
C       -2.18587841       0.33842987       0.15882488
N       -0.49270438      -0.16371741      -0.40929887
C        0.17863681      -1.14738970       0.30595541
C        1.46674420      -0.76234905       0.45230667
C        1.61944930       0.50224486      -0.21415057
C        0.41873293       0.83051394      -0.74338127
H       -2.11881574      -0.06902332       1.17381089
H       -1.40961714      -0.36879446      -0.96504148
H       -1.99719500       1.41454064       0.23934635
H       -0.34798319      -2.02224469       0.65094594
H        2.23637194      -1.31229432       0.97041062
H        2.52511048       1.08325836      -0.28619858
H        0.10714818       1.67682527      -1.33352999
13
Frame=3 idx=000511 GeodesicLength=0.25472163268642395 rxn_smarts="[C:1]([n:2]1[c:3]([H:10])[c:4]([H:11])[c:5]([H:12])[c:6]1[H:13])([H:7])([H:8])[H:9]>>[C-:1]([N+:2]1([H:8])[C:3]([H:10])=[C:4]([H:11])[C:5]([H:12])=[C:6]1[H:13])([H:7])[H:9]"
C       -2.16651719       0.32413108       0.16225971
N       -0.49788400      -0.15844616      -0.39818079
C        0.17848377      -1.14994721       0.30351611
C        1.46702601      -0.76660779       0.44883751
C        1.61769802       0.50406406      -0.20659545
C        0.41576163       0.83586515      -0.73063603
H       -2.09460343      -0.03388264       1.19516780
H       -1.42041520      -0.38244120      -0.96918798
H       -2.01987775       1.40910578       0.19268018
H       -0.34762554      -2.02722145       0.64314915
H        2.23898237      -1.32277830       0.95674766
H        2.52364451       1.08471453      -0.27812669
H        0.10532679       1.68344415      -1.31963118
13
Frame=4 idx=000511 GeodesicLength=0.3396947067145074 rxn_smarts="[C:1]([n:2]1[c:3]([H:10])[c:4]([H:11])[c:5]([H:12])[c:6]1[H:13])([H:7])([H:8])[H:9]>>[C-:1]([N+:2]1([H:8])[C:3]([H:10])=[C:4]([H:11])[C:5]([H:12])=[C:6]1[H:13])([H:7])[H:9]"
C       -2.14713255       0.31092069       0.16592919
N       -0.50272308      -0.15344989      -0.38754191
C        0.17833490      -1.15229230       0.30127498
C        1.46754831      -0.77101307       0.44486198
C        1.61636397       0.50546142      -0.19984785
C        0.41294809       0.84131018      -0.71781521
H       -2.07111521       0.00177679       1.21400237
H       -1.43196019      -0.39588921      -0.97257025
H       -2.04217182       1.40078140       0.14704203
H       -0.34749315      -2.03161716       0.63612154
H        2.24146600      -1.33268270       0.94374944
H        2.52260392       1.08583420      -0.27071479
H        0.10333080       1.69085965      -1.30449152
13
Frame=5 idx=000511 GeodesicLength=0.42450211258929654 rxn_smarts="[C:1]([n:2]1[c:3]([H:10])[c:4]([H:11])[c:5]([H:12])[c:6]1[H:13])([H:7])([H:8])[H:9]>>[C-:1]([N+:2]1([H:8])[C:3]([H:10])=[C:4]([H:11])[C:5]([H:12])=[C:6]1[H:13])([H:7])[H:9]"
C       -2.12746595       0.29899459       0.16989816
N       -0.50718823      -0.14865332      -0.37757860
C        0.17820090      -1.15454702       0.29861828
C        1.46815454      -0.77568472       0.43982235
C        1.61537761       0.50615976      -0.19459952
C        0.41031499       0.84672845      -0.70529472
H       -2.04844709       0.03681143       1.23032006
H       -1.44427628      -0.40898541      -0.97529123
H       -2.06298100       1.39001606       0.10398501
H       -0.34749440      -2.03564110       0.62895845
H        2.24279307      -1.34047906       0.93397063
H        2.52183036       1.08625112      -0.26457884
H        0.10118149       1.69902920      -1.28823004
13
Frame=6 idx=000511 GeodesicLength=0.5095120492227548 rxn_smarts="[C:1]([n:2]1[c:3]([H:10])[c:4]([H:11])[c:5]([H:12])[c:6]1[H:13])([H:7])([H:8])[H:9]>>[C-:1]([N+:2]1([H:8])[C:3]([H:10])=[C:4]([H:11])[C:5]([H:12])=[C:6]1[H:13])([H:7])[H:9]"
C       -2.10846091       0.28772801       0.17298243
N       -0.51124774      -0.14383244      -0.36745286
C        0.17802782      -1.15596668       0.29759155
C        1.46880598      -0.77939676       0.43650622
C        1.61450890       0.50782254      -0.18759491
C        0.40790634       0.85273446      -0.69170634
H       -2.02791310       0.07209511       1.24356016
H       -1.45680723      -0.42238030      -0.97740567
H       -2.08424031       1.37645399       0.06068984
H       -0.34766636      -2.03879931       0.62346479
H        2.24546881      -1.34988447       0.92103538
H        2.52261055       1.08497110      -0.26181262
H        0.09900725       1.70845475      -1.26985799
13
Frame=7 idx=000511 GeodesicLength=0.5944079782755836 rxn_smarts="[C:1]([n:2]1[c:3]([H:10])[c:4]([H:11])[c:5]([H:12])[c:6]1[H:13])([H:7])([H:8])[H:9]>>[C-:1]([N+:2]1([H:8])[C:3]([H:10])=[C:4]([H:11])[C:5]([H:12])=[C:6]1[H:13])([H:7])[H:9]"
C       -2.08880817       0.27815389       0.17664007
N       -0.51503339      -0.13968472      -0.35809971
C        0.17780398      -1.15742385       0.29658036
C        1.46970509      -0.78402304       0.43109556
C        1.61406909       0.50773507      -0.18389224
C        0.40572775       0.85745969      -0.68009870
H       -2.00673705       0.10913728       1.25528250
H       -1.47068562      -0.43643345      -0.97810963
H       -2.10363063       1.36120828       0.01859969
H       -0.34811991      -2.04119261       0.61939218
H        2.24802660      -1.35939619       0.90695966
H        2.52103498       1.08728634      -0.25218880
H        0.09664729       1.71717332      -1.25216095
13
Frame=8 idx=000511 GeodesicLength=0.6793286110881285 rxn_smarts="[C:1]([n:2]1[c:3]([H:10])[c:4]([H:11])[c:5]([H:12])[c:6]1[H:13])([H:7])([H:8])[H:9]>>[C-:1]([N+:2]1([H:8])[C:3]([H:10])=[C:4]([H:11])[C:5]([H:12])=[C:6]1[H:13])([H:7])[H:9]"
C       -2.06947979       0.26963233       0.17972588
N       -0.51849282      -0.13566319      -0.34892542
C        0.17753312      -1.15837000       0.29662909
C        1.47072487      -0.78830868       0.42610625
C        1.61392485       0.50768573      -0.18034035
C        0.40384097       0.86212800      -0.66871488
H       -1.98709962       0.14635130       1.26438800
H       -1.48528452      -0.45104263      -0.97789104
H       -2.12223678       1.34400140      -0.02261863
H       -0.34879244      -2.04285847       0.61682693
H        2.25131208      -1.36975471       0.89075109
H        2.51977163       1.08968988      -0.24246226
H        0.09427846       1.72650905      -1.23347465
13
Frame=9 idx=000511 GeodesicLength=0.7644237576886972 rxn_smarts="[C:1]([n:2]1[c:3]([H:10])[c:4]([H:11])[c:5]([H:12])[c:6]1[H:13])([H:7])([H:8])[H:9]>>[C-:1]([N+:2]1([H:8])[C:3]([H:10])=[C:4]([H:11])[C:5]([H:12])=[C:6]1[H:13])([H:7])[H:9]"
C       -2.05032613       0.26221414       0.18222926
N       -0.52163367      -0.13181613      -0.33993882
C        0.17719680      -1.15874771       0.29779640
C        1.47182163      -0.79229998       0.42137337
C        1.61400832       0.50751092      -0.17718456
C        0.40223921       0.86647498      -0.65785495
H       -1.96869526       0.18397650       1.27096901
H       -1.50067859      -0.46644093      -0.97655451
H       -2.13972188       1.32503959      -0.06306387
H       -0.34968167      -2.04362824       0.61594738
H        2.25529172      -1.38117626       0.87162595
H        2.51827179       1.09280654      -0.23125874
H        0.09190772       1.73608657      -1.21408592
13
Frame=10 idx=000511 GeodesicLength=0.8494645905737777 rxn_smarts="[C:1]([n:2]1[c:3]([H:10])[c:4]([H:11])[c:5]([H:12])[c:6]1[H:13])([H:7])([H:8])[H:9]>>[C-:1]([N+:2]1([H:8])[C:3]([H:10])=[C:4]([H:11])[C:5]([H:12])=[C:6]1[H:13])([H:7])[H:9]"
C       -2.03128925       0.25575386       0.18435337
N       -0.52444995      -0.12806965      -0.33139346
C        0.17688413      -1.15890257       0.29923951
C        1.47302706      -0.79631948       0.41623432
C        1.61436673       0.50708612      -0.17483925
C        0.40091695       0.87068860      -0.64756508
H       -1.95127354       0.22138762       1.27535950
H       -1.51696911      -0.48233122      -0.97428184
H       -2.15596722       1.30463509      -0.10188547
H       -0.35067138      -2.04399967       0.61565214
H        2.25902974      -1.39208969       0.85281287
H        2.51689977       1.09581903      -0.22004191
H        0.08949607       1.74634195      -1.19364471
13
Frame=11 idx=000511 GeodesicLength=0.9345737608888159 rxn_smarts="[C:1]([n:2]1[c:3]([H:10])[c:4]([H:11])[c:5]([H:12])[c:6]1[H:13])([H:7])([H:8])[H:9]>>[C-:1]([N+:2]1([H:8])[C:3]([H:10])=[C:4]([H:11])[C:5]([H:12])=[C:6]1[H:13])([H:7])[H:9]"
C       -2.01252883       0.25012030       0.18576863
N       -0.52693025      -0.12435138      -0.32309636
C        0.17656622      -1.15859885       0.30143625
C        1.47426504      -0.80001212       0.41140126
C        1.61491841       0.50674049      -0.17259795
C        0.39988790       0.87485943      -0.63756962
H       -1.93523025       0.25852662       1.27736775
H       -1.53399655      -0.49893415      -0.97101343
H       -2.17108335       1.28286116      -0.13957297
H       -0.35177616      -2.04375592       0.61635528
H        2.26293105      -1.40324770       0.83269657
H        2.51584787       1.09856046      -0.20920715
H        0.08712890       1.75723164      -1.17196825
13
Frame=12 idx=000511 GeodesicLength=1.0197026212486808 rxn_smarts="[C:1]([n:2]1[c:3]([H:10])[c:4]([H:11])[c:5]([H:12])[c:6]1[H:13])([H:7])([H:8])[H:9]>>[C-:1]([N+:2]1([H:8])[C:3]([H:10])=[C:4]([H:11])[C:5]([H:12])=[C:6]1[H:13])([H:7])[H:9]"
C       -1.99397560       0.24526270       0.18658253
N       -0.52909252      -0.12066588      -0.31519043
C        0.17627536      -1.15799700       0.30399448
C        1.47557125      -0.80359848       0.40639903
C        1.61568705       0.50632665      -0.17080875
C        0.39914522       0.87895739      -0.62805240
H       -1.92028884       0.29524246       1.27722769
H       -1.55190916      -0.51619927      -0.96671073
H       -2.18494122       1.26000239      -0.17584342
H       -0.35296206      -2.04305216       0.61768635
H        2.26665505      -1.41410278       0.81245045
H        2.51503623       1.10106485      -0.19866497
H        0.08479922       1.76875912      -1.14906983
13
Frame=13 idx=000511 GeodesicLength=1.104870446106311 rxn_smarts="[C:1]([n:2]1[c:3]([H:10])[c:4]([H:11])[c:5]([H:12])[c:6]1[H:13])([H:7])([H:8])[H:9]>>[C-:1]([N+:2]1([H:8])[C:3]([H:10])=[C:4]([H:11])[C:5]([H:12])=[C:6]1[H:13])([H:7])[H:9]"
C       -1.97571006       0.24109139       0.18662363
N       -0.53092850      -0.11698361      -0.30759624
C        0.17600551      -1.15699382       0.30715275
C        1.47692247      -0.80694651       0.40152763
C        1.61663537       0.50599106      -0.16914785
C        0.39869625       0.88302627      -0.61890408
H       -1.90662748       0.33154517       1.27488413
H       -1.57063348      -0.53428568      -0.96128947
H       -2.19759095       1.23617661      -0.21101974
H       -0.35422856      -2.04177525       0.61992296
H        2.27038077      -1.42506312       0.79114324
H        2.51451068       1.10334390      -0.18842845
H        0.08256799       1.78087360      -1.12486852
13
Frame=14 idx=000511 GeodesicLength=1.190087341245549 rxn_smarts="[C:1]([n:2]1[c:3]([H:10])[c:4]([H:11])[c:5]([H:12])[c:6]1[H:13])([H:7])([H:8])[H:9]>>[C-:1]([N+:2]1([H:8])[C:3]([H:10])=[C:4]([H:11])[C:5]([H:12])=[C:6]1[H:13])([H:7])[H:9]"
C       -1.95775147       0.23753481       0.18582300
N       -0.53243679      -0.11329117      -0.30030697
C        0.17575935      -1.15556540       0.31096352
C        1.47832910      -0.81007400       0.39676070
C        1.61774891       0.50578215      -0.16751099
C        0.39854321       0.88709124      -0.61010097
H       -1.89426792       0.36742899       1.27036316
H       -1.59017258      -0.55329102      -0.95464990
H       -2.20902511       1.21151762      -0.24527652
H       -0.35557036      -2.03988381       0.62318015
H        2.27410321      -1.43622987       0.76847065
H        2.51426122       1.10545131      -0.17839831
H        0.08047923       1.79352917      -1.09931752
13
Frame=15 idx=000511 GeodesicLength=1.275331051172622 rxn_smarts="[C:1]([n:2]1[c:3]([H:10])[c:4]([H:11])[c:5]([H:12])[c:6]1[H:13])([H:7])([H:8])[H:9]>>[C-:1]([N+:2]1([H:8])[C:3]([H:10])=[C:4]([H:11])[C:5]([H:12])=[C:6]1[H:13])([H:7])[H:9]"
C       -1.94007795       0.23453377       0.18419352
N       -0.53362132      -0.10958559      -0.29337805
C        0.17555578      -1.15374659       0.31528983
C        1.47980952      -0.81306720       0.39188732
C        1.61903012       0.50566385      -0.16597166
C        0.39868251       0.89114803      -0.60168768
H       -1.88308477       0.40287716       1.26373827
H       -1.61059891      -0.57322861      -0.94666579
H       -2.21922145       1.18616069      -0.27864901
H       -0.35696618      -2.03737995       0.62738731
H        2.27770269      -1.44747009       0.74466432
H        2.51423429       1.10743930      -0.16842320
H        0.07855567       1.80665523      -1.07238518
13
Frame=16 idx=000511 GeodesicLength=1.3606050203465208 rxn_smarts="[C:1]([n:2]1[c:3]([H:10])[c:4]([H:11])[c:5]([H:12])[c:6]1[H:13])([H:7])([H:8])[H:9]>>[C-:1]([N+:2]1([H:8])[C:3]([H:10])=[C:4]([H:11])[C:5]([H:12])=[C:6]1[H:13])([H:7])[H:9]"
C       -1.92271362       0.23197556       0.18169928
N       -0.53448609      -0.10580514      -0.28683300
C        0.17540780      -1.15158538       0.31994011
C        1.48131302      -0.81583794       0.38708830
C        1.62047660       0.50569799      -0.16443054
C        0.39909669       0.89535962      -0.59345898
H       -1.87314698       0.43750510       1.25511406
H       -1.63192979      -0.59399354      -0.93734439
H       -2.22814914       1.16031806      -0.31104048
H       -0.35839392      -2.03435922       0.63226328
H        2.28102407      -1.45855479       0.72024815
H        2.51465089       1.10905117      -0.15917082
H        0.07685046       1.82022851      -1.04407497
