14
Frame=0 idx=003992 GeodesicLength=0.0 rxn_smarts="[C:1]([C:2]([N:3]1[C:4]([H:11])([H:12])[C:5]1([H:13])[H:14])([H:9])[H:10])([H:6])([H:7])[H:8]>>[C:1](=[C:2]([H:9])[H:10])([H:6])[H:7].[H:8][H:11].[N:3]1=[C:4]([H:12])[C:5]1([H:13])[H:14]"
C        1.72533803      -0.21674429       0.03091807
C        1.08716241       0.30746543      -1.05400415
N       -1.10471706       0.13444311      -0.82711256
C       -1.46551350      -0.60659401       0.17105137
C       -1.51456483       0.82063881       0.42665500
H        2.20281485      -1.18828256      -0.03277290
H        2.07092777       0.42813583       0.83070065
H        0.55145548      -0.84798588       0.87028826
H        0.99705159      -0.25447110      -1.97205091
H        0.89650909       1.36821974      -1.12950537
H       -0.27581018      -1.04171987       1.01261664
H       -2.00715875      -1.53972693       0.23552928
H       -2.43666176       1.39236221       0.38675925
H       -0.72683308       1.24425956       1.05092740
14
Frame=1 idx=003992 GeodesicLength=0.09810511942587145 rxn_smarts="[C:1]([C:2]([N:3]1[C:4]([H:11])([H:12])[C:5]1([H:13])[H:14])([H:9])[H:10])([H:6])([H:7])[H:8]>>[C:1](=[C:2]([H:9])[H:10])([H:6])[H:7].[H:8][H:11].[N:3]1=[C:4]([H:12])[C:5]1([H:13])[H:14]"
C        1.73078798      -0.20305753       0.03905279
C        1.07775672       0.29100897      -1.05484301
N       -1.10745879       0.15567104      -0.82294559
C       -1.47926555      -0.60040632       0.16436475
C       -1.51277602       0.82421032       0.44099110
H        2.27327463      -1.13971235      -0.02779260
H        2.04770736       0.45935069       0.83674681
H        0.56696323      -0.87971689       0.86626715
H        0.99328825      -0.30276779      -1.95449470
H        0.89945318       1.35000872      -1.17363663
H       -0.28660408      -1.07171732       0.99804988
H       -2.05107306      -1.51694527       0.20266831
H       -2.42847846       1.40640260       0.40952249
H       -0.72357540       1.22767112       1.07604924
14
Frame=2 idx=003992 GeodesicLength=0.19578205569587204 rxn_smarts="[C:1]([C:2]([N:3]1[C:4]([H:11])([H:12])[C:5]1([H:13])[H:14])([H:9])[H:10])([H:6])([H:7])[H:8]>>[C:1](=[C:2]([H:9])[H:10])([H:6])[H:7].[H:8][H:11].[N:3]1=[C:4]([H:12])[C:5]1([H:13])[H:14]"
C        1.73597989      -0.19003024       0.04695663
C        1.06874762       0.27433273      -1.05513958
N       -1.10943128       0.17668075      -0.81847829
C       -1.49276474      -0.59412500       0.15761904
C       -1.51090507       0.82744750       0.45512320
H        2.34137701      -1.08709779      -0.02403209
H        2.02410644       0.48860163       0.84231810
H        0.58356566      -0.91125917       0.86230191
H        0.98916302      -0.35081125      -1.93510697
H        0.90276265       1.32962192      -1.21746111
H       -0.29757389      -1.10128761       0.98305101
H       -2.09412376      -1.49242387       0.16994511
H       -2.42010650       1.41988788       0.43188727
H       -0.72079705       1.21046254       1.10101578
14
Frame=3 idx=003992 GeodesicLength=0.29308578133448693 rxn_smarts="[C:1]([C:2]([N:3]1[C:4]([H:11])([H:12])[C:5]1([H:13])[H:14])([H:9])[H:10])([H:6])([H:7])[H:8]>>[C:1](=[C:2]([H:9])[H:10])([H:6])[H:7].[H:8][H:11].[N:3]1=[C:4]([H:12])[C:5]1([H:13])[H:14]"
C        1.74099617      -0.17771444       0.05462510
C        1.06011546       0.25744304      -1.05489127
N       -1.11061344       0.19746552      -0.81371696
C       -1.50603726      -0.58775015       0.15077519
C       -1.50897826       0.83035194       0.46904304
H        2.40686083      -1.03054698      -0.02162437
H        2.00033613       0.51587900       0.84739924
H        0.60131227      -0.94249178       0.85857001
H        0.98474762      -0.39849754      -1.91394405
H        0.90639004       1.30703440      -1.26085892
H       -0.30878878      -1.13044444       0.96768401
H       -2.13625187      -1.46619990       0.13732079
H       -2.41156357       1.43284745       0.45381513
H       -0.71852533       1.19262388       1.12580307
14
Frame=4 idx=003992 GeodesicLength=0.39010686212473233 rxn_smarts="[C:1]([C:2]([N:3]1[C:4]([H:11])([H:12])[C:5]1([H:13])[H:14])([H:9])[H:10])([H:6])([H:7])[H:8]>>[C:1](=[C:2]([H:9])[H:10])([H:6])[H:7].[H:8][H:11].[N:3]1=[C:4]([H:12])[C:5]1([H:13])[H:14]"
C        1.74594188      -0.16613142       0.06206646
C        1.05185049       0.24032588      -1.05410808
N       -1.11099342       0.21803660      -0.80867212
C       -1.51912463      -0.58127172       0.14378295
C       -1.50700820       0.83292973       0.48276490
H        2.46954059      -0.97010979      -0.02068061
H        1.97652018       0.54123006       0.85201427
H        0.62027279      -0.97335341       0.85522864
H        0.98011155      -0.44578604      -1.89105781
H        0.91029145       1.28219809      -1.30378081
H       -0.32032694      -1.15924943       0.95196838
H       -2.17745876      -1.43827179       0.10473331
H       -2.40285211       1.44533253       0.47531852
H       -0.71676487       1.17412070       1.15042200
14
Frame=5 idx=003992 GeodesicLength=0.4867805360371495 rxn_smarts="[C:1]([C:2]([N:3]1[C:4]([H:11])([H:12])[C:5]1([H:13])[H:14])([H:9])[H:10])([H:6])([H:7])[H:8]>>[C:1](=[C:2]([H:9])[H:10])([H:6])[H:7].[H:8][H:11].[N:3]1=[C:4]([H:12])[C:5]1([H:13])[H:14]"
C        1.75086274      -0.15528143       0.06924508
C        1.04391067       0.22298110      -1.05279149
N       -1.11052966       0.23838589      -0.80333163
C       -1.53203519      -0.57468215       0.13660268
C       -1.50495207       0.83517445       0.49627397
H        2.52905434      -0.90588694      -0.02119149
H        1.95276269       0.56469617       0.85611796
H        0.64050389      -1.00379821       0.85235882
H        0.97533214      -0.49256130      -1.86651363
H        0.91437551       1.25510104      -1.34607411
H       -0.33229054      -1.18773913       0.93594629
H       -2.21763576      -1.40869258       0.07216133
H       -2.39387539       1.45738455       0.49638063
H       -0.71548337       1.15491855       1.17481558
14
Frame=6 idx=003992 GeodesicLength=0.5832402175981595 rxn_smarts="[C:1]([C:2]([N:3]1[C:4]([H:11])([H:12])[C:5]1([H:13])[H:14])([H:9])[H:10])([H:6])([H:7])[H:8]>>[C:1](=[C:2]([H:9])[H:10])([H:6])[H:7].[H:8][H:11].[N:3]1=[C:4]([H:12])[C:5]1([H:13])[H:14]"
C        1.75591655      -0.14515432       0.07618281
C        1.03630334       0.20539591      -1.05094198
N       -1.10922662       0.25852163      -0.79771765
C       -1.54482407      -0.56795912       0.12917941
C       -1.50283323       0.83709513       0.50959211
H        2.58522847      -0.83793839      -0.02330828
H        1.92915730       0.58632733       0.85979889
H        0.66213661      -1.03379580       0.85012571
H        0.97047997      -0.53880617      -1.84036418
H        0.91859488       1.22568912      -1.38772878
H       -0.34476449      -1.21598653       0.91961730
H       -2.25682390      -1.37742913       0.03953405
H       -2.38466019       1.46905611       0.51702751
H       -0.71468462       1.13498425       1.19900306
14
Frame=7 idx=003992 GeodesicLength=0.6794607026644489 rxn_smarts="[C:1]([C:2]([N:3]1[C:4]([H:11])([H:12])[C:5]1([H:13])[H:14])([H:9])[H:10])([H:6])([H:7])[H:8]>>[C:1](=[C:2]([H:9])[H:10])([H:6])[H:7].[H:8][H:11].[N:3]1=[C:4]([H:12])[C:5]1([H:13])[H:14]"
C        1.76118167      -0.13568945       0.08286648
C        1.02900221       0.18755762      -1.04855724
N       -1.10705155       0.27845091      -0.79182347
C       -1.55750759      -0.56107662       0.12145807
C       -1.50059510       0.83868712       0.52272500
H        2.63773130      -0.76632376      -0.02703185
H        1.90571340       0.60620013       0.86308076
H        0.68529387      -1.06334363       0.84858978
H        0.96561895      -0.58448796      -1.81263637
H        0.92285733       1.19391202      -1.42867869
H       -0.35785796      -1.24406589       0.90295339
H       -2.29497217      -1.34447678       0.00680192
H       -2.37509674       1.48039696       0.53729106
H       -0.71431759       1.11425932       1.22296117
14
Frame=8 idx=003992 GeodesicLength=0.7755635435959516 rxn_smarts="[C:1]([C:2]([N:3]1[C:4]([H:11])([H:12])[C:5]1([H:13])[H:14])([H:9])[H:10])([H:6])([H:7])[H:8]>>[C:1](=[C:2]([H:9])[H:10])([H:6])[H:7].[H:8][H:11].[N:3]1=[C:4]([H:12])[C:5]1([H:13])[H:14]"
C        1.76680400      -0.12679062       0.08929363
C        1.02202387       0.16942483      -1.04567943
N       -1.10400385       0.29820565      -0.78566424
C       -1.57014442      -0.55398988       0.11336516
C       -1.49822001       0.83995509       0.53572418
H        2.68634658      -0.69107266      -0.03233067
H        1.88241403       0.62442621       0.86603660
H        0.71017146      -1.09244756       0.84783224
H        0.96083106      -0.62965832      -1.78338505
H        0.92709463       1.15965880      -1.46897819
H       -0.37167533      -1.27208341       0.88587283
H       -2.33213819      -1.30975868      -0.02613096
H       -2.36514862       1.49147429       0.55728455
H       -0.71435520       1.09265626       1.24675935
14
Frame=9 idx=003992 GeodesicLength=0.8713919083254846 rxn_smarts="[C:1]([C:2]([N:3]1[C:4]([H:11])([H:12])[C:5]1([H:13])[H:14])([H:9])[H:10])([H:6])([H:7])[H:8]>>[C:1](=[C:2]([H:9])[H:10])([H:6])[H:7].[H:8][H:11].[N:3]1=[C:4]([H:12])[C:5]1([H:13])[H:14]"
C        1.77273277      -0.11831228       0.09538326
C        1.01529334       0.15102151      -1.04230929
N       -1.09999309       0.31779744      -0.77919722
C       -1.58266920      -0.54665539       0.10488238
C       -1.49555827       0.84087755       0.54854891
H        2.73044529      -0.61243400      -0.03897548
H        1.85915983       0.64109311       0.86859860
H        0.73697205      -1.12115245       0.84774609
H        0.95620047      -0.67420698      -1.75261815
H        0.93109780       1.12295639      -1.50846405
H       -0.38636441      -1.30008612       0.86839654
H       -2.36806999      -1.27331878      -0.05925245
H       -2.35454745       1.50231593       0.57699570
H       -0.71469913       1.07010408       1.27026515
14
Frame=10 idx=003992 GeodesicLength=0.9671310207470125 rxn_smarts="[C:1]([C:2]([N:3]1[C:4]([H:11])([H:12])[C:5]1([H:13])[H:14])([H:9])[H:10])([H:6])([H:7])[H:8]>>[C:1](=[C:2]([H:9])[H:10])([H:6])[H:7].[H:8][H:11].[N:3]1=[C:4]([H:12])[C:5]1([H:13])[H:14]"
C        1.77920642      -0.11011630       0.10115416
C        1.00886650       0.13232503      -1.03846719
N       -1.09506423       0.33723420      -0.77247074
C       -1.59518848      -0.53903225       0.09590540
C       -1.49267361       0.84145637       0.56126118
H        2.76989054      -0.53058665      -0.04706061
H        1.83608400       0.65630348       0.87089921
H        0.76599885      -1.14934858       0.84854708
H        0.95180438      -0.71818422      -1.72039084
H        0.93483899       1.08367922      -1.54720382
H       -0.40203683      -1.32818840       0.85037220
H       -2.40294992      -1.23503538      -0.09266252
H       -2.34339478       1.51295625       0.59654613
H       -0.71538184       1.04653723       1.29357036
14
Frame=11 idx=003992 GeodesicLength=1.0627170540458666 rxn_smarts="[C:1]([C:2]([N:3]1[C:4]([H:11])([H:12])[C:5]1([H:13])[H:14])([H:9])[H:10])([H:6])([H:7])[H:8]>>[C:1](=[C:2]([H:9])[H:10])([H:6])[H:7].[H:8][H:11].[N:3]1=[C:4]([H:12])[C:5]1([H:13])[H:14]"
C        1.78622935      -0.10198697       0.10656542
C        1.00270286       0.11331739      -1.03414508
N       -1.08915715       0.35655283      -0.76546161
C       -1.60769041      -0.53105591       0.08635687
C       -1.48945238       0.84166454       0.57386496
H        2.80424393      -0.44572455      -0.05645876
H        1.81308979       0.67019936       0.87293041
H        0.79756423      -1.17699606       0.85023832
H        0.94769319      -0.76161689      -1.68662257
H        0.93815363       1.04173128      -1.58514516
H       -0.41886963      -1.35649980       0.83164790
H       -2.43669068      -1.19482821      -0.12642264
H       -2.33147693       1.52342545       0.61601281
H       -0.71633981       1.02181754       1.31663913
14
Frame=12 idx=003992 GeodesicLength=1.1583522710959828 rxn_smarts="[C:1]([C:2]([N:3]1[C:4]([H:11])([H:12])[C:5]1([H:13])[H:14])([H:9])[H:10])([H:6])([H:7])[H:8]>>[C:1](=[C:2]([H:9])[H:10])([H:6])[H:7].[H:8][H:11].[N:3]1=[C:4]([H:12])[C:5]1([H:13])[H:14]"
C        1.79395271      -0.09368420       0.11159979
C        0.99685069       0.09391042      -1.02940001
N       -1.08227788       0.37581479      -0.75818773
C       -1.62029084      -0.52263547       0.07611206
C       -1.48588539       0.84148493       0.58644950
H        2.83337041      -0.35792089      -0.06710376
H        1.79012606       0.68295769       0.87476071
H        0.83210717      -1.20399441       0.85294021
H        0.94396088      -0.80466759      -1.65127163
H        0.94096587       0.99686358      -1.62241697
H       -0.43707745      -1.38516824       0.81197775
H       -2.46946740      -1.15248084      -0.16068424
H       -2.31875089       1.53377772       0.63561013
H       -0.71758394       0.99574251       1.33961417
14
Frame=13 idx=003992 GeodesicLength=1.2537288176526553 rxn_smarts="[C:1]([C:2]([N:3]1[C:4]([H:11])([H:12])[C:5]1([H:13])[H:14])([H:9])[H:10])([H:6])([H:7])[H:8]>>[C:1](=[C:2]([H:9])[H:10])([H:6])[H:7].[H:8][H:11].[N:3]1=[C:4]([H:12])[C:5]1([H:13])[H:14]"
C        1.80212058      -0.08493418       0.11613733
C        0.99114120       0.07411145      -1.02417353
N       -1.07429846       0.39504175      -0.75057204
C       -1.63285813      -0.51367043       0.06515134
C       -1.48172945       0.84087002       0.59892676
H        2.85654441      -0.26755316      -0.07867475
H        1.76697353       0.69470211       0.87626201
H        0.87007655      -1.23036017       0.85645761
H        0.94065377      -0.84725858      -1.61416483
H        0.94292617       0.94907618      -1.65872981
H       -0.45694345      -1.41426240       0.79127165
H       -2.50085806      -1.10797468      -0.19544032
H       -2.30475477       1.54402935       0.65529887
H       -0.71899391       0.96818274       1.36224971
14
Frame=14 idx=003992 GeodesicLength=1.349152972652301 rxn_smarts="[C:1]([C:2]([N:3]1[C:4]([H:11])([H:12])[C:5]1([H:13])[H:14])([H:9])[H:10])([H:6])([H:7])[H:8]>>[C:1](=[C:2]([H:9])[H:10])([H:6])[H:7].[H:8][H:11].[N:3]1=[C:4]([H:12])[C:5]1([H:13])[H:14]"
C        1.81104477      -0.07546981       0.12020483
C        0.98569182       0.05383241      -1.01846499
N       -1.06530556       0.41425207      -0.74269864
C       -1.64564942      -0.50407190       0.05327062
C       -1.47712133       0.83978233       0.61140483
H        2.87386325      -0.17484087      -0.09141647
H        1.74388657       0.70562150       0.87757471
H        0.91210344      -1.25576054       0.86119333
H        0.93789780      -0.88953831      -1.57523720
H        0.94405944       0.89806282      -1.69417242
H       -0.47878710      -1.44396712       0.76912665
H       -2.53131747      -1.06099020      -0.23084255
H       -2.28967564       1.55417661       0.67533249
H       -0.72069056       0.93891101       1.38472482
14
Frame=15 idx=003992 GeodesicLength=1.444583055218127 rxn_smarts="[C:1]([C:2]([N:3]1[C:4]([H:11])([H:12])[C:5]1([H:13])[H:14])([H:9])[H:10])([H:6])([H:7])[H:8]>>[C:1](=[C:2]([H:9])[H:10])([H:6])[H:7].[H:8][H:11].[N:3]1=[C:4]([H:12])[C:5]1([H:13])[H:14]"
C        1.82063738      -0.06497655       0.12374135
C        0.98042593       0.03293854      -1.01219271
N       -1.05521904       0.43350337      -0.73453697
C       -1.65871392      -0.49368702       0.04031881
C       -1.47190368       0.83813855       0.62389165
H        2.88494667      -0.07979739      -0.10531996
H        1.72070677       0.71588766       0.87866371
H        0.95888336      -1.28000353       0.86722024
H        0.93576119      -0.93166357      -1.53415577
H        0.94414768       0.84350925      -1.72860141
H       -0.50306663      -1.47446176       0.74514272
H       -2.56081074      -1.01121291      -0.26703096
H       -2.27314790       1.56424794       0.69586557
H       -0.72264708       0.90757742       1.40699372
14
Frame=16 idx=003992 GeodesicLength=1.5400115199473488 rxn_smarts="[C:1]([C:2]([N:3]1[C:4]([H:11])([H:12])[C:5]1([H:13])[H:14])([H:9])[H:10])([H:6])([H:7])[H:8]>>[C:1](=[C:2]([H:9])[H:10])([H:6])[H:7].[H:8][H:11].[N:3]1=[C:4]([H:12])[C:5]1([H:13])[H:14]"
C        1.83085283      -0.05311414       0.12669659
C        0.97529026       0.01124978      -1.00521265
N       -1.04393390       0.45285108      -0.72606343
C       -1.67213215      -0.48233224       0.02607802
C       -1.46591237       0.83582080       0.63639964
H        2.88938833       0.01767238      -0.12054816
H        1.69726549       0.72565900       0.87950848
H        1.01125831      -1.30275760       0.87472792
H        0.93432666      -0.97383485      -1.49045401
H        0.94299524       0.78496577      -1.76184212
H       -0.53033273      -1.50596177       0.71874537
H       -2.58940104      -0.95814629      -0.30415165
H       -2.25479467       1.57422659       0.71709975
H       -0.72487027       0.87370149       1.42901624
