17
Frame=0 idx=011423 GeodesicLength=0.0 rxn_smarts="[C:1]1([H:8])([H:9])[C:2]([H:10])([H:11])[C:3]1([C@@:4]1([H:13])[C:5]([H:14])([H:15])[C:6]([H:16])([H:17])[O:7]1)[H:12]>>[C:1](=[C:2]([H:10])[H:11])([H:8])[H:9].[C:3]([C@@:4]1([H:13])[C:5]([H:14])([H:15])[C:6]([H:16])([H:17])[O:7]1)[H:12]"
C       -2.30199994       0.35289818       1.36541913
C       -2.13098424       1.46831764       0.67402487
C       -0.50390529      -1.48977040      -0.32030114
C        0.94999838      -1.31843334      -0.01670179
C        1.85640543      -0.78039077      -1.13711683
C        1.60696720       0.58241899      -0.47950143
O        0.95749514      -0.03010265       0.65567769
H       -1.52901380      -0.02500803       2.02422302
H       -3.21520258      -0.22658476       1.29978962
H       -2.90038857       1.85487235       0.01495152
H       -1.20961762       2.03545539       0.74238914
H       -0.73949835      -0.68262587      -1.03955258
H        1.36754767      -2.09553698       0.62466209
H        2.88581698      -1.12518345      -1.05922327
H        1.49981888      -0.91160045      -2.15717138
H        2.48288770       1.15263003      -0.16678001
H        0.92367293       1.23864404      -1.02478865
17
Frame=1 idx=011423 GeodesicLength=0.10778157528175449 rxn_smarts="[C:1]1([H:8])([H:9])[C:2]([H:10])([H:11])[C:3]1([C@@:4]1([H:13])[C:5]([H:14])([H:15])[C:6]([H:16])([H:17])[O:7]1)[H:12]>>[C:1](=[C:2]([H:10])[H:11])([H:8])[H:9].[C:3]([C@@:4]1([H:13])[C:5]([H:14])([H:15])[C:6]([H:16])([H:17])[O:7]1)[H:12]"
C       -2.28292638       0.33057383       1.36935980
C       -2.13318496       1.42356065       0.63085691
C       -0.53149324      -1.41575149      -0.29718751
C        0.93118397      -1.30177518      -0.01892538
C        1.84851695      -0.77733918      -1.13610923
C        1.63940027       0.58532184      -0.46543344
O        0.96740920      -0.01798076       0.66252932
H       -1.50981717      -0.03105361       2.03678646
H       -3.21178813      -0.22813976       1.37162045
H       -2.93798562       1.80262504       0.01039572
H       -1.22890812       2.02033063       0.65596950
H       -0.74645784      -0.65107596      -1.06535323
H        1.33036337      -2.09382199       0.61592679
H        2.86874917      -1.15044434      -1.06745394
H        1.48409312      -0.88853363      -2.15576701
H        2.53239791       1.12275610      -0.14281179
H        0.98044748       1.27074781      -1.00440342
17
Frame=2 idx=011423 GeodesicLength=0.21468833130524684 rxn_smarts="[C:1]1([H:8])([H:9])[C:2]([H:10])([H:11])[C:3]1([C@@:4]1([H:13])[C:5]([H:14])([H:15])[C:6]([H:16])([H:17])[O:7]1)[H:12]>>[C:1](=[C:2]([H:10])[H:11])([H:8])[H:9].[C:3]([C@@:4]1([H:13])[C:5]([H:14])([H:15])[C:6]([H:16])([H:17])[O:7]1)[H:12]"
C       -2.26431739       0.31063279       1.37086626
C       -2.13386950       1.38125839       0.58950737
C       -0.55406459      -1.34792530      -0.27323029
C        0.91473163      -1.28692692      -0.02092984
C        1.84006726      -0.77247990      -1.13543434
C        1.66731194       0.58767462      -0.45060101
O        0.97655212      -0.00876813       0.67064552
H       -1.49264659      -0.03765713       2.04674379
H       -3.20617427      -0.22286602       1.43623809
H       -2.96910398       1.75672741       0.00767974
H       -1.24640284       2.00247844       0.57115348
H       -0.75532287      -0.62936539      -1.08628604
H        1.29806660      -2.09291949       0.60617470
H        2.85168312      -1.17025593      -1.07741538
H        1.46794787      -0.86363548      -2.15429823
H        2.57494309       1.09451724      -0.11912161
H        1.03059840       1.29951079      -0.98169222
17
Frame=3 idx=011423 GeodesicLength=0.32100617217908395 rxn_smarts="[C:1]1([H:8])([H:9])[C:2]([H:10])([H:11])[C:3]1([C@@:4]1([H:13])[C:5]([H:14])([H:15])[C:6]([H:16])([H:17])[O:7]1)[H:12]>>[C:1](=[C:2]([H:10])[H:11])([H:8])[H:9].[C:3]([C@@:4]1([H:13])[C:5]([H:14])([H:15])[C:6]([H:16])([H:17])[O:7]1)[H:12]"
C       -2.24619532       0.29254209       1.37037418
C       -2.13338482       1.34098640       0.54969933
C       -0.57242368      -1.28563932      -0.24893495
C        0.90024126      -1.27363283      -0.02282437
C        1.83133103      -0.76603306      -1.13500689
C        1.69149385       0.58971084      -0.43518134
O        0.98490266      -0.00197842       0.67970083
H       -1.47720978      -0.04502423       2.05450872
H       -3.19895397      -0.21124179       1.49528531
H       -2.99473396       1.71668548       0.00669641
H       -1.26236240       1.98190574       0.48754124
H       -0.76608286      -0.61652180      -1.10315863
H        1.26978700      -2.09276246       0.59553453
H        2.83489064      -1.18537059      -1.08870897
H        1.45172906      -0.83713604      -2.15270741
H        2.61176023       1.06786153      -0.09570536
H        1.07521105       1.32564846      -0.95711262
17
Frame=4 idx=011423 GeodesicLength=0.42700552383024454 rxn_smarts="[C:1]1([H:8])([H:9])[C:2]([H:10])([H:11])[C:3]1([C@@:4]1([H:13])[C:5]([H:14])([H:15])[C:6]([H:16])([H:17])[O:7]1)[H:12]>>[C:1](=[C:2]([H:10])[H:11])([H:8])[H:9].[C:3]([C@@:4]1([H:13])[C:5]([H:14])([H:15])[C:6]([H:16])([H:17])[O:7]1)[H:12]"
C       -2.22837978       0.27626439       1.36878180
C       -2.13168580       1.30280506       0.51185409
C       -0.58750353      -1.22807344      -0.22445958
C        0.88715341      -1.26159523      -0.02467747
C        1.82212126      -0.75805341      -1.13483868
C        1.71246051       0.59163534      -0.41917730
O        0.99243143       0.00276501       0.68959571
H       -1.46311219      -0.05318161       2.06085446
H       -3.18987962      -0.19421318       1.54933232
H       -3.01453716       1.68017928       0.00495766
H       -1.27677384       1.95905845       0.40549639
H       -0.77902157      -0.61144694      -1.11619732
H        1.24460777      -2.09330751       0.58395709
H        2.81812583      -1.19639109      -1.10134187
H        1.43511094      -0.80891464      -2.15096352
H        2.64381995       1.04257346      -0.07249823
H        1.11506239       1.34989606      -0.93067555
17
Frame=5 idx=011423 GeodesicLength=0.5328268230064552 rxn_smarts="[C:1]1([H:8])([H:9])[C:2]([H:10])([H:11])[C:3]1([C@@:4]1([H:13])[C:5]([H:14])([H:15])[C:6]([H:16])([H:17])[O:7]1)[H:12]>>[C:1](=[C:2]([H:10])[H:11])([H:8])[H:9].[C:3]([C@@:4]1([H:13])[C:5]([H:14])([H:15])[C:6]([H:16])([H:17])[O:7]1)[H:12]"
C       -2.21082265       0.26148442       1.36623025
C       -2.12884030       1.26638636       0.47561696
C       -0.59980100      -1.17481251      -0.20010386
C        0.87524268      -1.25063850      -0.02652385
C        1.81255316      -0.74867179      -1.13486171
C        1.73067663       0.59355170      -0.40267238
O        0.99912754       0.00576830       0.70014191
H       -1.45018366      -0.06229740       2.06594286
H       -3.17906227      -0.17212011       1.59907894
H       -3.02943832       1.64718204       0.00282129
H       -1.28979046       1.93396427       0.32469867
H       -0.79403468      -0.61366401      -1.12575118
H        1.22203106      -2.09444894       0.57155066
H        2.80147721      -1.20374908      -1.11508633
H        1.41820843      -0.77911913      -2.14898711
H        2.67183775       1.01856189      -0.04948089
H        1.15081887       1.37262251      -0.90261422
17
Frame=6 idx=011423 GeodesicLength=0.6386301765908621 rxn_smarts="[C:1]1([H:8])([H:9])[C:2]([H:10])([H:11])[C:3]1([C@@:4]1([H:13])[C:5]([H:14])([H:15])[C:6]([H:16])([H:17])[O:7]1)[H:12]>>[C:1](=[C:2]([H:10])[H:11])([H:8])[H:9].[C:3]([C@@:4]1([H:13])[C:5]([H:14])([H:15])[C:6]([H:16])([H:17])[O:7]1)[H:12]"
C       -2.19334935       0.24818340       1.36315657
C       -2.12466994       1.23172702       0.44109340
C       -0.60987999      -1.12533820      -0.17600000
C        0.86419180      -1.24056973      -0.02840117
C        1.80249591      -0.73791356      -1.13507900
C        1.74648176       0.59554775      -0.38564959
O        1.00498297       0.00726034       0.71127148
H       -1.43820213      -0.07249233       2.07015730
H       -3.16634472      -0.14541675       1.64488866
H       -3.03963170       1.61637529      -0.00094891
H       -1.30137763       1.90692099       0.24524494
H       -0.81117950      -0.62256170      -1.13183566
H        1.20151840      -2.09611862       0.55828800
H        2.78474929      -1.20779164      -1.12996833
H        1.40077617      -0.74766265      -2.14672609
H        2.69641811       0.99562400      -0.02659260
H        1.18302055       1.39422638      -0.87289903
17
Frame=7 idx=011423 GeodesicLength=0.7445236381041987 rxn_smarts="[C:1]1([H:8])([H:9])[C:2]([H:10])([H:11])[C:3]1([C@@:4]1([H:13])[C:5]([H:14])([H:15])[C:6]([H:16])([H:17])[O:7]1)[H:12]>>[C:1](=[C:2]([H:10])[H:11])([H:8])[H:9].[C:3]([C@@:4]1([H:13])[C:5]([H:14])([H:15])[C:6]([H:16])([H:17])[O:7]1)[H:12]"
C       -2.17585473       0.23626491       1.35968834
C       -2.11910236       1.19870060       0.40808590
C       -0.61812171      -1.07931272      -0.15230673
C        0.85382832      -1.23124469      -0.03030693
C        1.79192772      -0.72583580      -1.13545364
C        1.76016233       0.59767227      -0.36814159
O        1.00998671       0.00745578       0.72288278
H       -1.42706840      -0.08392429       2.07362661
H       -3.15162452      -0.11450716       1.68693823
H       -3.04566414       1.58755250      -0.00628967
H       -1.31158000       1.87798574       0.16692473
H       -0.83036284      -0.63779211      -1.13444617
H        1.18273698      -2.09820484       0.54424937
H        2.76787718      -1.20877806      -1.14591048
H        1.38272286      -0.71459348      -2.14409690
H        2.71802277       0.97362439      -0.00382521
H        1.21211384       1.41493696      -0.84161863
17
Frame=8 idx=011423 GeodesicLength=0.8505866558809604 rxn_smarts="[C:1]1([H:8])([H:9])[C:2]([H:10])([H:11])[C:3]1([C@@:4]1([H:13])[C:5]([H:14])([H:15])[C:6]([H:16])([H:17])[O:7]1)[H:12]>>[C:1](=[C:2]([H:10])[H:11])([H:8])[H:9].[C:3]([C@@:4]1([H:13])[C:5]([H:14])([H:15])[C:6]([H:16])([H:17])[O:7]1)[H:12]"
C       -2.15814157       0.22578070       1.35595448
C       -2.11209552       1.16726410       0.37638111
C       -0.62485981      -1.03643494      -0.12913909
C        0.84399514      -1.22250984      -0.03216235
C        1.78081023      -0.71255231      -1.13590241
C        1.77194590       0.59996566      -0.35024710
O        1.01411473       0.00664711       0.73484892
H       -1.41667773      -0.09667464       2.07650024
H       -3.13475095      -0.08055248       1.72464392
H       -3.04806770       1.56123961      -0.01238253
H       -1.32043963       1.84711903       0.08928426
H       -0.85142505      -0.65906435      -1.13345493
H        1.16538684      -2.10050878       0.52965824
H        2.75076777      -1.20697771      -1.16274637
H        1.36395334      -0.68012624      -2.14096536
H        2.73700752       0.95250520       0.01872757
H        1.23847648       1.43487988      -0.80899860
17
Frame=9 idx=011423 GeodesicLength=0.9569979920858954 rxn_smarts="[C:1]1([H:8])([H:9])[C:2]([H:10])([H:11])[C:3]1([C@@:4]1([H:13])[C:5]([H:14])([H:15])[C:6]([H:16])([H:17])[O:7]1)[H:12]>>[C:1](=[C:2]([H:10])[H:11])([H:8])[H:9].[C:3]([C@@:4]1([H:13])[C:5]([H:14])([H:15])[C:6]([H:16])([H:17])[O:7]1)[H:12]"
C       -2.14005256       0.21673917       1.35205394
C       -2.10340550       1.13738924       0.34589793
C       -0.63041227      -0.99644269      -0.10665210
C        0.83454020      -1.21428162      -0.03403918
C        1.76904210      -0.69800504      -1.13645907
C        1.78198501       0.60244522      -0.33190931
O        1.01730596       0.00488902       0.74713998
H       -1.40698634      -0.11099997       2.07881423
H       -3.11575138      -0.04331525       1.75882092
H       -3.04687681       1.53631128      -0.02027725
H       -1.32792066       1.81448674       0.01244850
H       -0.87430043      -0.68592970      -1.12865134
H        1.14923755      -2.10302469       0.51442407
H        2.73327718      -1.20247326      -1.18056890
H        1.34427486      -0.64409385      -2.13730887
H        2.75364758       0.93204895       0.04118394
H        1.26239550       1.45425645      -0.77491748
17
Frame=10 idx=011423 GeodesicLength=1.0638163326123575 rxn_smarts="[C:1]1([H:8])([H:9])[C:2]([H:10])([H:11])[C:3]1([C@@:4]1([H:13])[C:5]([H:14])([H:15])[C:6]([H:16])([H:17])[O:7]1)[H:12]>>[C:1](=[C:2]([H:10])[H:11])([H:8])[H:9].[C:3]([C@@:4]1([H:13])[C:5]([H:14])([H:15])[C:6]([H:16])([H:17])[O:7]1)[H:12]"
C       -2.12142539       0.20914699       1.34799063
C       -2.09300801       1.10900528       0.31640769
C       -0.63502324      -0.95925097      -0.08499081
C        0.82539047      -1.20649278      -0.03590313
C        1.75660610      -0.68225370      -1.13704432
C        1.79036754       0.60514352      -0.31318072
O        1.01947973       0.00236794       0.75964141
H       -1.39805373      -0.12719096       2.08055803
H       -3.09445368      -0.00334758       1.78916160
H       -3.04240965       1.51351268      -0.02907769
H       -1.33406197       1.77972882      -0.06419087
H       -0.89871748      -0.71812896      -1.11981583
H        1.13417813      -2.10560909       0.49869091
H        2.71536824      -1.19535514      -1.19922509
H        1.32363332      -0.60666705      -2.13299640
H        2.76808453       0.91228298       0.06350915
H        1.28404509       1.47310801      -0.73953456
17
Frame=11 idx=011423 GeodesicLength=1.171215938918261 rxn_smarts="[C:1]1([H:8])([H:9])[C:2]([H:10])([H:11])[C:3]1([C@@:4]1([H:13])[C:5]([H:14])([H:15])[C:6]([H:16])([H:17])[O:7]1)[H:12]>>[C:1](=[C:2]([H:10])[H:11])([H:8])[H:9].[C:3]([C@@:4]1([H:13])[C:5]([H:14])([H:15])[C:6]([H:16])([H:17])[O:7]1)[H:12]"
C       -2.10210507       0.20299370       1.34376481
C       -2.08070194       1.08203682       0.28775010
C       -0.63895603      -0.92484130      -0.06431679
C        0.81645913      -1.19913826      -0.03782872
C        1.74344207      -0.66524409      -1.13765669
C        1.79709987       0.60807716      -0.29400889
O        1.02049887      -0.00090892       0.77231080
H       -1.38999464      -0.14567022       2.08163745
H       -3.07066975       0.03981610       1.81629917
H       -3.03467493       1.49240213      -0.03918457
H       -1.33883281       1.74266400      -0.14078137
H       -0.92448108      -0.75522816      -1.10671355
H        1.12014020      -2.10826607       0.48238933
H        2.69698659      -1.18557001      -1.21871658
H        1.30192345      -0.56777939      -2.12798548
H        2.78037509       0.89313837       0.08581945
H        1.30349100       1.49151815      -0.70277845
17
Frame=12 idx=011423 GeodesicLength=1.2793859247583115 rxn_smarts="[C:1]1([H:8])([H:9])[C:2]([H:10])([H:11])[C:3]1([C@@:4]1([H:13])[C:5]([H:14])([H:15])[C:6]([H:16])([H:17])[O:7]1)[H:12]>>[C:1](=[C:2]([H:10])[H:11])([H:8])[H:9].[C:3]([C@@:4]1([H:13])[C:5]([H:14])([H:15])[C:6]([H:16])([H:17])[O:7]1)[H:12]"
C       -2.08179343       0.19844233       1.33939997
C       -2.06629929       1.05646249       0.25971304
C       -0.64245428      -0.89328238      -0.04471379
C        0.80766358      -1.19222955      -0.03982940
C        1.72947089      -0.64698486      -1.13823280
C        1.80210414       0.61127229      -0.27439201
O        1.02019651      -0.00487846       0.78507720
H       -1.38294665      -0.16675890       2.08199145
H       -3.04410414       0.08589357       1.84015783
H       -3.02363717       1.47332882      -0.05024791
H       -1.34222255       1.70293295      -0.21774683
H       -0.95131419      -0.79680226      -1.08907706
H        1.10709228      -2.11095875       0.46555304
H        2.67806023      -1.17308214      -1.23893838
H        1.27904623      -0.52752636      -2.12216484
H        2.79045469       0.87466608       0.10814536
H        1.32068314       1.50950513      -0.66469485
17
Frame=13 idx=011423 GeodesicLength=1.388634883297894 rxn_smarts="[C:1]1([H:8])([H:9])[C:2]([H:10])([H:11])[C:3]1([C@@:4]1([H:13])[C:5]([H:14])([H:15])[C:6]([H:16])([H:17])[O:7]1)[H:12]>>[C:1](=[C:2]([H:10])[H:11])([H:8])[H:9].[C:3]([C@@:4]1([H:13])[C:5]([H:14])([H:15])[C:6]([H:16])([H:17])[O:7]1)[H:12]"
C       -2.06019223       0.19558195       1.33491121
C       -2.04956226       1.03221113       0.23214075
C       -0.64580661      -0.86468349      -0.02635699
C        0.79889593      -1.18580482      -0.04201384
C        1.71466113      -0.62745463      -1.13873549
C        1.80524596       0.61472967      -0.25428494
O        1.01833448      -0.00958398       0.79788873
H       -1.37714667      -0.19099336       2.08142140
H       -3.01420945       0.13550608       1.86140720
H       -3.00925545       1.45584596      -0.06261316
H       -1.34425641       1.66026402      -0.29514719
H       -0.97898093      -0.84209471      -1.06683806
H        1.09499227      -2.11369871       0.44811347
H        2.65861166      -1.15778813      -1.25973490
H        1.25500963      -0.48596735      -2.11551719
H        2.79819319       0.85688008       0.13063255
H        1.33546576       1.52705029      -0.62527355
17
Frame=14 idx=011423 GeodesicLength=1.4993219830989495 rxn_smarts="[C:1]1([H:8])([H:9])[C:2]([H:10])([H:11])[C:3]1([C@@:4]1([H:13])[C:5]([H:14])([H:15])[C:6]([H:16])([H:17])[O:7]1)[H:12]>>[C:1](=[C:2]([H:10])[H:11])([H:8])[H:9].[C:3]([C@@:4]1([H:13])[C:5]([H:14])([H:15])[C:6]([H:16])([H:17])[O:7]1)[H:12]"
C       -2.03680674       0.19477167       1.33030401
C       -2.03021423       1.00914698       0.20464334
C       -0.64922630      -0.83946537      -0.00913294
C        0.79013242      -1.18003419      -0.04445037
C        1.69884659      -0.60655197      -1.13910606
C        1.80623292       0.61847890      -0.23352644
O        1.01471467      -0.01522030       0.81078837
H       -1.37292985      -0.21852606       2.07982081
H       -2.98033639       0.18881864       1.87997924
H       -2.99122523       1.44053210      -0.07593490
H       -1.34490264       1.61383778      -0.37364761
H       -1.00718816      -0.89082948      -1.03976828
H        1.08404735      -2.11664667       0.42987547
H        2.63854368      -1.13939787      -1.28113229
H        1.22957776      -0.44300199      -2.10789679
H        2.80330134       0.83992288       0.15343109
H        1.34743278       1.54416496      -0.58424665
17
Frame=15 idx=011423 GeodesicLength=1.6120527444351784 rxn_smarts="[C:1]1([H:8])([H:9])[C:2]([H:10])([H:11])[C:3]1([C@@:4]1([H:13])[C:5]([H:14])([H:15])[C:6]([H:16])([H:17])[O:7]1)[H:12]>>[C:1](=[C:2]([H:10])[H:11])([H:8])[H:9].[C:3]([C@@:4]1([H:13])[C:5]([H:14])([H:15])[C:6]([H:16])([H:17])[O:7]1)[H:12]"
C       -2.01111023       0.19625159       1.32549191
C       -2.00793420       0.98686774       0.17671321
C       -0.65295924      -0.81824723       0.00701305
C        0.78135080      -1.17517017      -0.04733989
C        1.68185813      -0.58405153      -1.13930232
C        1.80463627       0.62252887      -0.21180366
O        1.00906564      -0.02223095       0.82389569
H       -1.37083553      -0.24964552       2.07688833
H       -2.94121547       0.24743459       1.89662988
H       -2.96917205       1.42732793      -0.09047593
H       -1.34415725       1.56265178      -0.45367451
H       -1.03569544      -0.94267686      -1.00788997
H        1.07454283      -2.12007783       0.41039589
H        2.61782824      -1.11737207      -1.30317001
H        1.20251980      -0.39834504      -2.09919529
H        2.80535677       0.82393408       0.17689461
H        1.35592092       1.56082062      -0.54107100
17
Frame=16 idx=011423 GeodesicLength=1.7278261655016391 rxn_smarts="[C:1]1([H:8])([H:9])[C:2]([H:10])([H:11])[C:3]1([C@@:4]1([H:13])[C:5]([H:14])([H:15])[C:6]([H:16])([H:17])[O:7]1)[H:12]>>[C:1](=[C:2]([H:10])[H:11])([H:8])[H:9].[C:3]([C@@:4]1([H:13])[C:5]([H:14])([H:15])[C:6]([H:16])([H:17])[O:7]1)[H:12]"
C       -1.98213830       0.20076621       1.32041135
C       -1.98217949       0.96477957       0.14750720
C       -0.65719567      -0.80206824       0.02259557
C        0.77259977      -1.17161824      -0.05085612
C        1.66319784      -0.55949370      -1.13929710
C        1.79980775       0.62690091      -0.18856820
O        1.00120521      -0.03137622       0.83754747
H       -1.37154528      -0.28385587       2.07255661
H       -2.89539741       0.31237449       1.91109669
H       -2.94208260       1.41710873      -0.10622027
H       -1.34179948       1.50490490      -0.53624793
H       -1.06435959      -0.99804484      -0.97085497
H        1.06708472      -2.12445599       0.38894067
H        2.59610669      -1.09074444      -1.32629759
H        1.17300225      -0.35129645      -2.08910420
H        2.80378926       0.80909578       0.20140667
H        1.35990434       1.57702340      -0.49461585
