14
Frame=0 idx=009193 GeodesicLength=0.0 rxn_smarts="[O:1]([C:2]([C:3]#[C:4][C@@:5]1([H:11])[C:6]([H:12])([H:13])[N:7]1[H:14])([H:9])[H:10])[H:8]>>[C:2](=[C:3]=[C:4]1[C@@:5]2([H:11])[C@:6]1([H:13])[N:7]2[H:14])([H:9])[H:10].[O:1]([H:8])[H:12]"
O        0.91045563      -1.55956145      -0.53922386
C        1.99818349      -0.04329754      -0.36570092
C        1.20152306       1.04162896      -0.07123221
C       -0.05868671       1.12547269       0.00336055
C       -1.42344762       1.31878280       0.17649053
C       -1.33021972      -0.22819265      -0.02303884
N       -1.98328331       0.38876747       1.12103565
H        1.13635383      -2.18218884       0.15618680
H        2.60388920      -0.45312712       0.43595942
H        2.45720087      -0.10567105      -1.34601367
H       -2.06849607       1.92946068      -0.43505519
H       -0.04114948      -1.05344443      -0.22324275
H       -2.00817004      -0.49345163      -0.83265544
H       -1.39415310       0.31482217       1.94312988
14
Frame=1 idx=009193 GeodesicLength=0.11164764572703476 rxn_smarts="[O:1]([C:2]([C:3]#[C:4][C@@:5]1([H:11])[C:6]([H:12])([H:13])[N:7]1[H:14])([H:9])[H:10])[H:8]>>[C:2](=[C:3]=[C:4]1[C@@:5]2([H:11])[C@:6]1([H:13])[N:7]2[H:14])([H:9])[H:10].[O:1]([H:8])[H:12]"
O        0.91628378      -1.58225115      -0.53497661
C        2.01191842      -0.04697497      -0.37342790
C        1.20195338       1.02354815      -0.06188108
C       -0.05573191       1.11516404       0.02322266
C       -1.42373641       1.32022002       0.17912915
C       -1.34837590      -0.22123875      -0.03050091
N       -2.00118165       0.39237791       1.11630720
H        1.16441624      -2.16021011       0.19049148
H        2.64955835      -0.43042782       0.41698184
H        2.45499981      -0.10174567      -1.36159630
H       -2.05196575       1.95127172      -0.42894628
H       -0.07270106      -1.08025134      -0.23591590
H       -2.02800834      -0.48281322      -0.83958563
H       -1.41742896       0.30333119       1.94069829
14
Frame=2 idx=009193 GeodesicLength=0.2232004914624572 rxn_smarts="[O:1]([C:2]([C:3]#[C:4][C@@:5]1([H:11])[C:6]([H:12])([H:13])[N:7]1[H:14])([H:9])[H:10])[H:8]>>[C:2](=[C:3]=[C:4]1[C@@:5]2([H:11])[C@:6]1([H:13])[N:7]2[H:14])([H:9])[H:10].[O:1]([H:8])[H:12]"
O        0.92213315      -1.60518328      -0.52988347
C        2.02611728      -0.05045019      -0.38077630
C        1.20238506       1.00492419      -0.05279137
C       -0.05266227       1.10389416       0.04341680
C       -1.42356813       1.32137823       0.18169615
C       -1.36623838      -0.21434466      -0.03785065
N       -2.01898419       0.39624092       1.11141779
H        1.19104966      -2.13704633       0.22266287
H        2.69505953      -0.40559412       0.39745802
H        2.45284953      -0.09817981      -1.37658011
H       -2.03436662       1.97254994      -0.42263246
H       -0.10509206      -1.10807298      -0.24788459
H       -2.04762247      -0.47219580      -0.84635133
H       -1.44106008       0.29207972       1.93809864
14
Frame=3 idx=009193 GeodesicLength=0.334662267148373 rxn_smarts="[O:1]([C:2]([C:3]#[C:4][C@@:5]1([H:11])[C:6]([H:12])([H:13])[N:7]1[H:14])([H:9])[H:10])[H:8]>>[C:2](=[C:3]=[C:4]1[C@@:5]2([H:11])[C@:6]1([H:13])[N:7]2[H:14])([H:9])[H:10].[O:1]([H:8])[H:12]"
O        0.92794297      -1.62829866      -0.52430681
C        2.04075993      -0.05370415      -0.38760207
C        1.20277612       0.98580716      -0.04400048
C       -0.04953112       1.09173244       0.06371282
C       -1.42296501       1.32227522       0.18410243
C       -1.38378592      -0.20751984      -0.04498154
N       -2.03656737       0.40048831       1.10646669
H        1.21639111      -2.11316850       0.25211140
H        2.74000592      -0.37859759       0.37769172
H        2.45105190      -0.09491581      -1.39069198
H       -2.01581200       1.99318557      -0.41622759
H       -0.13836920      -1.13689450      -0.25891318
H       -2.06706023      -0.46174079      -0.85274616
H       -1.46483711       0.28135113       1.93538475
14
Frame=4 idx=009193 GeodesicLength=0.4460249437900631 rxn_smarts="[O:1]([C:2]([C:3]#[C:4][C@@:5]1([H:11])[C:6]([H:12])([H:13])[N:7]1[H:14])([H:9])[H:10])[H:8]>>[C:2](=[C:3]=[C:4]1[C@@:5]2([H:11])[C@:6]1([H:13])[N:7]2[H:14])([H:9])[H:10].[O:1]([H:8])[H:12]"
O        0.93366434      -1.65155605      -0.51860731
C        2.05583994      -0.05672146      -0.39375551
C        1.20308698       0.96623225      -0.03553246
C       -0.04639335       1.07875720       0.08385139
C       -1.42195487       1.32293028       0.18625882
C       -1.40102295      -0.20077307      -0.05180470
N       -2.05380093       0.40523781       1.10155640
H        1.24058122      -2.08904688       0.27834329
H        2.78406983      -0.34939967       0.35800128
H        2.44991641      -0.09188244      -1.40367648
H       -1.99643260       2.01308788      -0.40983561
H       -0.17262292      -1.16669056      -0.26883438
H       -2.08641063      -0.45157671      -0.85857232
H       -1.48852049       0.27140141       1.93260759
14
Frame=5 idx=009193 GeodesicLength=0.5572989394813419 rxn_smarts="[O:1]([C:2]([C:3]#[C:4][C@@:5]1([H:11])[C:6]([H:12])([H:13])[N:7]1[H:14])([H:9])[H:10])[H:8]>>[C:2](=[C:3]=[C:4]1[C@@:5]2([H:11])[C@:6]1([H:13])[N:7]2[H:14])([H:9])[H:10].[O:1]([H:8])[H:12]"
O        0.93927576      -1.67494315      -0.51310843
C        2.07137073      -0.05949210      -0.39910062
C        1.20328841       0.94621365      -0.02739939
C       -0.04329751       1.06504799       0.10358551
C       -1.42056824       1.32336493       0.18809080
C       -1.41797367      -0.19410964      -0.05825848
N       -2.07056747       0.41058044       1.09678258
H        1.26374038      -2.06512303       0.30102448
H        2.82701055      -0.31793262       0.33867066
H        2.44971923      -0.08900716      -1.41533204
H       -1.97635596       2.03219588      -0.40354455
H       -0.20797893      -1.19742475      -0.27755892
H       -2.10578301      -0.44179794      -0.86366838
H       -1.51188029       0.26242749       1.92981679
14
Frame=6 idx=009193 GeodesicLength=0.668482981906319 rxn_smarts="[O:1]([C:2]([C:3]#[C:4][C@@:5]1([H:11])[C:6]([H:12])([H:13])[N:7]1[H:14])([H:9])[H:10])[H:8]>>[C:2](=[C:3]=[C:4]1[C@@:5]2([H:11])[C@:6]1([H:13])[N:7]2[H:14])([H:9])[H:10].[O:1]([H:8])[H:12]"
O        0.94477074      -1.69846556      -0.50807391
C        2.08738294      -0.06200949      -0.40352258
C        1.20336556       0.92574266      -0.01959238
C       -0.04027883       1.05067501       0.12270667
C       -1.41883085       1.32359737       0.18953930
C       -1.43467351      -0.18753206      -0.06430719
N       -2.08677267       0.41657879       1.09222167
H        1.28597247      -2.04177086       0.31997141
H        2.86866773      -0.28411010       0.31991397
H        2.45068063      -0.08622280      -1.42551958
H       -1.95568704       2.05047335      -0.39742699
H       -0.24458818      -1.22905772      -0.28504800
H       -2.12528644      -0.43246228      -0.86791647
H       -1.53472255       0.25456369       1.92705407
14
Frame=7 idx=009193 GeodesicLength=0.7795821929296892 rxn_smarts="[O:1]([C:2]([C:3]#[C:4][C@@:5]1([H:11])[C:6]([H:12])([H:13])[N:7]1[H:14])([H:9])[H:10])[H:8]>>[C:2](=[C:3]=[C:4]1[C@@:5]2([H:11])[C@:6]1([H:13])[N:7]2[H:14])([H:9])[H:10].[O:1]([H:8])[H:12]"
O        0.95016060      -1.72214751      -0.50371205
C        2.10392113      -0.06426995      -0.40692863
C        1.20331635       0.90479033      -0.01210144
C       -0.03735796       1.03569301       0.14105937
C       -1.41676096       1.32364124       0.19056438
C       -1.45116260      -0.18103881      -0.06993689
N       -2.10234783       0.42326994       1.08792882
H        1.30736759      -2.01929724       0.33512782
H        2.90893671      -0.24781765       0.30187219
H        2.45296497      -0.08347874      -1.43415323
H       -1.93449939       2.06790433      -0.39153921
H       -0.28262008      -1.26154516      -0.29129252
H       -2.14501807      -0.42358891      -0.87124156
H       -1.55690046       0.24788512       1.92435295
14
Frame=8 idx=009193 GeodesicLength=0.8906340081319738 rxn_smarts="[O:1]([C:2]([C:3]#[C:4][C@@:5]1([H:11])[C:6]([H:12])([H:13])[N:7]1[H:14])([H:9])[H:10])[H:8]>>[C:2](=[C:3]=[C:4]1[C@@:5]2([H:11])[C@:6]1([H:13])[N:7]2[H:14])([H:9])[H:10].[O:1]([H:8])[H:12]"
O        0.95547563      -1.74602101      -0.50021399
C        2.12105115      -0.06627513      -0.40922818
C        1.20314944       0.88332329      -0.00496907
C       -0.03454737       1.02014954       0.15849332
C       -1.41437489       1.32350598       0.19114068
C       -1.46749112      -0.17462758      -0.07514797
N       -2.11722387       0.43066885       1.08396278
H        1.32799539      -1.99794681       0.34651052
H        2.94770808      -0.20891142       0.28468047
H        2.45674861      -0.08076158      -1.44115335
H       -1.91286194       2.08448405      -0.38591269
H       -0.32227435      -1.29483686      -0.29632841
H       -2.16509281      -0.41517545      -0.87358158
H       -1.57826193       0.24242411       1.92174748
14
Frame=9 idx=009193 GeodesicLength=1.001571008498363 rxn_smarts="[O:1]([C:2]([C:3]#[C:4][C@@:5]1([H:11])[C:6]([H:12])([H:13])[N:7]1[H:14])([H:9])[H:10])[H:8]>>[C:2](=[C:3]=[C:4]1[C@@:5]2([H:11])[C@:6]1([H:13])[N:7]2[H:14])([H:9])[H:10].[O:1]([H:8])[H:12]"
O        0.96074257      -1.77013634      -0.49763913
C        2.13880188      -0.06800427      -0.41039001
C        1.20288259       0.86126912       0.00194064
C       -0.03182651       1.00404108       0.17506108
C       -1.41164751       1.32319837       0.19125197
C       -1.48366973      -0.16829446      -0.07995808
N       -2.13142595       0.43878986       1.08028419
H        1.34799262      -1.97789648       0.35421933
H        2.98497289      -0.16727268       0.26820676
H        2.46195527      -0.07799950      -1.44657550
H       -1.89070584       2.10024048      -0.38061980
H       -0.36372011      -1.32893452      -0.30003851
H       -2.18548204      -0.40717453      -0.87498929
H       -1.59887012       0.23817387       1.91924635
14
Frame=10 idx=009193 GeodesicLength=1.1124612134764855 rxn_smarts="[O:1]([C:2]([C:3]#[C:4][C@@:5]1([H:11])[C:6]([H:12])([H:13])[N:7]1[H:14])([H:9])[H:10])[H:8]>>[C:2](=[C:3]=[C:4]1[C@@:5]2([H:11])[C@:6]1([H:13])[N:7]2[H:14])([H:9])[H:10].[O:1]([H:8])[H:12]"
O        0.96601788      -1.79451162      -0.49622853
C        2.15727838      -0.06945946      -0.41028810
C        1.20253118       0.83859539       0.00847703
C       -0.02920710       0.98740618       0.19055340
C       -1.40860286       1.32271645       0.19087221
C       -1.49976429      -0.16204569      -0.08435840
N       -2.14484806       0.44763960       1.07699163
H        1.36738874      -1.95929951       0.35826299
H        3.02052818      -0.12275556       0.25266137
H        2.46887208      -0.07523323      -1.45027626
H       -1.86813311       2.11514944      -0.37568464
H       -0.40720643      -1.36377480      -0.30253193
H       -2.20636009      -0.39959145      -0.87535191
H       -1.61849450       0.23516425       1.91690112
14
Frame=11 idx=009193 GeodesicLength=1.2232784564987587 rxn_smarts="[O:1]([C:2]([C:3]#[C:4][C@@:5]1([H:11])[C:6]([H:12])([H:13])[N:7]1[H:14])([H:9])[H:10])[H:8]>>[C:2](=[C:3]=[C:4]1[C@@:5]2([H:11])[C@:6]1([H:13])[N:7]2[H:14])([H:9])[H:10].[O:1]([H:8])[H:12]"
O        0.97135486      -1.81918099      -0.49612875
C        2.17654782      -0.07061593      -0.40884414
C        1.20211470       0.81523266       0.01464338
C       -0.02666932       0.97023094       0.20495491
C       -1.40522187       1.32205116       0.18998185
C       -1.51580107      -0.15588626      -0.08834806
N       -2.15747033       0.45722869       1.07408913
H        1.38627796      -1.94226360       0.35868993
H        3.05423815      -0.07523280       0.23802011
H        2.47756212      -0.07244485      -1.45222383
H       -1.84510679       2.12920498      -0.37117757
H       -0.45295631      -1.39933004      -0.30374005
H       -2.22776147      -0.39239185      -0.87465240
H       -1.63710845       0.23339788       1.91473549
14
Frame=12 idx=009193 GeodesicLength=1.3340524738875001 rxn_smarts="[O:1]([C:2]([C:3]#[C:4][C@@:5]1([H:11])[C:6]([H:12])([H:13])[N:7]1[H:14])([H:9])[H:10])[H:8]>>[C:2](=[C:3]=[C:4]1[C@@:5]2([H:11])[C@:6]1([H:13])[N:7]2[H:14])([H:9])[H:10].[O:1]([H:8])[H:12]"
O        0.97683500      -1.84416779      -0.49755670
C        2.19670151      -0.07144574      -0.40594800
C        1.20165095       0.79112492       0.02034086
C       -0.02419960       0.95250452       0.21818408
C       -1.40149713       1.32118960       0.18855640
C       -1.53182298      -0.14982526      -0.09191713
N       -2.16923984       0.46756854       1.07161688
H        1.40474547      -1.92686691       0.35549932
H        3.08588002      -0.02458988       0.22435869
H        2.48820149      -0.06965445      -1.45232520
H       -1.82163025       2.14238823      -0.36716285
H       -0.50123818      -1.43556265      -0.30360563
H       -2.24977451      -0.38555248      -0.87282922
H       -1.65461196       0.23288935       1.91278848
14
Frame=13 idx=009193 GeodesicLength=1.4447376696279977 rxn_smarts="[O:1]([C:2]([C:3]#[C:4][C@@:5]1([H:11])[C:6]([H:12])([H:13])[N:7]1[H:14])([H:9])[H:10])[H:8]>>[C:2](=[C:3]=[C:4]1[C@@:5]2([H:11])[C@:6]1([H:13])[N:7]2[H:14])([H:9])[H:10].[O:1]([H:8])[H:12]"
O        0.98254186      -1.86949825      -0.50068524
C        2.21779224      -0.07188958      -0.40151334
C        1.20116482       0.76618250       0.02562356
C       -0.02176457       0.93417204       0.23030603
C       -1.39738285       1.32010939       0.18656965
C       -1.54783291      -0.14387662      -0.09505656
N       -2.18016282       0.47868547       1.06953628
H        1.42293793      -1.91315744       0.34867193
H        3.11524533       0.02924549       0.21157155
H        2.50078843      -0.06681273      -1.45054798
H       -1.79759468       2.15467873      -0.36374923
H       -0.55230792      -1.47246543      -0.30190789
H       -2.27236644      -0.37903370      -0.86988980
H       -1.67105844       0.23366013       1.91107105
14
Frame=14 idx=009193 GeodesicLength=1.55539565444125 rxn_smarts="[O:1]([C:2]([C:3]#[C:4][C@@:5]1([H:11])[C:6]([H:12])([H:13])[N:7]1[H:14])([H:9])[H:10])[H:8]>>[C:2](=[C:3]=[C:4]1[C@@:5]2([H:11])[C@:6]1([H:13])[N:7]2[H:14])([H:9])[H:10].[O:1]([H:8])[H:12]"
O        0.98859776      -1.89514498      -0.50592486
C        2.23993719      -0.07188775      -0.39536117
C        1.20066179       0.74037374       0.03023362
C       -0.01936154       0.91522396       0.24111833
C       -1.39288996       1.31878126       0.18395960
C       -1.56389556      -0.13807028      -0.09771211
N       -2.19012469       0.49061260       1.06794681
H        1.44092382      -1.90116058       0.33802501
H        3.14194123       0.08627712       0.19994787
H        2.51571603      -0.06395167      -1.44667559
H       -1.77306835       2.16600568      -0.36105383
H       -0.60651147      -1.50998762      -0.29850309
H       -2.29570586      -0.37286531      -0.86565600
H       -1.68622038       0.23579382       1.90965541
14
Frame=15 idx=009193 GeodesicLength=1.6660063806002625 rxn_smarts="[O:1]([C:2]([C:3]#[C:4][C@@:5]1([H:11])[C:6]([H:12])([H:13])[N:7]1[H:14])([H:9])[H:10])[H:8]>>[C:2](=[C:3]=[C:4]1[C@@:5]2([H:11])[C@:6]1([H:13])[N:7]2[H:14])([H:9])[H:10].[O:1]([H:8])[H:12]"
O        0.99513415      -1.92107328      -0.51367812
C        2.26319319      -0.07134315      -0.38733722
C        1.20015698       0.71361899       0.03413376
C       -0.01696762       0.89559662       0.25061417
C       -1.38798601       1.31716374       0.18065387
C       -1.58002534      -0.13244684      -0.09982321
N       -2.19909595       0.50341625       1.06684173
H        1.45886524      -1.89088444       0.32331060
H        3.16562145       0.14642701       0.18956382
H        2.53314438      -0.06098610      -1.44056245
H       -1.74797994       2.17629025      -0.35927403
H       -0.66417904      -1.54811924      -0.29298991
H       -2.31980095      -0.36706893      -0.86003426
H       -1.70008052       0.23940914       1.90858125
14
Frame=16 idx=009193 GeodesicLength=1.7765890709626895 rxn_smarts="[O:1]([C:2]([C:3]#[C:4][C@@:5]1([H:11])[C:6]([H:12])([H:13])[N:7]1[H:14])([H:9])[H:10])[H:8]>>[C:2](=[C:3]=[C:4]1[C@@:5]2([H:11])[C@:6]1([H:13])[N:7]2[H:14])([H:9])[H:10].[O:1]([H:8])[H:12]"
O        1.00230099      -1.94718101      -0.52459503
C        2.28763021      -0.07014016      -0.37721667
C        1.19965331       0.68587194       0.03711993
C       -0.01457529       0.87524717       0.25863864
C       -1.38266704       1.31520054       0.17652705
C       -1.59626772      -0.12707680      -0.10127548
N       -2.20697836       0.51718965       1.06628253
H        1.47688370      -1.88231478       0.30407432
H        3.18583123       0.20948680       0.18078173
H        2.55347293      -0.05780955      -1.43193130
H       -1.72234706       2.18539715      -0.35868902
H       -0.72570624      -1.58683877      -0.28485645
H       -2.34476127      -0.36174697      -0.85279150
H       -1.71246939       0.24471478       1.90793124
