11
Frame=0 idx=003998 GeodesicLength=0.0 rxn_smarts="[N:1](=[C:2]1\[C:3]([H:8])([H:9])[N:4]=[C:5]([H:10])[N:6]1[H:11])\[H:7]>>[N:1]1([H:7])[C-:2]=[N+:6]([H:11])[C:5]([H:10])=[N:4][C:3]1([H:8])[H:9]"
N       -1.30309830       1.54807909      -0.20727547
C       -0.29347025       1.35131324       0.52085629
C       -0.67758286      -1.52472510       0.02389758
N        0.57020861      -1.46980541       0.27531608
C        1.32634402      -0.41655755      -0.12384139
N        0.88693432       0.81054253      -0.13539558
H       -2.05050992       1.92735735       0.36913628
H       -1.26265846      -2.30161595       0.50910736
H       -1.17501840      -0.85832596      -0.68125067
H        2.38639675      -0.58813336      -0.26761147
H        1.59245444       1.52187112      -0.28293897
11
Frame=1 idx=003998 GeodesicLength=0.13049307026088056 rxn_smarts="[N:1](=[C:2]1\[C:3]([H:8])([H:9])[N:4]=[C:5]([H:10])[N:6]1[H:11])\[H:7]>>[N:1]1([H:7])[C-:2]=[N+:6]([H:11])[C:5]([H:10])=[N:4][C:3]1([H:8])[H:9]"
N       -1.30218083       1.49287975      -0.20266984
C       -0.29085256       1.31463406       0.52984544
C       -0.69749368      -1.45246197       0.04499045
N        0.57312710      -1.47036796       0.22952619
C        1.33918522      -0.41968860      -0.13570942
N        0.90492268       0.81405728      -0.11866392
H       -2.06692271       1.84751406       0.36565686
H       -1.29337239      -2.19150068       0.57481108
H       -1.16826247      -0.87528628      -0.75089995
H        2.39838328      -0.59327338      -0.28395292
H        1.60346635       1.53349372      -0.25293398
11
Frame=2 idx=003998 GeodesicLength=0.26186163543623386 rxn_smarts="[N:1](=[C:2]1\[C:3]([H:8])([H:9])[N:4]=[C:5]([H:10])[N:6]1[H:11])\[H:7]>>[N:1]1([H:7])[C-:2]=[N+:6]([H:11])[C:5]([H:10])=[N:4][C:3]1([H:8])[H:9]"
N       -1.29935406       1.44319971      -0.19983666
C       -0.28738589       1.28069611       0.53735978
C       -0.71311644      -1.38521030       0.05764790
N        0.57245859      -1.46889139       0.18357833
C        1.34941424      -0.42292961      -0.14905228
N        0.92115885       0.81703314      -0.10291742
H       -2.08001109       1.77395134       0.36002365
H       -1.31258064      -2.08978775       0.62935954
H       -1.17295361      -0.89308869      -0.79919887
H        2.40925136      -0.59843893      -0.29092980
H        1.61311869       1.54346637      -0.22603418
11
Frame=3 idx=003998 GeodesicLength=0.3934895808263241 rxn_smarts="[N:1](=[C:2]1\[C:3]([H:8])([H:9])[N:4]=[C:5]([H:10])[N:6]1[H:11])\[H:7]>>[N:1]1([H:7])[C-:2]=[N+:6]([H:11])[C:5]([H:10])=[N:4][C:3]1([H:8])[H:9]"
N       -1.29520285       1.39822741      -0.19847583
C       -0.28376288       1.24905895       0.54422319
C       -0.72553618      -1.32273702       0.06487675
N        0.56960600      -1.46563348       0.13936232
C        1.35779372      -0.42605202      -0.16233226
N        0.93610026       0.81965843      -0.08658625
H       -2.09078476       1.70659017       0.35195486
H       -1.32311822      -1.99614859       0.67556781
H       -1.18531565      -0.91120381      -0.83346256
H        2.41862218      -0.60416767      -0.29425051
H        1.62159838       1.55240764      -0.20087752
11
Frame=4 idx=003998 GeodesicLength=0.525328242749773 rxn_smarts="[N:1](=[C:2]1\[C:3]([H:8])([H:9])[N:4]=[C:5]([H:10])[N:6]1[H:11])\[H:7]>>[N:1]1([H:7])[C-:2]=[N+:6]([H:11])[C:5]([H:10])=[N:4][C:3]1([H:8])[H:9]"
N       -1.29000221       1.35730997      -0.19853208
C       -0.28032020       1.21928271       0.55080487
C       -0.73563134      -1.26446432       0.06841840
N        0.56548092      -1.46098291       0.09673435
C        1.36478770      -0.42893866      -0.17517943
N        0.95002835       0.82193523      -0.06892090
H       -2.09981102       1.64493337       0.34126009
H       -1.32682260      -1.90964030       0.71570270
H       -1.20328669      -0.92964693      -0.85752727
H        2.42652057      -0.61038755      -0.29644961
H        1.62905653       1.56059939      -0.17631112
11
Frame=5 idx=003998 GeodesicLength=0.6574000289475109 rxn_smarts="[N:1](=[C:2]1\[C:3]([H:8])([H:9])[N:4]=[C:5]([H:10])[N:6]1[H:11])\[H:7]>>[N:1]1([H:7])[C-:2]=[N+:6]([H:11])[C:5]([H:10])=[N:4][C:3]1([H:8])[H:9]"
N       -1.28373758       1.31947007      -0.19955746
C       -0.27720068       1.19123677       0.55761997
C       -0.74387031      -1.20987188       0.06900986
N        0.56040495      -1.45496878       0.05861665
C        1.37065948      -0.43158609      -0.18449152
N        0.96301570       0.82376031      -0.04856685
H       -2.10722421       1.58782129       0.32812919
H       -1.32656334      -1.82820330       0.74999217
H       -1.22251339      -0.94884799      -0.87482712
H        2.43207569      -0.61704972      -0.30324263
H        1.63495368       1.56823931      -0.15268226
11
Frame=6 idx=003998 GeodesicLength=0.7895630845710555 rxn_smarts="[N:1](=[C:2]1\[C:3]([H:8])([H:9])[N:4]=[C:5]([H:10])[N:6]1[H:11])\[H:7]>>[N:1]1([H:7])[C-:2]=[N+:6]([H:11])[C:5]([H:10])=[N:4][C:3]1([H:8])[H:9]"
N       -1.27664137       1.28486701      -0.20182201
C       -0.27437129       1.16443758       0.56426426
C       -0.75089473      -1.15858150       0.06761157
N        0.55495959      -1.44811737       0.02096091
C        1.37554413      -0.43395075      -0.19384855
N        0.97522920       0.82509196      -0.02677607
H       -2.11329771       1.53546671       0.31256979
H       -1.32159836      -1.75265686       0.78044551
H       -1.24556411      -0.96829819      -0.88497227
H        2.43671956      -0.62355969      -0.30946309
H        1.63991508       1.57530110      -0.12897003
11
Frame=7 idx=003998 GeodesicLength=0.9218125570171793 rxn_smarts="[N:1](=[C:2]1\[C:3]([H:8])([H:9])[N:4]=[C:5]([H:10])[N:6]1[H:11])\[H:7]>>[N:1]1([H:7])[C-:2]=[N+:6]([H:11])[C:5]([H:10])=[N:4][C:3]1([H:8])[H:9]"
N       -1.26870443       1.25307847      -0.20532962
C       -0.27190171       1.13876780       0.57079674
C       -0.75698627      -1.11021030       0.06469763
N        0.54922070      -1.44047595      -0.01609817
C        1.37954522      -0.43600043      -0.20265099
N        0.98674423       0.82583167      -0.00312307
H       -2.11816483       1.48730435       0.29443568
H       -1.31277990      -1.68215391       0.80764460
H       -1.27118059      -0.98811756      -0.88889567
H        2.44029364      -0.62979663      -0.31668118
H        1.64391394       1.58177248      -0.10479593
11
Frame=8 idx=003998 GeodesicLength=1.0541656487975892 rxn_smarts="[N:1](=[C:2]1\[C:3]([H:8])([H:9])[N:4]=[C:5]([H:10])[N:6]1[H:11])\[H:7]>>[N:1]1([H:7])[C-:2]=[N+:6]([H:11])[C:5]([H:10])=[N:4][C:3]1([H:8])[H:9]"
N       -1.26005462       1.22383871      -0.20995087
C       -0.26974690       1.11413394       0.57711253
C       -0.76240911      -1.06442779       0.06055447
N        0.54329579      -1.43208312      -0.05297762
C        1.38279806      -0.43773959      -0.21087343
N        0.99756360       0.82590680       0.02208453
H       -2.12192342       1.44289860       0.27402336
H       -1.30062153      -1.61627876       0.83200824
H       -1.29886015      -1.00819540      -0.88715379
H        2.44298727      -0.63565302      -0.32461336
H        1.64697100       1.58759963      -0.08021405
11
Frame=9 idx=003998 GeodesicLength=1.1865098976708395 rxn_smarts="[N:1](=[C:2]1\[C:3]([H:8])([H:9])[N:4]=[C:5]([H:10])[N:6]1[H:11])\[H:7]>>[N:1]1([H:7])[C-:2]=[N+:6]([H:11])[C:5]([H:10])=[N:4][C:3]1([H:8])[H:9]"
N       -1.25080923       1.19685594      -0.21547339
C       -0.26791173       1.09049792       0.58328805
C       -0.76736117      -1.02096672       0.05543034
N        0.53727693      -1.42301445      -0.08860934
C        1.38548681      -0.43933332      -0.21742797
N        1.00768339       0.82523978       0.04885403
H       -2.12469271       1.40184632       0.25162907
H       -1.28634828      -1.55447556       0.85338657
H       -1.32703975      -1.02844974      -0.88063101
H        2.44471856      -0.64092749      -0.33494383
H        1.64899718       1.59272733      -0.05550253
11
Frame=10 idx=003998 GeodesicLength=1.3189527459560941 rxn_smarts="[N:1](=[C:2]1\[C:3]([H:8])([H:9])[N:4]=[C:5]([H:10])[N:6]1[H:11])\[H:7]>>[N:1]1([H:7])[C-:2]=[N+:6]([H:11])[C:5]([H:10])=[N:4][C:3]1([H:8])[H:9]"
N       -1.24121216       1.17196557      -0.22183227
C       -0.26627972       1.06777460       0.58891263
C       -0.77201268      -0.97957772       0.04943569
N        0.53117240      -1.41320980      -0.12463267
C        1.38760774      -0.44072712      -0.22349772
N        1.01697938       0.82387307       0.07604759
H       -2.12654772       1.36382054       0.22772221
H       -1.26956166      -1.49656063       0.87246606
H       -1.35633205      -1.04874382      -0.86918449
H        2.44588749      -0.64565959      -0.34518218
H        1.65029897       1.59704490      -0.03025484
11
Frame=11 idx=003998 GeodesicLength=1.4514675950432276 rxn_smarts="[N:1](=[C:2]1\[C:3]([H:8])([H:9])[N:4]=[C:5]([H:10])[N:6]1[H:11])\[H:7]>>[N:1]1([H:7])[C-:2]=[N+:6]([H:11])[C:5]([H:10])=[N:4][C:3]1([H:8])[H:9]"
N       -1.23148008       1.14895456      -0.22891392
C       -0.26483108       1.04595483       0.59383093
C       -0.77649120      -0.94005721       0.04271640
N        0.52499003      -1.40263603      -0.16096363
C        1.38921736      -0.44200707      -0.22901224
N        1.02536544       0.82184959       0.10309600
H       -2.12764030       1.32849655       0.20265353
H       -1.25069630      -1.44215564       0.88936355
H       -1.38604727      -1.06900381      -0.85314481
H        2.44654025      -0.64987080      -0.35537521
H        1.65107315       1.60047503      -0.00425062
11
Frame=12 idx=003998 GeodesicLength=1.5840566430712344 rxn_smarts="[N:1](=[C:2]1\[C:3]([H:8])([H:9])[N:4]=[C:5]([H:10])[N:6]1[H:11])\[H:7]>>[N:1]1([H:7])[C-:2]=[N+:6]([H:11])[C:5]([H:10])=[N:4][C:3]1([H:8])[H:9]"
N       -1.22181309       1.12765727      -0.23656318
C       -0.26353522       1.02501424       0.59794004
C       -0.78090787      -0.90222682       0.03538384
N        0.51874667      -1.39126386      -0.19766487
C        1.39035374      -0.44325598      -0.23404123
N        1.03277443       0.81924260       0.12946317
H       -2.12811725       1.29555746       0.17681815
H       -1.23009245      -1.39100500       0.90417479
H       -1.41563754      -1.08904984      -0.83282385
H        2.44676196      -0.65366864      -0.36516117
H        1.65146660       1.60299857       0.02247431
11
Frame=13 idx=003998 GeodesicLength=1.716663834126379 rxn_smarts="[N:1](=[C:2]1\[C:3]([H:8])([H:9])[N:4]=[C:5]([H:10])[N:6]1[H:11])\[H:7]>>[N:1]1([H:7])[C-:2]=[N+:6]([H:11])[C:5]([H:10])=[N:4][C:3]1([H:8])[H:9]"
N       -1.21227525       1.10791538      -0.24463286
C       -0.26241408       1.00490497       0.60136293
C       -0.78536259      -0.86594915       0.02762777
N        0.51252618      -1.37922564      -0.23385351
C        1.39109305      -0.44469133      -0.23799085
N        1.03922121       0.81607109       0.15517206
H       -2.12808556       1.26476319       0.15038708
H       -1.20863598      -1.34280424       0.91682237
H       -1.44400750      -1.10868686      -0.80889273
H        2.44646156      -0.65691158      -0.37569565
H        1.65147896       1.60461419       0.04969341
11
Frame=14 idx=003998 GeodesicLength=1.8493378167382732 rxn_smarts="[N:1](=[C:2]1\[C:3]([H:8])([H:9])[N:4]=[C:5]([H:10])[N:6]1[H:11])\[H:7]>>[N:1]1([H:7])[C-:2]=[N+:6]([H:11])[C:5]([H:10])=[N:4][C:3]1([H:8])[H:9]"
N       -1.20304688       1.08961236      -0.25299448
C       -0.26143054       0.98557686       0.60399620
C       -0.78991435      -0.83108961       0.01950662
N        0.50630720      -1.36644254      -0.27015818
C        1.39138783      -0.44629530      -0.24151551
N        1.04468324       0.81242407       0.17975594
H       -2.12767778       1.23586590       0.12372360
H       -1.18622138      -1.29740837       0.92755925
H       -1.47109944      -1.12773561      -0.78149000
H        2.44578662      -0.65986750      -0.38569225
H        1.65122548       1.60535975       0.07730881
11
Frame=15 idx=003998 GeodesicLength=1.9820621065379467 rxn_smarts="[N:1](=[C:2]1\[C:3]([H:8])([H:9])[N:4]=[C:5]([H:10])[N:6]1[H:11])\[H:7]>>[N:1]1([H:7])[C-:2]=[N+:6]([H:11])[C:5]([H:10])=[N:4][C:3]1([H:8])[H:9]"
N       -1.19417723       1.07262549      -0.26154395
C       -0.26059486       0.96697418       0.60592914
C       -0.79461971      -0.79754629       0.01117741
N        0.50013476      -1.35299864      -0.30618862
C        1.39124419      -0.44817458      -0.24451669
N        1.04920499       0.80832854       0.20325021
H       -2.12698226       1.20868195       0.09695668
H       -1.16332524      -1.25459968       0.93647288
H       -1.49628459      -1.14602388      -0.75113275
H        2.44469750      -0.66253092      -0.39553795
H        1.65070244       1.60526383       0.10513366
11
Frame=16 idx=003998 GeodesicLength=2.1148261847075385 rxn_smarts="[N:1](=[C:2]1\[C:3]([H:8])([H:9])[N:4]=[C:5]([H:10])[N:6]1[H:11])\[H:7]>>[N:1]1([H:7])[C-:2]=[N+:6]([H:11])[C:5]([H:10])=[N:4][C:3]1([H:8])[H:9]"
N       -1.18569238       1.05684372      -0.27017914
C       -0.25990541       0.94903322       0.60725655
C       -0.79951854      -0.76523500       0.00279531
N        0.49405508      -1.33899508      -0.34164407
C        1.39066295      -0.45041634      -0.24695787
N        1.05284120       0.80380907       0.22570542
H       -2.12606332       1.18304619       0.07019774
H       -1.14034531      -1.21419839       0.94370159
H       -1.51909403      -1.16336721      -0.71835279
H        2.44317044      -0.66488601      -0.40547028
H        1.64988931       1.60436582       0.13294754
