17
Frame=0 idx=009559 GeodesicLength=0.0 rxn_smarts="[C:1]1([H:8])([H:9])[C:2]([H:10])([H:11])[C:3]12[C:4]([H:12])([H:13])[C@@:5]1([H:14])[C:6]([H:15])([H:16])[C@@:7]21[H:17]>>[C:1]1([H:8])([H:9])[C:2]([H:10])([H:11])[C:3]1([C:4]([C@@:5]1([H:14])[C:6]([H:15])([H:16])[C:7]1)([H:12])[H:13])[H:17]"
C       -2.02678857      -0.34926250      -0.11048679
C       -1.36643933       0.93307596      -0.56063600
C       -0.55615414      -0.16827090       0.00055399
C        0.54457972      -0.96144861      -0.66517481
C        1.62115799      -0.60830314       0.32847267
C        1.70768505       0.85479232       0.61968849
C        0.82670721       0.00354289       1.47804847
H       -2.37918667      -1.05168242      -0.85732938
H       -2.63475833      -0.30672303       0.78528961
H       -1.27343722       1.12509996      -1.62338833
H       -1.53381731       1.81620139       0.04439443
H        0.31458446      -2.02846593      -0.63316177
H        0.73620293      -0.68353080      -1.70755910
H        2.46414898      -1.26255221       0.51585746
H        1.32027010       1.58109570      -0.08492114
H        2.59425947       1.18603046       1.14979402
H       -0.35901438      -0.07959922       1.32055821
17
Frame=1 idx=009559 GeodesicLength=0.06251632625174931 rxn_smarts="[C:1]1([H:8])([H:9])[C:2]([H:10])([H:11])[C:3]12[C:4]([H:12])([H:13])[C@@:5]1([H:14])[C:6]([H:15])([H:16])[C@@:7]21[H:17]>>[C:1]1([H:8])([H:9])[C:2]([H:10])([H:11])[C:3]1([C:4]([C@@:5]1([H:14])[C:6]([H:15])([H:16])[C:7]1)([H:12])[H:13])[H:17]"
C       -2.02876762      -0.35146601      -0.11749768
C       -1.36781870       0.93317232      -0.55833038
C       -0.55931982      -0.16787972       0.00979405
C        0.53948536      -0.96208409      -0.66033946
C        1.62374249      -0.60539675       0.32509795
C        1.71849614       0.85672863       0.61623479
C        0.83506575       0.00975388       1.47462169
H       -2.37449738      -1.05034552      -0.87067359
H       -2.64540316      -0.31312032       0.77244827
H       -1.26808915       1.12742437      -1.62002184
H       -1.54376741       1.81520141       0.04576085
H        0.31282591      -2.02970785      -0.62463653
H        0.72714384      -0.68608745      -1.70371905
H        2.46467180      -1.26240826       0.51216928
H        1.32586686       1.58613635      -0.08242877
H        2.60900320       1.18563223       1.14103963
H       -0.36863811      -0.08555321       1.34048080
17
Frame=2 idx=009559 GeodesicLength=0.12499101084375211 rxn_smarts="[C:1]1([H:8])([H:9])[C:2]([H:10])([H:11])[C:3]12[C:4]([H:12])([H:13])[C@@:5]1([H:14])[C:6]([H:15])([H:16])[C@@:7]21[H:17]>>[C:1]1([H:8])([H:9])[C:2]([H:10])([H:11])[C:3]1([C:4]([C@@:5]1([H:14])[C:6]([H:15])([H:16])[C:7]1)([H:12])[H:13])[H:17]"
C       -2.03065913      -0.35365199      -0.12445539
C       -1.36921979       0.93325397      -0.55601259
C       -0.56254988      -0.16752137       0.01901963
C        0.53440756      -0.96265423      -0.65551873
C        1.62624131      -0.60246827       0.32171210
C        1.72931535       0.85865363       0.61267483
C        0.84320114       0.01610615       1.47102019
H       -2.36970062      -1.04897998      -0.88385445
H       -2.65581759      -0.31950317       0.75961827
H       -1.26280897       1.12973204      -1.61659970
H       -1.55367492       1.81416870       0.04706147
H        0.31112511      -2.03087413      -0.61621693
H        0.71814125      -0.68853991      -1.69985732
H        2.46501215      -1.26229265       0.50866902
H        1.33162891       1.59117994      -0.08002129
H        2.62366332       1.18515410       1.13228281
H       -0.37830522      -0.09176282       1.36047808
17
Frame=3 idx=009559 GeodesicLength=0.18742575304072787 rxn_smarts="[C:1]1([H:8])([H:9])[C:2]([H:10])([H:11])[C:3]12[C:4]([H:12])([H:13])[C@@:5]1([H:14])[C:6]([H:15])([H:16])[C@@:7]21[H:17]>>[C:1]1([H:8])([H:9])[C:2]([H:10])([H:11])[C:3]1([C:4]([C@@:5]1([H:14])[C:6]([H:15])([H:16])[C:7]1)([H:12])[H:13])[H:17]"
C       -2.03246403      -0.35581969      -0.13135916
C       -1.37064192       0.93332128      -0.55368481
C       -0.56584300      -0.16719465       0.02823006
C        0.52934635      -0.96315968      -0.65071257
C        1.62865671      -0.59951672       0.31831426
C        1.74013944       0.86056620       0.60901256
C        0.85112165       0.02259359       1.46724897
H       -2.36479978      -1.04758613      -0.89687116
H       -2.66600534      -0.32586922       0.74680114
H       -1.25759667       1.13202162      -1.61312523
H       -1.56354030       1.81310518       0.04829381
H        0.30948055      -2.03196550      -0.60790165
H        0.70919596      -0.69089037      -1.69597484
H        2.46517682      -1.26219898       0.50535047
H        1.33755839       1.59622616      -0.07769943
H        2.63824086       1.18459526       1.12352522
H       -0.38802569      -0.09822835       1.38055237
17
Frame=4 idx=009559 GeodesicLength=0.24982498986825552 rxn_smarts="[C:1]1([H:8])([H:9])[C:2]([H:10])([H:11])[C:3]12[C:4]([H:12])([H:13])[C@@:5]1([H:14])[C:6]([H:15])([H:16])[C@@:7]21[H:17]>>[C:1]1([H:8])([H:9])[C:2]([H:10])([H:11])[C:3]1([C:4]([C@@:5]1([H:14])[C:6]([H:15])([H:16])[C:7]1)([H:12])[H:13])[H:17]"
C       -2.03418300      -0.35796852      -0.13820886
C       -1.37208395       0.93337458      -0.55134844
C       -0.56919788      -0.16689868       0.03742557
C        0.52430160      -0.96360153      -0.64592039
C        1.63099123      -0.59654098       0.31490322
C        1.75096480       0.86246563       0.60525162
C        0.85883610       0.02921068       1.46331255
H       -2.35979772      -1.04616415      -0.90972458
H       -2.67597070      -0.33221447       0.73399848
H       -1.25245111       1.13429236      -1.60960080
H       -1.57336340       1.81201212       0.04945628
H        0.30789081      -2.03298318      -0.59968811
H        0.70030826      -0.69314165      -1.69207233
H        2.46517332      -1.26212034       0.50220637
H        1.34365731       1.60127452      -0.07546444
H        2.65273634       1.18395598       1.11476751
H       -0.39781200      -0.10495236       1.40070632
17
Frame=5 idx=009559 GeodesicLength=0.31220285327599956 rxn_smarts="[C:1]1([H:8])([H:9])[C:2]([H:10])([H:11])[C:3]12[C:4]([H:12])([H:13])[C@@:5]1([H:14])[C:6]([H:15])([H:16])[C@@:7]21[H:17]>>[C:1]1([H:8])([H:9])[C:2]([H:10])([H:11])[C:3]1([C:4]([C@@:5]1([H:14])[C:6]([H:15])([H:16])[C:7]1)([H:12])[H:13])[H:17]"
C       -2.03581698      -0.36009760      -0.14500487
C       -1.37354401       0.93341484      -0.54900352
C       -0.57261309      -0.16663234       0.04660812
C        0.51927271      -0.96398125      -0.64114002
C        1.63324791      -0.59353977       0.31147780
C        1.76178933       0.86435182       0.60139417
C        0.86635545       0.03595311       1.45921562
H       -2.35469639      -1.04471239      -0.92241736
H       -2.68572015      -0.33853792       0.72120786
H       -1.24736855       1.13654512      -1.60602705
H       -1.58314441       1.81089108       0.05054954
H        0.30635406      -2.03392871      -0.59157148
H        0.69147733      -0.69529823      -1.68814916
H        2.46500927      -1.26204949       0.49922919
H        1.34992682       1.60632473      -0.07331956
H        2.66715133       1.18323779       1.10600713
H       -0.40768061      -0.11194079       1.42094360
17
Frame=6 idx=009559 GeodesicLength=0.37456099366859363 rxn_smarts="[C:1]1([H:8])([H:9])[C:2]([H:10])([H:11])[C:3]12[C:4]([H:12])([H:13])[C@@:5]1([H:14])[C:6]([H:15])([H:16])[C@@:7]21[H:17]>>[C:1]1([H:8])([H:9])[C:2]([H:10])([H:11])[C:3]1([C:4]([C@@:5]1([H:14])[C:6]([H:15])([H:16])[C:7]1)([H:12])[H:13])[H:17]"
C       -2.03736615      -0.36220623      -0.15174724
C       -1.37502056       0.93344280      -0.54665047
C       -0.57608721      -0.16639461       0.05577852
C        0.51425959      -0.96429990      -0.63637033
C        1.63542900      -0.59051185       0.30803720
C        1.77261113       0.86622474       0.59744213
C        0.87368763       0.04281707       1.45496145
H       -2.34949778      -1.04323010      -0.93495142
H       -2.69525769      -0.34483691       0.70843021
H       -1.24234691       1.13877995      -1.60240534
H       -1.59288317       1.80974340       0.05157355
H        0.30486916      -2.03480300      -0.58354855
H        0.68270324      -0.69736325      -1.68420538
H        2.46469104      -1.26198030       0.49641333
H        1.35636823       1.61137673      -0.07126856
H        2.68148711       1.18244148       1.09724322
H       -0.41764668      -0.11920002       1.44126768
17
Frame=7 idx=009559 GeodesicLength=0.4368947522758562 rxn_smarts="[C:1]1([H:8])([H:9])[C:2]([H:10])([H:11])[C:3]12[C:4]([H:12])([H:13])[C@@:5]1([H:14])[C:6]([H:15])([H:16])[C@@:7]21[H:17]>>[C:1]1([H:8])([H:9])[C:2]([H:10])([H:11])[C:3]1([C:4]([C@@:5]1([H:14])[C:6]([H:15])([H:16])[C:7]1)([H:12])[H:13])[H:17]"
C       -2.03883107      -0.36429357      -0.15843638
C       -1.37651194       0.93345934      -0.54428952
C       -0.57961883      -0.16618485       0.06493702
C        0.50926230      -0.96455897      -0.63161055
C        1.63753705      -0.58745565       0.30458007
C        1.78342672       0.86808460       0.59339689
C        0.88083970       0.04979996       1.45055294
H       -2.34420468      -1.04171643      -0.94732674
H       -2.70458718      -0.35110909       0.69566492
H       -1.23738331       1.14099836      -1.59873619
H       -1.60257798       1.80857074       0.05252890
H        0.30343500      -2.03560789      -0.57561538
H        0.67398580      -0.69934086      -1.68024177
H        2.46422521      -1.26190585       0.49375361
H        1.36298413       1.61642986      -0.06931522
H        2.69574341       1.18156867       1.08847523
H       -0.42772436      -0.12673837       1.46168217
17
Frame=8 idx=009559 GeodesicLength=0.49920845583026396 rxn_smarts="[C:1]1([H:8])([H:9])[C:2]([H:10])([H:11])[C:3]12[C:4]([H:12])([H:13])[C@@:5]1([H:14])[C:6]([H:15])([H:16])[C@@:7]21[H:17]>>[C:1]1([H:8])([H:9])[C:2]([H:10])([H:11])[C:3]1([C:4]([C@@:5]1([H:14])[C:6]([H:15])([H:16])[C:7]1)([H:12])[H:13])[H:17]"
C       -2.04021198      -0.36635858      -0.16507252
C       -1.37801608       0.93346568      -0.54192001
C       -0.58320652      -0.16600211       0.07408580
C        0.50428041      -0.96475994      -0.62685813
C        1.63957471      -0.58436945       0.30110525
C        1.79423464       0.86993200       0.58925906
C        0.88782044       0.05689993       1.44599205
H       -2.33881913      -1.04016948      -0.95954740
H       -2.71371367      -0.35735261       0.68291073
H       -1.23247369       1.14320162      -1.59501940
H       -1.61222798       1.80737413       0.05341679
H        0.30205048      -2.03634486      -0.56776654
H        0.66532379      -0.70123579      -1.67625730
H        2.46361839      -1.26181914       0.49124386
H        1.36977590       1.62148411      -0.06746462
H        2.70992204       1.18062146       1.07970080
H       -0.43793175      -0.13456694       1.48219156
17
Frame=9 idx=009559 GeodesicLength=0.5618019732252763 rxn_smarts="[C:1]1([H:8])([H:9])[C:2]([H:10])([H:11])[C:3]12[C:4]([H:12])([H:13])[C@@:5]1([H:14])[C:6]([H:15])([H:16])[C@@:7]21[H:17]>>[C:1]1([H:8])([H:9])[C:2]([H:10])([H:11])[C:3]1([C:4]([C@@:5]1([H:14])[C:6]([H:15])([H:16])[C:7]1)([H:12])[H:13])[H:17]"
C       -2.04154476      -0.36840738      -0.17163267
C       -1.37949962       0.93350891      -0.53953541
C       -0.58681597      -0.16580094       0.08324107
C        0.49929751      -0.96491416      -0.62210833
C        1.64158299      -0.58124294       0.29761697
C        1.80510099       0.87180140       0.58508672
C        0.89472744       0.06407099       1.44131841
H       -2.33336309      -1.03859537      -0.97172926
H       -2.72269741      -0.36357312       0.67016649
H       -1.22766971       1.14535656      -1.59127136
H       -1.62194102       1.80615604       0.05420727
H        0.30069968      -2.03702117      -0.55995297
H        0.65671053      -0.70306595      -1.67223436
H        2.46291966      -1.26176308       0.48882014
H        1.37671672       1.62654698      -0.06572634
H        2.72413439       1.17961854       1.07092227
H       -0.44835832      -0.14267530       1.50281135
17
Frame=10 idx=009559 GeodesicLength=0.6237880766226175 rxn_smarts="[C:1]1([H:8])([H:9])[C:2]([H:10])([H:11])[C:3]12[C:4]([H:12])([H:13])[C@@:5]1([H:14])[C:6]([H:15])([H:16])[C@@:7]21[H:17]>>[C:1]1([H:8])([H:9])[C:2]([H:10])([H:11])[C:3]1([C:4]([C@@:5]1([H:14])[C:6]([H:15])([H:16])[C:7]1)([H:12])[H:13])[H:17]"
C       -2.04272095      -0.37042360      -0.17820486
C       -1.38105340       0.93345871      -0.53712544
C       -0.59055013      -0.16571977       0.09237653
C        0.49435585      -0.96500265      -0.61735298
C        1.64344620      -0.57810007       0.29410528
C        1.81582638       0.87359713       0.58067969
C        0.90129954       0.07148265       1.43641631
H       -2.32775274      -1.03693789      -0.98358988
H       -2.73139327      -0.36978154       0.65739844
H       -1.22277447       1.14760035      -1.58740531
H       -1.63140071       1.80490499       0.05504397
H        0.29942164      -2.03762899      -0.55227182
H        0.64815066      -0.70481333      -1.66821356
H        2.46199486      -1.26158742       0.48668370
H        1.38389695       1.63159437      -0.06413353
H        2.73806107       1.17852013       1.06207798
H       -0.45880747      -0.15116308       1.52351545
17
Frame=11 idx=009559 GeodesicLength=0.6860783026241866 rxn_smarts="[C:1]1([H:8])([H:9])[C:2]([H:10])([H:11])[C:3]12[C:4]([H:12])([H:13])[C@@:5]1([H:14])[C:6]([H:15])([H:16])[C@@:7]21[H:17]>>[C:1]1([H:8])([H:9])[C:2]([H:10])([H:11])[C:3]1([C:4]([C@@:5]1([H:14])[C:6]([H:15])([H:16])[C:7]1)([H:12])[H:13])[H:17]"
C       -2.04384830      -0.37241876      -0.18470013
C       -1.38258040       0.93344757      -0.53470186
C       -0.59430182      -0.16561720       0.10152160
C        0.48941519      -0.96504338      -0.61259723
C        1.64528522      -0.57491364       0.29057867
C        1.82661034       0.87541908       0.57623756
C        0.90781218       0.07896592       1.43140052
H       -2.32208031      -1.03525743      -0.99540087
H       -2.73995158      -0.37595312       0.64463826
H       -1.21797583       1.14979682      -1.58350960
H       -1.64092159       1.80363728       0.05578022
H        0.29817773      -2.03817486      -0.54462051
H        0.63964066      -0.70649920      -1.66415248
H        2.46099045      -1.26142994       0.48462433
H        1.39123087       1.63664975      -0.06266492
H        2.75202626       1.17737127       1.05322402
H       -0.46952908      -0.15998018       1.54434243
17
Frame=12 idx=009559 GeodesicLength=0.7483504628142312 rxn_smarts="[C:1]1([H:8])([H:9])[C:2]([H:10])([H:11])[C:3]12[C:4]([H:12])([H:13])[C@@:5]1([H:14])[C:6]([H:15])([H:16])[C@@:7]21[H:17]>>[C:1]1([H:8])([H:9])[C:2]([H:10])([H:11])[C:3]1([C:4]([C@@:5]1([H:14])[C:6]([H:15])([H:16])[C:7]1)([H:12])[H:13])[H:17]"
C       -2.04489047      -0.37438666      -0.19114440
C       -1.38411071       0.93343272      -0.53226218
C       -0.59810368      -0.16553845       0.11066657
C        0.48448985      -0.96503210      -0.60783850
C        1.64706370      -0.57169023       0.28703179
C        1.83738257       0.87723372       0.57169769
C        0.91418199       0.08657307       1.42623526
H       -2.31631784      -1.03353203      -1.00706836
H       -2.74832438      -0.38208945       0.63187960
H       -1.21321092       1.15198973      -1.57955795
H       -1.65039021       1.80235129       0.05646308
H        0.29698054      -2.03865862      -0.53702892
H        0.63118259      -0.70812237      -1.66006677
H        2.45986593      -1.26123539       0.48270434
H        1.39874839       1.64170595      -0.06133524
H        2.76591918       1.17616046       1.04434537
H       -0.48046653      -0.16916163       1.56527860
17
Frame=13 idx=009559 GeodesicLength=0.8101263488868777 rxn_smarts="[C:1]1([H:8])([H:9])[C:2]([H:10])([H:11])[C:3]12[C:4]([H:12])([H:13])[C@@:5]1([H:14])[C:6]([H:15])([H:16])[C@@:7]21[H:17]>>[C:1]1([H:8])([H:9])[C:2]([H:10])([H:11])[C:3]1([C:4]([C@@:5]1([H:14])[C:6]([H:15])([H:16])[C:7]1)([H:12])[H:13])[H:17]"
C       -2.04591092      -0.37634663      -0.19753397
C       -1.38566956       0.93340868      -0.52982596
C       -0.60189558      -0.16542601       0.11976969
C        0.47961450      -0.96494274      -0.60308092
C        1.64881461      -0.56847118       0.28350751
C        1.84818748       0.87899929       0.56714413
C        0.92045093       0.09423426       1.42102440
H       -2.31054498      -1.03183865      -1.01857811
H       -2.75658364      -0.38820082       0.61915145
H       -1.20852636       1.15416788      -1.57561675
H       -1.65991841       1.80106042       0.05698344
H        0.29580404      -2.03908436      -0.52952194
H        0.62278735      -0.70967431      -1.65597769
H        2.45864257      -1.26103432       0.48082388
H        1.40636295       1.64677168      -0.05999751
H        2.77981747       1.17485899       1.03547998
H       -0.49143245      -0.17848217       1.58624837
17
Frame=14 idx=009559 GeodesicLength=0.872810892218494 rxn_smarts="[C:1]1([H:8])([H:9])[C:2]([H:10])([H:11])[C:3]12[C:4]([H:12])([H:13])[C@@:5]1([H:14])[C:6]([H:15])([H:16])[C@@:7]21[H:17]>>[C:1]1([H:8])([H:9])[C:2]([H:10])([H:11])[C:3]1([C:4]([C@@:5]1([H:14])[C:6]([H:15])([H:16])[C:7]1)([H:12])[H:13])[H:17]"
C       -2.04671607      -0.37822916      -0.20386398
C       -1.38717345       0.93339578      -0.52734154
C       -0.60584543      -0.16544297       0.12895113
C        0.47469120      -0.96485669      -0.59831082
C        1.65045217      -0.56512625       0.27987108
C        1.85888659       0.88084194       0.56232340
C        0.92651629       0.10215504       1.41545806
H       -2.30453476      -1.02994399      -1.02995130
H       -2.76451102      -0.39422746       0.60639023
H       -1.20378099       1.15635404      -1.57149947
H       -1.66914456       1.79973801       0.05766487
H        0.29472623      -2.03944220      -0.52201247
H        0.61442735      -0.71119803      -1.65182707
H        2.45728457      -1.26070808       0.47926669
H        1.41434070       1.65182599      -0.05911275
H        2.79347952       1.17356423       1.02652673
H       -0.50309834      -0.18870018       1.60746721
17
Frame=15 idx=009559 GeodesicLength=0.9350105477573265 rxn_smarts="[C:1]1([H:8])([H:9])[C:2]([H:10])([H:11])[C:3]12[C:4]([H:12])([H:13])[C@@:5]1([H:14])[C:6]([H:15])([H:16])[C@@:7]21[H:17]>>[C:1]1([H:8])([H:9])[C:2]([H:10])([H:11])[C:3]1([C:4]([C@@:5]1([H:14])[C:6]([H:15])([H:16])[C:7]1)([H:12])[H:13])[H:17]"
C       -2.04749822      -0.38009929      -0.21013976
C       -1.38869744       0.93337899      -0.52485392
C       -0.60978168      -0.16542450       0.13809990
C        0.46981982      -0.96469240      -0.59353403
C        1.65206692      -0.56177956       0.27625709
C        1.86961976       0.88264432       0.55748418
C        0.93249385       0.11014347       1.40983948
H       -2.29851563      -1.02807583      -1.04116862
H       -2.77233376      -0.40022060       0.59365213
H       -1.19910623       1.15853267      -1.56738572
H       -1.67842176       1.79841661       0.05819250
H        0.29367106      -2.03974110      -0.51457663
H        0.60612985      -0.71265611      -1.64766620
H        2.45583208      -1.26036483       0.47775195
H        1.42242503       1.65688255      -0.05825844
H        2.80714962       1.17219277       1.01757462
H       -0.51485328      -0.19913716       1.62873146
17
Frame=16 idx=009559 GeodesicLength=0.9971844067701616 rxn_smarts="[C:1]1([H:8])([H:9])[C:2]([H:10])([H:11])[C:3]12[C:4]([H:12])([H:13])[C@@:5]1([H:14])[C:6]([H:15])([H:16])[C@@:7]21[H:17]>>[C:1]1([H:8])([H:9])[C:2]([H:10])([H:11])[C:3]1([C:4]([C@@:5]1([H:14])[C:6]([H:15])([H:16])[C:7]1)([H:12])[H:13])[H:17]"
C       -2.04819186      -0.38193446      -0.21636473
C       -1.39021294       0.93336692      -0.52233737
C       -0.61376160      -0.16542585       0.14726265
C        0.46496481      -0.96448158      -0.58873930
C        1.65363148      -0.55838730       0.27262285
C        1.88034313       0.88444934       0.55252941
C        0.93835407       0.11827940       1.40406566
H       -2.29240576      -1.02614642      -1.05225418
H       -2.77998686      -0.40616878       0.58090332
H       -1.19443913       1.16072274      -1.56320070
H       -1.68763419       1.79708445       0.05868944
H        0.29266147      -2.03998263      -0.50716718
H        0.59788001      -0.71407423      -1.64347299
H        2.45427764      -1.25996014       0.47637829
H        1.43070266       1.66193938      -0.05759622
H        2.82075630       1.17077783       1.00857007
H       -0.52693923      -0.21005867       1.65011100
