14
Frame=0 idx=005651 GeodesicLength=0.0 rxn_smarts="[C:1]([O:2][C:3]1([H:10])[C:4]([H:11])([H:12])[O:5][C:6]1([H:13])[H:14])([H:7])([H:8])[H:9]>>[C:1]([O:2][C@@:3]1([H:10])[C-:4]=[O+:5][C:6]1([H:13])[H:14])([H:7])([H:8])[H:9].[H:11][H:12]"
C        2.03660086       0.03116426       0.54497723
O        0.80448058       0.68826875       0.74601619
C       -0.15047972       0.33025717      -0.20586762
C       -0.77320474      -1.05761141       0.09635861
O       -1.92181053      -0.49935263       0.53883489
C       -1.53845770       0.84520987       0.16965436
H        1.91550673      -1.05634706       0.57678414
H        2.47847594       0.31472472      -0.41896669
H        2.70201497       0.34267783       1.34774657
H        0.20015138       0.53649403      -1.22144430
H       -0.90327636      -1.86623120      -0.91602661
H       -1.11647166      -1.33253602      -1.59726991
H       -1.58967816       1.53369445       1.01231400
H       -2.14385162       1.18958720      -0.67311091
14
Frame=1 idx=005651 GeodesicLength=0.06366021613243263 rxn_smarts="[C:1]([O:2][C:3]1([H:10])[C:4]([H:11])([H:12])[O:5][C:6]1([H:13])[H:14])([H:7])([H:8])[H:9]>>[C:1]([O:2][C@@:3]1([H:10])[C-:4]=[O+:5][C:6]1([H:13])[H:14])([H:7])([H:8])[H:9].[H:11][H:12]"
C        2.03318796       0.02894372       0.53804956
O        0.80288565       0.68569778       0.75113428
C       -0.15645108       0.33827907      -0.19977785
C       -0.78851038      -1.04627269       0.09143089
O       -1.94473137      -0.48585568       0.51328240
C       -1.54202137       0.86058435       0.17328686
H        1.91149586      -1.05892360       0.55376293
H        2.47233452       0.32558495      -0.42320858
H        2.70137868       0.32770205       1.34334231
H        0.19257171       0.54787100      -1.21554281
H       -0.87135758      -1.90685263      -0.89700496
H       -1.08256713      -1.37972833      -1.59408728
H       -1.59037375       1.53165065       1.03022963
H       -2.13784172       1.23131935      -0.66489738
14
Frame=2 idx=005651 GeodesicLength=0.12713399659335511 rxn_smarts="[C:1]([O:2][C:3]1([H:10])[C:4]([H:11])([H:12])[O:5][C:6]1([H:13])[H:14])([H:7])([H:8])[H:9]>>[C:1]([O:2][C@@:3]1([H:10])[C-:4]=[O+:5][C:6]1([H:13])[H:14])([H:7])([H:8])[H:9].[H:11][H:12]"
C        2.02931733       0.02642921       0.53071224
O        0.80097006       0.68279237       0.75596725
C       -0.16265086       0.34681216      -0.19421995
C       -0.80425230      -1.03454171       0.08432940
O       -1.96779719      -0.47176413       0.48502847
C       -1.54565481       0.87631124       0.17715565
H        1.90674513      -1.06151942       0.53056279
H        2.46579443       0.33594328      -0.42769975
H        2.70037181       0.31236704       1.33826230
H        0.18480782       0.56030227      -1.21002794
H       -0.83857850      -1.94739089      -0.87474426
H       -1.04619265      -1.42863946      -1.58933393
H       -1.59155234       1.52804429       1.04919651
H       -2.13132793       1.27485375      -0.65518879
14
Frame=3 idx=005651 GeodesicLength=0.19052612728352872 rxn_smarts="[C:1]([O:2][C:3]1([H:10])[C:4]([H:11])([H:12])[O:5][C:6]1([H:13])[H:14])([H:7])([H:8])[H:9]>>[C:1]([O:2][C@@:3]1([H:10])[C-:4]=[O+:5][C:6]1([H:13])[H:14])([H:7])([H:8])[H:9].[H:11][H:12]"
C        2.02492044       0.02353557       0.52285528
O        0.79867697       0.67943300       0.76054668
C       -0.16914514       0.35587788      -0.18916375
C       -0.82058234      -1.02235204       0.07492412
O       -1.99125524      -0.45691022       0.45338661
C       -1.54941342       0.89243104       0.18129712
H        1.90121020      -1.06423046       0.50719136
H        2.45868646       0.34559980      -0.43264139
H        2.69906803       0.29672070       1.33223018
H        0.17681208       0.57387151      -1.20484593
H       -0.80441752      -1.98759759      -0.84880830
H       -1.00703608      -1.47939071      -1.58258097
H       -1.59342949       1.52246946       1.06939273
H       -2.12409496       1.32054206      -0.64378374
14
Frame=4 idx=005651 GeodesicLength=0.2537151815991508 rxn_smarts="[C:1]([O:2][C:3]1([H:10])[C:4]([H:11])([H:12])[O:5][C:6]1([H:13])[H:14])([H:7])([H:8])[H:9]>>[C:1]([O:2][C@@:3]1([H:10])[C-:4]=[O+:5][C:6]1([H:13])[H:14])([H:7])([H:8])[H:9].[H:11][H:12]"
C        2.02009719       0.02035185       0.51457037
O        0.79603182       0.67560264       0.76482327
C       -0.17578125       0.36544619      -0.18475862
C       -0.83727406      -1.00977263       0.06273803
O       -2.01462986      -0.44131803       0.41853698
C       -1.55321740       0.90872543       0.18564096
H        1.89504183      -1.06699113       0.48363633
H        2.45123829       0.35479004      -0.43785140
H        2.69739384       0.28081917       1.32550286
H        0.16880630       0.58873219      -1.20007896
H       -0.77002107      -2.02726889      -0.81907985
H       -0.96549133      -1.53176811      -1.57366410
H       -1.59597952       1.51474374       1.09051345
H       -2.11621478       1.36790754      -0.63052933
14
Frame=5 idx=005651 GeodesicLength=0.3167067905298946 rxn_smarts="[C:1]([O:2][C:3]1([H:10])[C:4]([H:11])([H:12])[O:5][C:6]1([H:13])[H:14])([H:7])([H:8])[H:9]>>[C:1]([O:2][C@@:3]1([H:10])[C-:4]=[O+:5][C:6]1([H:13])[H:14])([H:7])([H:8])[H:9].[H:11][H:12]"
C        2.01486087       0.01686005       0.50584050
O        0.79302311       0.67122628       0.76878874
C       -0.18251335       0.37553739      -0.18105997
C       -0.85425751      -0.99676994       0.04742682
O       -2.03776935      -0.42488873       0.38025588
C       -1.55706964       0.92508996       0.19015868
H        1.88829222      -1.06983049       0.45986645
H        2.44347285       0.36350548      -0.44334220
H        2.69535414       0.26465515       1.31806775
H        0.16088766       0.60507439      -1.19571392
H       -0.73561217      -2.06609102      -0.78527756
H       -0.92166915      -1.58572512      -1.56221027
H       -1.59932771       1.50455521       1.11243358
H       -2.10767196       1.41680138      -0.61523448
14
Frame=6 idx=005651 GeodesicLength=0.37942275222805544 rxn_smarts="[C:1]([O:2][C:3]1([H:10])[C:4]([H:11])([H:12])[O:5][C:6]1([H:13])[H:14])([H:7])([H:8])[H:9]>>[C:1]([O:2][C@@:3]1([H:10])[C-:4]=[O+:5][C:6]1([H:13])[H:14])([H:7])([H:8])[H:9].[H:11][H:12]"
C        2.00931053       0.01313202       0.49671408
O        0.78966093       0.66621514       0.77245030
C       -0.18920994       0.38611597      -0.17815823
C       -0.87132890      -0.98336581       0.02856305
O       -2.06031568      -0.40759680       0.33863349
C       -1.56091900       0.94131496       0.19476252
H        1.88115719      -1.07268229       0.43566598
H        2.43558358       0.37208503      -0.44892739
H        2.69290074       0.24817858       1.31013558
H        0.15326845       0.62306964      -1.19174719
H       -0.70207074      -2.10378520      -0.74723000
H       -0.87604142      -1.64114632      -1.54789639
H       -1.60349355       1.49167897       1.13482270
H       -2.09850221       1.46678610      -0.59778850
14
Frame=7 idx=005651 GeodesicLength=0.4419482746176542 rxn_smarts="[C:1]([O:2][C:3]1([H:10])[C:4]([H:11])([H:12])[O:5][C:6]1([H:13])[H:14])([H:7])([H:8])[H:9]>>[C:1]([O:2][C@@:3]1([H:10])[C-:4]=[O+:5][C:6]1([H:13])[H:14])([H:7])([H:8])[H:9].[H:11][H:12]"
C        2.00341811       0.00908334       0.48711745
O        0.78592698       0.66046868       0.77579638
C       -0.19586030       0.39724966      -0.17608358
C       -0.88843746      -0.96944151       0.00572651
O       -2.08220889      -0.38927110       0.29321445
C       -1.56480507       0.95731475       0.19944963
H        1.87362018      -1.07563257       0.41106329
H        2.42749249       0.38031170      -0.45474526
H        2.69009712       0.23137188       1.30153198
H        0.14601416       0.64303289      -1.18810405
H       -0.66927194      -2.13984129      -0.70450274
H       -0.82857754      -1.69807053      -1.53017496
H       -1.60871130       1.47562519       1.15762916
H       -2.08869655       1.51779892      -0.57791826
14
Frame=8 idx=005651 GeodesicLength=0.5041046848695395 rxn_smarts="[C:1]([O:2][C:3]1([H:10])[C:4]([H:11])([H:12])[O:5][C:6]1([H:13])[H:14])([H:7])([H:8])[H:9]>>[C:1]([O:2][C@@:3]1([H:10])[C-:4]=[O+:5][C:6]1([H:13])[H:14])([H:7])([H:8])[H:9].[H:11][H:12]"
C        1.99740210       0.00490158       0.47716438
O        0.78185564       0.65384337       0.77888025
C       -0.20222771       0.40883181      -0.17494420
C       -0.90518247      -0.95506448      -0.02162462
O       -2.10287558      -0.37001528       0.24451507
C       -1.56862471       0.97273074       0.20405086
H        1.86608620      -1.07846705       0.38551811
H        2.41960715       0.38902099      -0.46033515
H        2.68685071       0.21409601       1.29272088
H        0.13948526       0.66514624      -1.18473995
H       -0.63885395      -2.17397563      -0.65706363
H       -0.78028366      -1.75636877      -1.50873030
H       -1.61486413       1.45630159       1.18024185
H       -2.07837486       1.56901889      -0.55565357
14
Frame=9 idx=005651 GeodesicLength=0.5659272818052203 rxn_smarts="[C:1]([O:2][C:3]1([H:10])[C:4]([H:11])([H:12])[O:5][C:6]1([H:13])[H:14])([H:7])([H:8])[H:9]>>[C:1]([O:2][C@@:3]1([H:10])[C-:4]=[O+:5][C:6]1([H:13])[H:14])([H:7])([H:8])[H:9].[H:11][H:12]"
C        1.99126624       0.00047948       0.46683282
O        0.77746835       0.64628216       0.78165170
C       -0.20825368       0.42095700      -0.17479076
C       -0.92132998      -0.94008412      -0.05409068
O       -2.12207135      -0.34979145       0.19256038
C       -1.57242554       0.98738251       0.20852716
H        1.85853771      -1.08128065       0.35914336
H        2.41193670       0.39789399      -0.46577628
H        2.68322304       0.19628818       1.28360672
H        0.13382059       0.68985872      -1.18153171
H       -0.61068686      -2.20535533      -0.60467606
H       -0.73155239      -1.81595531      -1.48304565
H       -1.62211546       1.43336512       1.20241077
H       -2.06781737       1.61995969      -0.53082178
14
Frame=10 idx=005651 GeodesicLength=0.6272422546950972 rxn_smarts="[C:1]([O:2][C:3]1([H:10])[C:4]([H:11])([H:12])[O:5][C:6]1([H:13])[H:14])([H:7])([H:8])[H:9]>>[C:1]([O:2][C@@:3]1([H:10])[C-:4]=[O+:5][C:6]1([H:13])[H:14])([H:7])([H:8])[H:9].[H:11][H:12]"
C        1.98524517      -0.00399125       0.45617688
O        0.77278838       0.63755502       0.78416497
C       -0.21371074       0.43350567      -0.17571582
C       -0.93640891      -0.92448604      -0.09231166
O       -2.13935309      -0.32877130       0.13767583
C       -1.57611535       1.00087022       0.21270463
H        1.85142714      -1.08379394       0.33120191
H        2.40487325       0.40787986      -0.47057867
H        2.67914241       0.17773458       1.27458088
H        0.12936414       0.71741713      -1.17833755
H       -0.58635635      -2.23347967      -0.54712206
H       -0.68345180      -1.87689330      -1.45256713
H       -1.63032874       1.40655679       1.22358798
H       -2.05711551       1.66989623      -0.50346019
14
Frame=11 idx=005651 GeodesicLength=0.6881963164016118 rxn_smarts="[C:1]([O:2][C:3]1([H:10])[C:4]([H:11])([H:12])[O:5][C:6]1([H:13])[H:14])([H:7])([H:8])[H:9]>>[C:1]([O:2][C@@:3]1([H:10])[C-:4]=[O+:5][C:6]1([H:13])[H:14])([H:7])([H:8])[H:9].[H:11][H:12]"
C        1.97929813      -0.00872835       0.44506097
O        0.76783038       0.62754957       0.78631150
C       -0.21857079       0.44663106      -0.17778542
C       -0.95011682      -0.90797156      -0.13720221
O       -2.15457549      -0.30694348       0.07955454
C       -1.57979121       1.01297300       0.21657523
H        1.84466084      -1.08619044       0.30171977
H        2.39837187       0.41847789      -0.47495166
H        2.67468993       0.15821406       1.26537076
H        0.12623424       0.74851783      -1.17491933
H       -0.56565834      -2.25700874      -0.48374601
H       -0.63595342      -1.93916024      -1.41632704
H       -1.63978415       1.37522380       1.24362080
H       -2.04663518       1.71841560      -0.47328190
14
Frame=12 idx=005651 GeodesicLength=0.748398991523928 rxn_smarts="[C:1]([O:2][C:3]1([H:10])[C:4]([H:11])([H:12])[O:5][C:6]1([H:13])[H:14])([H:7])([H:8])[H:9]>>[C:1]([O:2][C@@:3]1([H:10])[C-:4]=[O+:5][C:6]1([H:13])[H:14])([H:7])([H:8])[H:9].[H:11][H:12]"
C        1.97385558      -0.01334911       0.43362211
O        0.76270108       0.61604553       0.78808986
C       -0.22246772       0.46003810      -0.18112257
C       -0.96157147      -0.89060291      -0.18935045
O       -2.16709863      -0.28485365       0.01865820
C       -1.58328043       1.02297760       0.21985375
H        1.83896888      -1.08790342       0.26982844
H        2.39304757       0.43105297      -0.47811093
H        2.66982984       0.13764136       1.25655779
H        0.12486785       0.78319240      -1.17106398
H       -0.55089905      -2.27499273      -0.41461672
H       -0.59136065      -2.00259200      -1.37364016
H       -1.65011083       1.33893300       1.26176153
H       -2.03648203       1.76441286      -0.44046686
14
Frame=13 idx=005651 GeodesicLength=0.8080625557835899 rxn_smarts="[C:1]([O:2][C:3]1([H:10])[C:4]([H:11])([H:12])[O:5][C:6]1([H:13])[H:14])([H:7])([H:8])[H:9]>>[C:1]([O:2][C@@:3]1([H:10])[C-:4]=[O+:5][C:6]1([H:13])[H:14])([H:7])([H:8])[H:9].[H:11][H:12]"
C        1.96873998      -0.01834660       0.42163954
O        0.75751663       0.60311237       0.78918289
C       -0.22542662       0.47388287      -0.18574648
C       -0.97020560      -0.87196805      -0.24958596
O       -2.17666361      -0.26266429      -0.04548249
C       -1.58673023       1.03046966       0.22255418
H        1.83395371      -1.08942572       0.23622833
H        2.38860493       0.44404965      -0.48074153
H        2.66474910       0.11583846       1.24747311
H        0.12521192       0.82222636      -1.16633449
H       -0.54146144      -2.28482963      -0.33916778
H       -0.54920089      -2.06604610      -1.32310817
H       -1.66174233       1.29660668       1.27782591
H       -2.02734556       1.80709433      -0.40473706
14
Frame=14 idx=005651 GeodesicLength=0.8671978374953141 rxn_smarts="[C:1]([O:2][C:3]1([H:10])[C:4]([H:11])([H:12])[O:5][C:6]1([H:13])[H:14])([H:7])([H:8])[H:9]>>[C:1]([O:2][C@@:3]1([H:10])[C-:4]=[O+:5][C:6]1([H:13])[H:14])([H:7])([H:8])[H:9].[H:11][H:12]"
C        1.96463070      -0.02313826       0.40923432
O        0.75260787       0.58888388       0.78948553
C       -0.22702929       0.48758819      -0.19164822
C       -0.97485137      -0.85244289      -0.31729410
O       -2.18270412      -0.24100203      -0.11358643
C       -1.58999890       1.03443485       0.22440068
H        1.83053193      -1.09008379       0.20059236
H        2.38573256       0.45857262      -0.48236377
H        2.65984034       0.09340213       1.23843802
H        0.12757638       0.86486037      -1.16046842
H       -0.54017244      -2.28518967      -0.25804025
H       -0.51259615      -2.12838144      -1.26392057
H       -1.67459258       1.24697166       1.29113880
H       -2.01897492       1.84552438      -0.36596795
14
Frame=15 idx=005651 GeodesicLength=0.9261330985005295 rxn_smarts="[C:1]([O:2][C:3]1([H:10])[C:4]([H:11])([H:12])[O:5][C:6]1([H:13])[H:14])([H:7])([H:8])[H:9]>>[C:1]([O:2][C@@:3]1([H:10])[C-:4]=[O+:5][C:6]1([H:13])[H:14])([H:7])([H:8])[H:9].[H:11][H:12]"
C        1.96199006      -0.02743396       0.39674705
O        0.74853533       0.57421149       0.78878319
C       -0.22707808       0.50049410      -0.19849446
C       -0.97454536      -0.83275469      -0.38975151
O       -2.18467920      -0.22049168      -0.18501918
C       -1.59300914       1.03412616       0.22518377
H        1.82903739      -1.08970969       0.16434066
H        2.38466928       0.47398574      -0.48313777
H        2.65572616       0.07142372       1.22951369
H        0.13171205       0.90937559      -1.15331813
H       -0.54750287      -2.27485120      -0.17385685
H       -0.48471074      -2.18644530      -1.19708638
H       -1.68845592       1.18989915       1.30085346
H       -2.01168896       1.87817056      -0.32475755
14
Frame=16 idx=005651 GeodesicLength=0.9847372313972771 rxn_smarts="[C:1]([O:2][C:3]1([H:10])[C:4]([H:11])([H:12])[O:5][C:6]1([H:13])[H:14])([H:7])([H:8])[H:9]>>[C:1]([O:2][C@@:3]1([H:10])[C-:4]=[O+:5][C:6]1([H:13])[H:14])([H:7])([H:8])[H:9].[H:11][H:12]"
C        1.96028869      -0.03170473       0.38493966
O        0.74576874       0.56108946       0.78679030
C       -0.22597087       0.51204373      -0.20553343
C       -0.96936012      -0.81391411      -0.46145505
O       -2.18245914      -0.20195958      -0.25525766
C       -1.59574291       1.02984194       0.22495293
H        1.82810378      -1.08946409       0.13215836
H        2.38443018       0.48610765      -0.48461024
H        2.65261860       0.05154254       1.22056981
H        0.13636926       0.95274477      -1.14518946
H       -0.55897174      -2.25375836      -0.09256992
H       -0.46604321      -2.23436061      -1.12785789
H       -1.70220764       1.12884266       1.30638356
H       -2.00682361       1.90294872      -0.28332097
