12
Frame=0 idx=004310 GeodesicLength=0.0 rxn_smarts="[C:1]([C:2]1([H:8])[C:3]([H:9])([H:10])[C:4]1([H:11])[H:12])([H:5])([H:6])[H:7]>>[C:1]([C:2][C:3]([C:4]([H:8])([H:11])[H:12])([H:9])[H:10])([H:5])([H:6])[H:7]"
C        1.36474435      -0.44258461      -0.47457707
C        0.24899967      -0.70263655       0.50719074
C       -1.07864532      -0.45442068      -0.08962289
C       -0.74663076       0.87289138       0.57864667
H        2.27435977      -0.07947363       0.00493758
H        1.11896686       0.20453700      -1.33035529
H        1.59978107      -1.43390414      -0.87610426
H        0.18921607       0.56335671       1.23844733
H       -1.92799847      -0.97547502       0.34126342
H       -1.14459133      -0.37995812      -1.17589028
H       -1.42748417       1.15467671       1.37544705
H       -0.47071778       1.67299095      -0.09938295
12
Frame=1 idx=004310 GeodesicLength=0.05090885890245009 rxn_smarts="[C:1]([C:2]1([H:8])[C:3]([H:9])([H:10])[C:4]1([H:11])[H:12])([H:5])([H:6])[H:7]>>[C:1]([C:2][C:3]([C:4]([H:8])([H:11])[H:12])([H:9])[H:10])([H:5])([H:6])[H:7]"
C        1.36822926      -0.44333347      -0.47957941
C        0.25306358      -0.69404988       0.50238225
C       -1.07822276      -0.45258167      -0.08936280
C       -0.74891995       0.87453828       0.58062407
H        2.28020928      -0.08165945      -0.00343037
H        1.12225306       0.20090909      -1.33714734
H        1.59862676      -1.43753552      -0.87745327
H        0.18347327       0.55515584       1.26542496
H       -1.92132033      -0.97947491       0.34670682
H       -1.14764196      -0.37789416      -1.17537254
H       -1.44382147       1.16214069       1.36300384
H       -0.46592872       1.67378517      -0.09579620
12
Frame=2 idx=004310 GeodesicLength=0.10181477712536491 rxn_smarts="[C:1]([C:2]1([H:8])[C:3]([H:9])([H:10])[C:4]1([H:11])[H:12])([H:5])([H:6])[H:7]>>[C:1]([C:2][C:3]([C:4]([H:8])([H:11])[H:12])([H:9])[H:10])([H:5])([H:6])[H:7]"
C        1.37173580      -0.44404408      -0.48467119
C        0.25723366      -0.68508519       0.49760557
C       -1.07772403      -0.45068768      -0.08906676
C       -0.75124087       0.87630411       0.58261197
H        2.28607797      -0.08369179      -0.01200936
H        1.12550592       0.19713387      -1.34413901
H        1.59744693      -1.44121792      -0.87857767
H        0.17704660       0.54613878       1.29265360
H       -1.91442268      -0.98343551       0.35221312
H       -1.15067183      -0.37580786      -1.17480508
H       -1.45985764       1.16971460       1.35031321
H       -0.46112983       1.67467867      -0.09212840
12
Frame=3 idx=004310 GeodesicLength=0.15271737736231528 rxn_smarts="[C:1]([C:2]1([H:8])[C:3]([H:9])([H:10])[C:4]1([H:11])[H:12])([H:5])([H:6])[H:7]>>[C:1]([C:2][C:3]([C:4]([H:8])([H:11])[H:12])([H:9])[H:10])([H:5])([H:6])[H:7]"
C        1.37526488      -0.44471701      -0.48984934
C        0.26151617      -0.67571737       0.49286775
C       -1.07714063      -0.44873246      -0.08873189
C       -0.75359787       0.87820068       0.58460852
H        2.29197629      -0.08558242      -0.02080786
H        1.12872836       0.19320562      -1.35132883
H        1.59623160      -1.44495472      -0.87946008
H        0.16992050       0.53627624       1.32009432
H       -1.90729362      -0.98735190       0.35778211
H       -1.15367368      -0.37369911      -1.17418482
H       -1.47558247       1.17738803       1.33739927
H       -0.45634952       1.67568443      -0.08838914
12
Frame=4 idx=004310 GeodesicLength=0.20361642616508618 rxn_smarts="[C:1]([C:2]1([H:8])[C:3]([H:9])([H:10])[C:4]1([H:11])[H:12])([H:5])([H:6])[H:7]>>[C:1]([C:2][C:3]([C:4]([H:8])([H:11])[H:12])([H:9])[H:10])([H:5])([H:6])[H:7]"
C        1.37881714      -0.44535308      -0.49510975
C        0.26591716      -0.66592049       0.48817579
C       -1.07646387      -0.44670930      -0.08835539
C       -0.75599575       0.88024011       0.58661202
H        2.29791478      -0.08734490      -0.02983370
H        1.13192367       0.18911826      -1.35871430
H        1.59496994      -1.44874906      -0.88008159
H        0.16208375       0.52553966       1.34770271
H       -1.89992085      -0.99121928       0.36341298
H       -1.15664001      -0.37156729      -1.17350872
H       -1.49098725       1.18514897       1.32428909
H       -0.45161870       1.67681639      -0.08458913
12
Frame=5 idx=004310 GeodesicLength=0.2545116895568716 rxn_smarts="[C:1]([C:2]1([H:8])[C:3]([H:9])([H:10])[C:4]1([H:11])[H:12])([H:5])([H:6])[H:7]>>[C:1]([C:2][C:3]([C:4]([H:8])([H:11])[H:12])([H:9])[H:10])([H:5])([H:6])[H:7]"
C        1.38239291      -0.44595344      -0.50044709
C        0.27044225      -0.65566779       0.48353651
C       -1.07568496      -0.44461107      -0.08793455
C       -0.75843994       0.88243483       0.58862081
H        2.30390405      -0.08899531      -0.03909350
H        1.13509583       0.18486581      -1.36629136
H        1.59364988      -1.45260371      -0.88042207
H        0.15353073       0.51390205       1.37542822
H       -1.89229157      -0.99503304       0.36910425
H       -1.15956303      -0.36941148      -1.17277385
H       -1.50606484       1.19298364       1.31101307
H       -0.44697131       1.67808953      -0.08074044
12
Frame=6 idx=004310 GeodesicLength=0.3054036169008829 rxn_smarts="[C:1]([C:2]1([H:8])[C:3]([H:9])([H:10])[C:4]1([H:11])[H:12])([H:5])([H:6])[H:7]>>[C:1]([C:2][C:3]([C:4]([H:8])([H:11])[H:12])([H:9])[H:10])([H:5])([H:6])[H:7]"
C        1.38599212      -0.44651945      -0.50585482
C        0.27509656      -0.64493228       0.47895629
C       -1.07479519      -0.44243027      -0.08746681
C       -0.76093625       0.88479730       0.59063348
H        2.30995435      -0.09055121      -0.04859261
H        1.13824912       0.18044193      -1.37405490
H        1.59225862      -1.45652091      -0.88045997
H        0.14426220       0.50133732       1.40321504
H       -1.88439276      -0.99878900       0.37485398
H       -1.16243520      -0.36723030      -1.17197747
H       -1.52081068       1.20087710       1.29760377
H       -0.44244287       1.67951978      -0.07685598
12
Frame=7 idx=004310 GeodesicLength=0.35629532510378714 rxn_smarts="[C:1]([C:2]1([H:8])[C:3]([H:9])([H:10])[C:4]1([H:11])[H:12])([H:5])([H:6])[H:7]>>[C:1]([C:2][C:3]([C:4]([H:8])([H:11])[H:12])([H:9])[H:10])([H:5])([H:6])[H:7]"
C        1.38961422      -0.44705276      -0.51132506
C        0.27988423      -0.63368710       0.47444149
C       -1.07378643      -0.44015964      -0.08695013
C       -0.76349090       0.88734049       0.59264907
H        2.31607582      -0.09203148      -0.05833422
H        1.14138846       0.17584041      -1.38199945
H        1.59078209      -1.46050308      -0.88017245
H        0.13428714       0.48782168       1.43100284
H       -1.87621187      -1.00248477       0.38065942
H       -1.16524951      -0.36502230      -1.17111839
H       -1.53522278       1.20881328       1.28409677
H       -0.43807045       1.68112526      -0.07294989
12
Frame=8 idx=004310 GeodesicLength=0.40720995890615513 rxn_smarts="[C:1]([C:2]1([H:8])[C:3]([H:9])([H:10])[C:4]1([H:11])[H:12])([H:5])([H:6])[H:7]>>[C:1]([C:2][C:3]([C:4]([H:8])([H:11])[H:12])([H:9])[H:10])([H:5])([H:6])[H:7]"
C        1.39326135      -0.44755492      -0.51685212
C        0.28480346      -0.62190781       0.47000373
C       -1.07265646      -0.43779872      -0.08638528
C       -0.76610977       0.89008304       0.59467181
H        2.32228438      -0.09344818      -0.06831790
H        1.14452878       0.17105595      -1.39013329
H        1.58920429      -1.46456034      -0.87954001
H        0.12362094       0.47334085       1.45874268
H       -1.86774966      -1.00613290       0.38651881
H       -1.16800057      -0.36279424      -1.17021057
H       -1.54930449       1.21678025       1.27054121
H       -0.43388227       1.68293702      -0.06903906
12
Frame=9 idx=004310 GeodesicLength=0.4580683703481643 rxn_smarts="[C:1]([C:2]1([H:8])[C:3]([H:9])([H:10])[C:4]1([H:11])[H:12])([H:5])([H:6])[H:7]>>[C:1]([C:2][C:3]([C:4]([H:8])([H:11])[H:12])([H:9])[H:10])([H:5])([H:6])[H:7]"
C        1.39692039      -0.44803058      -0.52241474
C        0.28987123      -0.60955953       0.46562258
C       -1.07137842      -0.43531343      -0.08576334
C       -0.76880844       0.89301423       0.59668397
H        2.32856079      -0.09484854      -0.07855257
H        1.14764320       0.16607006      -1.39839676
H        1.58752110      -1.46866499      -0.87851543
H        0.11229411       0.45784698       1.48629826
H       -1.85894428      -1.00967670       0.39242228
H       -1.17067413      -0.36050919      -1.16919994
H       -1.56305175       1.22474401       1.25694059
H       -0.42995379       1.68492767      -0.06512491
12
Frame=10 idx=004310 GeodesicLength=0.5089628019453935 rxn_smarts="[C:1]([C:2]1([H:8])[C:3]([H:9])([H:10])[C:4]1([H:11])[H:12])([H:5])([H:6])[H:7]>>[C:1]([C:2][C:3]([C:4]([H:8])([H:11])[H:12])([H:9])[H:10])([H:5])([H:6])[H:7]"
C        1.40060305      -0.44847715      -0.52801414
C        0.29507295      -0.59662261       0.46132237
C       -1.06996893      -0.43271863      -0.08508879
C       -0.77158327       0.89616666       0.59870547
H        2.33494293      -0.09621783      -0.08903428
H        1.15077025       0.16087470      -1.40683987
H        1.58571357      -1.47284077      -0.87708690
H        0.10033251       0.44133520       1.51367034
H       -1.84984071      -1.01316387       0.39837254
H       -1.17327658      -0.35819802      -1.16813611
H       -1.57648700       1.23270445       1.24336009
H       -0.42627877       1.68715788      -0.06123071
12
Frame=11 idx=004310 GeodesicLength=0.5598413149479596 rxn_smarts="[C:1]([C:2]1([H:8])[C:3]([H:9])([H:10])[C:4]1([H:11])[H:12])([H:5])([H:6])[H:7]>>[C:1]([C:2][C:3]([C:4]([H:8])([H:11])[H:12])([H:9])[H:10])([H:5])([H:6])[H:7]"
C        1.40429251      -0.44890269      -0.53362511
C        0.30041544      -0.58307336       0.45709301
C       -1.06840422      -0.42999321      -0.08436097
C       -0.77445057       0.89954287       0.60072243
H        2.34140663      -0.09760341      -0.09974929
H        1.15389175       0.15546486      -1.41541394
H        1.58376541      -1.47707854      -0.87521372
H        0.08780353       0.42378983       1.54072617
H       -1.84038810      -1.01656683       0.40435155
H       -1.17579082      -0.35583533      -1.16699425
H       -1.58960455       1.24062411       1.22983709
H       -0.42293700       1.68963169      -0.05737298
12
Frame=12 idx=004310 GeodesicLength=0.6107400915491381 rxn_smarts="[C:1]([C:2]1([H:8])[C:3]([H:9])([H:10])[C:4]1([H:11])[H:12])([H:5])([H:6])[H:7]>>[C:1]([C:2][C:3]([C:4]([H:8])([H:11])[H:12])([H:9])[H:10])([H:5])([H:6])[H:7]"
C        1.40799369      -0.44930769      -0.53923646
C        0.30588580      -0.56889453       0.45293970
C       -1.06669704      -0.42713909      -0.08358394
C       -0.77741873       0.90315634       0.60274025
H        2.34797093      -0.09901300      -0.11068023
H        1.15703275       0.14983280      -1.42412662
H        1.58166598      -1.48138034      -0.87287373
H        0.07477562       0.40520792       1.56740447
H       -1.83061099      -1.01989795       0.41035668
H       -1.17822343      -0.35343184      -1.16579697
H       -1.60241875       1.24849035       1.21643115
H       -0.41995582       1.69237702      -0.05357430
12
Frame=13 idx=004310 GeodesicLength=0.661634459629778 rxn_smarts="[C:1]([C:2]1([H:8])[C:3]([H:9])([H:10])[C:4]1([H:11])[H:12])([H:5])([H:6])[H:7]>>[C:1]([C:2][C:3]([C:4]([H:8])([H:11])[H:12])([H:9])[H:10])([H:5])([H:6])[H:7]"
C        1.41169827      -0.44969823      -0.54482923
C        0.31147992      -0.55406509       0.44884765
C       -1.06483818      -0.42413850      -0.08275655
C       -0.78050259       0.90701106       0.60475323
H        2.35462281      -0.10047602      -0.12181878
H        1.16019277       0.14396011      -1.43294898
H        1.57941065      -1.48573581      -0.87002835
H        0.06132546       0.38557278       1.59359844
H       -1.82048781      -1.02313542       0.41637601
H       -1.18056422      -0.35097188      -1.16452797
H       -1.61494725       1.25627667       1.20318047
H       -0.41738982       1.69540033      -0.04984593
12
Frame=14 idx=004310 GeodesicLength=0.7125371980002041 rxn_smarts="[C:1]([C:2]1([H:8])[C:3]([H:9])([H:10])[C:4]1([H:11])[H:12])([H:5])([H:6])[H:7]>>[C:1]([C:2][C:3]([C:4]([H:8])([H:11])[H:12])([H:9])[H:10])([H:5])([H:6])[H:7]"
C        1.41539765      -0.45007412      -0.55037966
C        0.31718187      -0.53857702       0.44481595
C       -1.06283698      -0.42099039      -0.08188872
C       -0.78370976       0.91111119       0.60675866
H        2.36135756      -0.10200519      -0.13312282
H        1.16337820       0.13784506      -1.44186981
H        1.57697886      -1.49013978      -0.86664291
H        0.04757543       0.36489407       1.61922046
H       -1.81002762      -1.02628940       0.42239328
H       -1.18282430      -0.34845504      -1.16320904
H       -1.62719312       1.26395862       1.19013872
H       -0.41527779       1.69872200      -0.04621411
12
Frame=15 idx=004310 GeodesicLength=0.7634060717777418 rxn_smarts="[C:1]([C:2]1([H:8])[C:3]([H:9])([H:10])[C:4]1([H:11])[H:12])([H:5])([H:6])[H:7]>>[C:1]([C:2][C:3]([C:4]([H:8])([H:11])[H:12])([H:9])[H:10])([H:5])([H:6])[H:7]"
C        1.41907829      -0.45044127      -0.55586029
C        0.32299325      -0.52240753       0.44081912
C       -1.06067806      -0.41766458      -0.08097451
C       -0.78705351       0.91545523       0.60874338
H        2.36815308      -0.10364144      -0.14458413
H        1.16657374       0.13146409      -1.45084036
H        1.57436801      -1.49456614      -0.86267135
H        0.03362313       0.34313614       1.64414833
H       -1.79919421      -1.02931486       0.42839384
H       -1.18499529      -0.34585381      -1.16180277
H       -1.63918471       1.27150076       1.17731945
H       -0.41368373       1.70233342      -0.04269069
12
Frame=16 idx=004310 GeodesicLength=0.8142999400810726 rxn_smarts="[C:1]([C:2]1([H:8])[C:3]([H:9])([H:10])[C:4]1([H:11])[H:12])([H:5])([H:6])[H:7]>>[C:1]([C:2][C:3]([C:4]([H:8])([H:11])[H:12])([H:9])[H:10])([H:5])([H:6])[H:7]"
C        1.42274196      -0.45080148      -0.56126166
C        0.32888469      -0.50555876       0.43685632
C       -1.05838498      -0.41417442      -0.08002670
C       -0.79054244       0.92006085       0.61072006
H        2.37501367      -0.10536693      -0.15616980
H        1.16981008       0.12480270      -1.45988814
H        1.57157557      -1.49902901      -0.85809018
H        0.01957762       0.32030684       1.66834839
H       -1.78802880      -1.03224570       0.43437443
H       -1.18708649      -0.34318649      -1.16035634
H       -1.65095009       1.27891055       1.16478445
H       -0.41261078       1.70628185      -0.03929082
