17
Frame=0 idx=007403 GeodesicLength=0.0 rxn_smarts="[C:1]([C@@:2]1([H:11])[O:3][C:4]([H:12])([H:13])[C:5]([H:14])([H:15])[C@:6]1([O:7][H:17])[H:16])([H:8])([H:9])[H:10]>>[C:1]([C@@:2]([O:3][C:4](=[C:5]([H:14])[H:15])[H:13])([C:6](=[O:7])[H:16])[H:11])([H:8])([H:9])[H:10].[H:12][H:17]"
C        2.10223120      -0.05326192      -0.42193679
C        0.89498670       0.18016483       0.43438722
O        0.15448977       1.34548987      -0.12929043
C       -1.10087146       1.15157335      -0.00025156
C       -1.43318024       0.00990550       0.81356593
C       -0.18383719      -0.95243427       0.40351013
O       -0.31510107      -1.53283353      -0.75679995
H        2.71930471       0.84266154      -0.49625738
H        1.78198425      -0.38287911      -1.40954453
H        2.69747698      -0.85190850       0.02324382
H        1.14679721       0.46730212       1.46005361
H       -1.71502335       0.15404225      -1.72834358
H       -1.75259351       1.89400428      -0.44518993
H       -1.26847919       0.25749477       1.86596362
H       -2.42727355      -0.39779714       0.65755745
H       -0.03040996      -1.63091744       1.26615581
H       -1.27050130      -0.50060668      -1.53682341
17
Frame=1 idx=007403 GeodesicLength=0.10912178801067926 rxn_smarts="[C:1]([C@@:2]1([H:11])[O:3][C:4]([H:12])([H:13])[C:5]([H:14])([H:15])[C@:6]1([O:7][H:17])[H:16])([H:8])([H:9])[H:10]>>[C:1]([C@@:2]([O:3][C:4](=[C:5]([H:14])[H:15])[H:13])([C:6](=[O:7])[H:16])[H:11])([H:8])([H:9])[H:10].[H:12][H:17]"
C        2.10540188      -0.05447662      -0.42058319
C        0.89053623       0.18090381       0.42556681
O        0.15077064       1.33585781      -0.14729032
C       -1.11142446       1.14834230      -0.00921249
C       -1.44426892       0.01872736       0.82052582
C       -0.17688629      -0.95977894       0.40236286
O       -0.32160647      -1.53779509      -0.75776092
H        2.72274067       0.84167323      -0.48898079
H        1.79424546      -0.38144914      -1.41202367
H        2.69692133      -0.85361072       0.02867946
H        1.13608279       0.47397248       1.45146646
H       -1.69966080       0.16281864      -1.72926609
H       -1.75928612       1.91342057      -0.41923144
H       -1.26903236       0.26034639       1.87187718
H       -2.44097816      -0.38608187       0.67404897
H       -0.01174262      -1.64145682       1.25957363
H       -1.26181282      -0.52141339      -1.54975229
17
Frame=2 idx=007403 GeodesicLength=0.21817503766698626 rxn_smarts="[C:1]([C@@:2]1([H:11])[O:3][C:4]([H:12])([H:13])[C:5]([H:14])([H:15])[C@:6]1([O:7][H:17])[H:16])([H:8])([H:9])[H:10]>>[C:1]([C@@:2]([O:3][C:4](=[C:5]([H:14])[H:15])[H:13])([C:6](=[O:7])[H:16])[H:11])([H:8])([H:9])[H:10].[H:12][H:17]"
C        2.10846076      -0.05546391      -0.41917836
C        0.88594322       0.18143855       0.41670200
O        0.14690864       1.32597688      -0.16515848
C       -1.12219145       1.14505252      -0.01848508
C       -1.45558981       0.02802237       0.82746610
C       -0.16983592      -0.96731905       0.40109210
O       -0.32825794      -1.54294239      -0.75864310
H        2.72580460       0.84106589      -0.48148881
H        1.80658164      -0.37972084      -1.41442681
H        2.69643700      -0.85497998       0.03405137
H        1.12512493       0.48038019       1.44280705
H       -1.68506290       0.17073529      -1.73009195
H       -1.76414184       1.93274302      -0.39273558
H       -1.26964384       0.26333097       1.87768069
H       -2.45491527      -0.37370313       0.69075080
H        0.00719005      -1.65218319       1.25264170
H       -1.25281187      -0.54243318      -1.56298362
17
Frame=3 idx=007403 GeodesicLength=0.32717439731800735 rxn_smarts="[C:1]([C@@:2]1([H:11])[O:3][C:4]([H:12])([H:13])[C:5]([H:14])([H:15])[C@:6]1([O:7][H:17])[H:16])([H:8])([H:9])[H:10]>>[C:1]([C@@:2]([O:3][C:4](=[C:5]([H:14])[H:15])[H:13])([C:6](=[O:7])[H:16])[H:11])([H:8])([H:9])[H:10].[H:12][H:17]"
C        2.11140433      -0.05621844      -0.41771802
C        0.88120297       0.18176571       0.40779695
O        0.14289387       1.31583009      -0.18291080
C       -1.13319369       1.14171326      -0.02805291
C       -1.46714965       0.03781475       0.83438842
C       -0.16267693      -0.97506421       0.39970374
O       -0.33506232      -1.54828458      -0.75942908
H        2.72848367       0.84084764      -0.47378247
H        1.81899271      -0.37768964      -1.41674475
H        2.69602943      -0.85600596       0.03936701
H        1.11391261       0.48652860       1.43407568
H       -1.67132407       0.17787614      -1.73082409
H       -1.76709209       1.95188850      -0.36571982
H       -1.27032478       0.26643061       1.88337428
H       -2.46908783      -0.36062279       0.70765662
H        0.02641765      -1.66310757       1.24534941
H       -1.24342589      -0.56370210      -1.57653013
17
Frame=4 idx=007403 GeodesicLength=0.43611730596793413 rxn_smarts="[C:1]([C@@:2]1([H:11])[O:3][C:4]([H:12])([H:13])[C:5]([H:14])([H:15])[C@:6]1([O:7][H:17])[H:16])([H:8])([H:9])[H:10]>>[C:1]([C@@:2]([O:3][C:4](=[C:5]([H:14])[H:15])[H:13])([C:6](=[O:7])[H:16])[H:11])([H:8])([H:9])[H:10].[H:12][H:17]"
C        2.11422632      -0.05673319      -0.41619949
C        0.87631071       0.18188099       0.39885785
O        0.13871579       1.30540018      -0.20055683
C       -1.14444756       1.13834362      -0.03788475
C       -1.47895496       0.04812793       0.84130050
C       -0.15540017      -0.98302248       0.39820418
O       -0.34203196      -1.55382651      -0.76010051
H        2.73076170       0.84102703      -0.46586417
H        1.83147337      -0.37534735      -1.41896986
H        2.69570186      -0.85667735       0.04462927
H        1.10243597       0.49241527       1.42527446
H       -1.65852338       0.18433035      -1.73145615
H       -1.76806675       1.97074967      -0.33824031
H       -1.27108626       0.26962069       1.88896392
H       -2.48350078      -0.34679855       0.72476269
H        0.04597039      -1.67424095       1.23768292
H       -1.23358431      -0.58524934      -1.59040373
17
Frame=5 idx=007403 GeodesicLength=0.5449971652111075 rxn_smarts="[C:1]([C@@:2]1([H:11])[O:3][C:4]([H:12])([H:13])[C:5]([H:14])([H:15])[C@:6]1([O:7][H:17])[H:16])([H:8])([H:9])[H:10]>>[C:1]([C@@:2]([O:3][C:4](=[C:5]([H:14])[H:15])[H:13])([C:6](=[O:7])[H:16])[H:11])([H:8])([H:9])[H:10].[H:12][H:17]"
C        2.11692109      -0.05700318      -0.41462003
C        0.87126380       0.18177768       0.38989430
O        0.13436844       1.29467369      -0.21809487
C       -1.15596603       1.13496733      -0.04793121
C       -1.49100688       0.05899045       0.84822122
C       -0.14799786      -0.99120327       0.39659890
O       -0.34918880      -1.55956220      -0.76064237
H        2.73262522       0.84161138      -0.45773389
H        1.84401560      -0.37268319      -1.42109494
H        2.69545914      -0.85698804       0.04983725
H        1.09069306       0.49803096       1.41641236
H       -1.64672518       0.19020044      -1.73197131
H       -1.76703446       1.98919436      -0.31042637
H       -1.27193262       0.27286987       1.89446658
H       -2.49815370      -0.33218364       0.74207600
H        0.06587814      -1.68560331       1.22961871
H       -1.22321897      -0.60708933      -1.60461035
17
Frame=6 idx=007403 GeodesicLength=0.6539091456231612 rxn_smarts="[C:1]([C@@:2]1([H:11])[O:3][C:4]([H:12])([H:13])[C:5]([H:14])([H:15])[C@:6]1([O:7][H:17])[H:16])([H:8])([H:9])[H:10]>>[C:1]([C@@:2]([O:3][C:4](=[C:5]([H:14])[H:15])[H:13])([C:6](=[O:7])[H:16])[H:11])([H:8])([H:9])[H:10].[H:12][H:17]"
C        2.11948412      -0.05702384      -0.41297636
C        0.86606312       0.18144682       0.38091831
O        0.12984775       1.28363333      -0.23552221
C       -1.16775170       1.13161975      -0.05812916
C       -1.50330709       0.07042588       0.85517157
C       -0.14045788      -0.99961526       0.39489499
O       -0.35655285      -1.56548823      -0.76103374
H        2.73405954       0.84260519      -0.44939266
H        1.85661201      -0.36968752      -1.42311169
H        2.69530668      -0.85693026       0.05499120
H        1.07868299       0.50336083       1.40750006
H       -1.63602180       0.19562260      -1.73234246
H       -1.76397344       2.00707618      -0.28243951
H       -1.27286978       0.27613935       1.89990122
H       -2.51304807      -0.31672748       0.75960139
H        0.08617568      -1.69720930       1.22113125
H       -1.21224930      -0.62924804      -1.61916220
17
Frame=7 idx=007403 GeodesicLength=0.7628120811031569 rxn_smarts="[C:1]([C@@:2]1([H:11])[O:3][C:4]([H:12])([H:13])[C:5]([H:14])([H:15])[C@:6]1([O:7][H:17])[H:16])([H:8])([H:9])[H:10]>>[C:1]([C@@:2]([O:3][C:4](=[C:5]([H:14])[H:15])[H:13])([C:6](=[O:7])[H:16])[H:11])([H:8])([H:9])[H:10].[H:12][H:17]"
C        2.12190762      -0.05679127      -0.41126804
C        0.86071033       0.18087709       0.37194772
O        0.12515583       1.27227390      -0.25281038
C       -1.17980393       1.12834424      -0.06839872
C       -1.51585032       0.08247307       0.86218833
C       -0.13277197      -1.00826748       0.39309658
O       -0.36416298      -1.57158060      -0.76126358
H        2.73505216       0.84401149      -0.44083709
H        1.86924459      -0.36633731      -1.42501709
H        2.69524639      -0.85650621       0.06007728
H        1.06641621       0.50837410       1.39855908
H       -1.62645324       0.20070273      -1.73253660
H       -1.75891199       2.02420581      -0.25452094
H       -1.27389344       0.27938965       1.90530209
H       -2.52817974      -0.30036383       0.77735976
H        0.10689284      -1.70908946       1.21218387
H       -1.20059836      -0.65171591      -1.63406228
17
Frame=8 idx=007403 GeodesicLength=0.8716804569909352 rxn_smarts="[C:1]([C@@:2]1([H:11])[O:3][C:4]([H:12])([H:13])[C:5]([H:14])([H:15])[C@:6]1([O:7][H:17])[H:16])([H:8])([H:9])[H:10]>>[C:1]([C@@:2]([O:3][C:4](=[C:5]([H:14])[H:15])[H:13])([C:6](=[O:7])[H:16])[H:11])([H:8])([H:9])[H:10].[H:12][H:17]"
C        2.12418778      -0.05630678      -0.40949199
C        0.85521478       0.18005192       0.36300219
O        0.12030076       1.26058997      -0.26993153
C       -1.19210833       1.12517988      -0.07865466
C       -1.52863385       0.09515809       0.86931844
C       -0.12492413      -1.01716950       0.39120448
O       -0.37205488      -1.57782280      -0.76131314
H        2.73559117       0.84582407      -0.43205987
H        1.88189743      -0.36261473      -1.42680553
H        2.69528324      -0.85571773       0.06508419
H        1.05390704       0.51303185       1.38961662
H       -1.61807707       0.20554786      -1.73249112
H       -1.75192484       2.04045409      -0.22695580
H       -1.27499671       0.28257329       1.91070266
H       -2.54355146      -0.28303809       0.79538224
H        0.12806647      -1.72126420       1.20272266
H       -1.18817742      -0.67447718      -1.64932984
17
Frame=9 idx=007403 GeodesicLength=0.980655396028419 rxn_smarts="[C:1]([C@@:2]1([H:11])[O:3][C:4]([H:12])([H:13])[C:5]([H:14])([H:15])[C@:6]1([O:7][H:17])[H:16])([H:8])([H:9])[H:10]>>[C:1]([C@@:2]([O:3][C:4](=[C:5]([H:14])[H:15])[H:13])([C:6](=[O:7])[H:16])[H:11])([H:8])([H:9])[H:10].[H:12][H:17]"
C        2.12633734      -0.05558190      -0.40763634
C        0.84958320       0.17894894       0.35409375
O        0.11531333       1.24857912      -0.28685630
C       -1.20461503       1.12216974      -0.08882073
C       -1.54160511       0.10856908       0.87660793
C       -0.11690324      -1.02635514       0.38920591
O       -0.38029804      -1.58415283      -0.76119258
H        2.73569598       0.84803026      -0.42303666
H        1.89458252      -0.35850822      -1.42846458
H        2.69543802      -0.85459084       0.07001992
H        1.04117680       0.51728161       1.38069663
H       -1.61093314       0.21029768      -1.73220803
H       -1.74334692       2.05567873      -0.19999185
H       -1.27615716       0.28566434       1.91613485
H       -2.55908880      -0.26463040       0.81369902
H        0.14972427      -1.73381248       1.19268392
H       -1.17490403      -0.69758769      -1.66493487
17
Frame=10 idx=007403 GeodesicLength=1.0896648670309137 rxn_smarts="[C:1]([C@@:2]1([H:11])[O:3][C:4]([H:12])([H:13])[C:5]([H:14])([H:15])[C@:6]1([O:7][H:17])[H:16])([H:8])([H:9])[H:10]>>[C:1]([C@@:2]([O:3][C:4](=[C:5]([H:14])[H:15])[H:13])([C:6](=[O:7])[H:16])[H:11])([H:8])([H:9])[H:10].[H:12][H:17]"
C        2.12833705      -0.05461053      -0.40570950
C        0.84382362       0.17755400       0.34525074
O        0.11017839       1.23623201      -0.30354565
C       -1.21733032       1.11933107      -0.09880460
C       -1.55478924       0.12268519       0.88411045
C       -0.10869254      -1.03582261       0.38711560
O       -0.38891040      -1.59058925      -0.76085063
H        2.73532883       0.85063204      -0.41377985
H        1.90725300      -0.35399251      -1.42999764
H        2.69570451      -0.85311386       0.07484963
H        1.02823662       0.52108951       1.37182802
H       -1.60508038       0.21506030      -1.73158896
H       -1.73309235       2.06982348      -0.17394985
H       -1.27738585       0.28859378       1.92163564
H       -2.57483952      -0.24513174       0.83234840
H        0.17190229      -1.74672239       1.18202393
H       -1.16064371      -0.72101850      -1.68093573
17
Frame=11 idx=007403 GeodesicLength=1.1987444248374342 rxn_smarts="[C:1]([C@@:2]1([H:11])[O:3][C:4]([H:12])([H:13])[C:5]([H:14])([H:15])[C@:6]1([O:7][H:17])[H:16])([H:8])([H:9])[H:10]>>[C:1]([C@@:2]([O:3][C:4](=[C:5]([H:14])[H:15])[H:13])([C:6](=[O:7])[H:16])[H:11])([H:8])([H:9])[H:10].[H:12][H:17]"
C        2.13018464      -0.05339737      -0.40371248
C        0.83794179       0.17584783       0.33649494
O        0.10490517       1.22354561      -0.31995573
C       -1.23022681       1.11668504      -0.10852490
C       -1.56815863       0.13755339       0.89187692
C       -0.10028229      -1.04559437       0.38493466
O       -0.39794671      -1.59709787      -0.76027005
H        2.73448725       0.85362329      -0.40428526
H        1.91989002      -0.34904711      -1.43140427
H        2.69609280      -0.85130544       0.07955443
H        1.01510805       0.52440855       1.36303978
H       -1.60054002       0.21996360      -1.73060526
H       -1.72136227       2.08280859      -0.14910538
H       -1.27867169       0.29132075       1.92724396
H       -2.59077291      -0.22446170       0.85136507
H        0.19462202      -1.76004785       1.17069106
H       -1.14527042      -0.74480492      -1.69733749
17
Frame=12 idx=007403 GeodesicLength=1.3079070357791531 rxn_smarts="[C:1]([C@@:2]1([H:11])[O:3][C:4]([H:12])([H:13])[C:5]([H:14])([H:15])[C@:6]1([O:7][H:17])[H:16])([H:8])([H:9])[H:10]>>[C:1]([C@@:2]([O:3][C:4](=[C:5]([H:14])[H:15])[H:13])([C:6](=[O:7])[H:16])[H:11])([H:8])([H:9])[H:10].[H:12][H:17]"
C        2.13187800      -0.05194994      -0.40164478
C        0.83194570       0.17380808       0.32784719
O        0.09950141       1.21051262      -0.33605215
C       -1.24327669       1.11424266      -0.11791467
C       -1.58169569       0.15321125       0.89995884
C       -0.09165609      -1.05569351       0.38266148
O       -0.40745556      -1.60366041      -0.75942418
H        2.73316275       0.85699268      -0.39454769
H        1.93247457      -0.34365583      -1.43268217
H        2.69661209      -0.84917635       0.08411861
H        1.00180799       0.52719049       1.35436042
H       -1.59734544       0.22511381      -1.72921929
H       -1.70834571       2.09463691      -0.12569709
H       -1.28000940       0.29380280       1.93298711
H       -2.60687108      -0.20255216       0.87078615
H        0.21791520      -1.77382880       1.15861759
H       -1.12864205      -0.76899429      -1.71415538
17
Frame=13 idx=007403 GeodesicLength=1.4170992416387351 rxn_smarts="[C:1]([C@@:2]1([H:11])[O:3][C:4]([H:12])([H:13])[C:5]([H:14])([H:15])[C@:6]1([O:7][H:17])[H:16])([H:8])([H:9])[H:10]>>[C:1]([C@@:2]([O:3][C:4](=[C:5]([H:14])[H:15])[H:13])([C:6](=[O:7])[H:16])[H:11])([H:8])([H:9])[H:10].[H:12][H:17]"
C        2.13341272      -0.05027495      -0.39950596
C        0.82583888       0.17141224       0.31932470
O        0.09397249       1.19712820      -0.35180192
C       -1.25645636       1.11200887      -0.12692156
C       -1.59537592       0.16971222       0.90841185
C       -0.08280136      -1.06614572       0.38028560
O       -0.41749595      -1.61024829      -0.75829083
H        2.73134574       0.86073046      -0.38455994
H        1.94498707      -0.33780155      -1.43383035
H        2.69726986      -0.84673958       0.08852829
H        0.98834966       0.52938512       1.34581813
H       -1.59550182       0.23057072      -1.72741360
H       -1.69424736       2.10534862      -0.10391303
H       -1.28139172       0.29600634       1.93888929
H       -2.62310577      -0.17933290       0.89065401
H        0.24180402      -1.78811291       1.14572308
H       -1.11060418      -0.79364689      -1.73139776
17
Frame=14 idx=007403 GeodesicLength=1.526313967058636 rxn_smarts="[C:1]([C@@:2]1([H:11])[O:3][C:4]([H:12])([H:13])[C:5]([H:14])([H:15])[C@:6]1([O:7][H:17])[H:16])([H:8])([H:9])[H:10]>>[C:1]([C@@:2]([O:3][C:4](=[C:5]([H:14])[H:15])[H:13])([C:6](=[O:7])[H:16])[H:11])([H:8])([H:9])[H:10].[H:12][H:17]"
C        2.13478166      -0.04837777      -0.39729737
C        0.81962295       0.16863912       0.31094124
O        0.08831753       1.18338242      -0.36718441
C       -1.26974517       1.10999101      -0.13550227
C       -1.60918290       0.18710469       0.91727852
C       -0.07370209      -1.07697528       0.37779614
O       -0.42812323      -1.61684589      -0.75683907
H        2.72901967       0.86482619      -0.37431954
H        1.95740711      -0.33147064      -1.43484765
H        2.69807067      -0.84399954       0.09277149
H        0.97473900       0.53094670       1.33743610
H       -1.59504677       0.23640066      -1.72517748
H       -1.67922836       2.11499659      -0.08386661
H       -1.28282018       0.29790062       1.94496576
H       -2.63946032      -0.15472305       0.91100233
H        0.26631312      -1.80293553       1.13193238
H       -1.09096268      -0.81886029      -1.74908958
17
Frame=15 idx=007403 GeodesicLength=1.6354966448175505 rxn_smarts="[C:1]([C@@:2]1([H:11])[O:3][C:4]([H:12])([H:13])[C:5]([H:14])([H:15])[C@:6]1([O:7][H:17])[H:16])([H:8])([H:9])[H:10]>>[C:1]([C@@:2]([O:3][C:4](=[C:5]([H:14])[H:15])[H:13])([C:6](=[O:7])[H:16])[H:11])([H:8])([H:9])[H:10].[H:12][H:17]"
C        2.13597569      -0.04626279      -0.39501999
C        0.81329405       0.16546637       0.30270709
O        0.08252981       1.16926201      -0.38218362
C       -1.28312902       1.10818547      -0.14362518
C       -1.62309154       0.20544881       0.92660688
C       -0.06434740      -1.08821093       0.37517361
O       -0.43940231      -1.62342738      -0.75504037
H        2.72616443       0.86927351      -0.36382337
H        1.96971496      -0.32464987      -1.43573251
H        2.69901906      -0.84095866       0.09684057
H        0.96097652       0.53182957       1.32923462
H       -1.59598010       0.24264682      -1.72251328
H       -1.66346291       2.12368179      -0.06563575
H       -1.28430047       0.29945364       1.95122497
H       -2.65590372      -0.12863718       0.93187460
H        0.29146030      -1.81834172       1.11714551
H       -1.06951734      -0.84475946      -1.76723377
17
Frame=16 idx=007403 GeodesicLength=1.7445609223512042 rxn_smarts="[C:1]([C@@:2]1([H:11])[O:3][C:4]([H:12])([H:13])[C:5]([H:14])([H:15])[C@:6]1([O:7][H:17])[H:16])([H:8])([H:9])[H:10]>>[C:1]([C@@:2]([O:3][C:4](=[C:5]([H:14])[H:15])[H:13])([C:6](=[O:7])[H:16])[H:11])([H:8])([H:9])[H:10].[H:12][H:17]"
C        2.13698212      -0.04393057      -0.39267451
C        0.80684441       0.16187254       0.29463032
O        0.07659778       1.15475403      -0.39678834
C       -1.29660061       1.10659150      -0.15126611
C       -1.63707825       0.22481514       0.93643974
C       -0.05472715      -1.09988111       0.37239198
O       -0.45140040      -1.62996513      -0.75286869
H        2.72275442       0.87406906      -0.35306582
H        1.98188868      -0.31732098      -1.43648427
H        2.70011571      -0.83761461       0.10072729
H        0.94705552       0.53198674       1.32123292
H       -1.59830450       0.24932944      -1.71943428
H       -1.64708514       2.13151059      -0.04925104
H       -1.28584304       0.30063767       1.95766875
H       -2.67240614      -0.10098727       0.95331023
H        0.31726101      -1.83437423       1.10125328
H       -1.04605442      -0.87149283      -1.78582145
