16
Frame=0 idx=002895 GeodesicLength=0.0 rxn_smarts="[C:1]([C@@:2]1([H:10])[C:3]([H:11])([H:12])[C@@:4]2([H:13])[C:5]([H:14])([H:15])[C@@:6]12[H:16])([H:7])([H:8])[H:9]>>[C:1]([C:2]([C:3]([C@@:4]1([H:13])[C:5]([H:14])([H:15])[C:6]1)([H:11])[H:12])([H:10])[H:16])([H:7])([H:8])[H:9]"
C       -1.02077389      -0.75460201       1.35225593
C       -0.63324715       0.47311132       0.57848679
C        0.84806431       0.82594501       0.42428583
C        0.97598109       0.61729675      -1.05867742
C        0.55930923      -0.74491851      -1.49449291
C       -0.46220065       0.34460661      -1.50186176
H       -0.74013474      -0.62300336       2.40237215
H       -2.09518741      -0.93919264       1.31157042
H       -0.50375570      -1.64460500       0.99121082
H       -1.24057471       1.33896275       0.84642994
H        1.02372176       1.86371830       0.70879849
H        1.50682175       0.19884066       1.03389721
H        1.64614650       1.21237819      -1.66771492
H        0.55794268      -1.57731259      -0.80044357
H        0.83954884      -1.02741447      -2.50379857
H       -1.26166195       0.43618901      -0.62231837
16
Frame=1 idx=002895 GeodesicLength=0.06115122387473964 rxn_smarts="[C:1]([C@@:2]1([H:10])[C:3]([H:11])([H:12])[C@@:4]2([H:13])[C:5]([H:14])([H:15])[C@@:6]12[H:16])([H:7])([H:8])[H:9]>>[C:1]([C:2]([C:3]([C@@:4]1([H:13])[C:5]([H:14])([H:15])[C:6]1)([H:11])[H:12])([H:10])[H:16])([H:7])([H:8])[H:9]"
C       -1.01847516      -0.75517227       1.35457587
C       -0.63734813       0.47246272       0.57506624
C        0.84471227       0.82830272       0.42566163
C        0.98204032       0.61203554      -1.05638231
C        0.56171449      -0.74623156      -1.50027660
C       -0.45376151       0.34781214      -1.50339242
H       -0.73547694      -0.62219355       2.40377017
H       -2.09250315      -0.94323222       1.31838572
H       -0.50062930      -1.64479268       0.99362130
H       -1.23882885       1.33813876       0.85707234
H        1.01744502       1.86844932       0.70351005
H        1.50460584       0.20636453       1.03899563
H        1.65605847       1.20505122      -1.66324517
H        0.54404786      -1.58270616      -0.81141551
H        0.84686286      -1.02775466      -2.50841312
H       -1.28046411       0.44346615      -0.62753381
16
Frame=2 idx=002895 GeodesicLength=0.12228819219819816 rxn_smarts="[C:1]([C@@:2]1([H:10])[C:3]([H:11])([H:12])[C@@:4]2([H:13])[C:5]([H:14])([H:15])[C@@:6]12[H:16])([H:7])([H:8])[H:9]>>[C:1]([C:2]([C:3]([C@@:4]1([H:13])[C:5]([H:14])([H:15])[C:6]1)([H:11])[H:12])([H:10])[H:16])([H:7])([H:8])[H:9]"
C       -1.01611873      -0.75573439       1.35684343
C       -0.64147625       0.47186385       0.57165754
C        0.84134790       0.83070112       0.42703867
C        0.98811165       0.60663809      -1.05397598
C        0.56413898      -0.74759415      -1.50601722
C       -0.44530677       0.35092165      -1.50478073
H       -0.73082613      -0.62139379       2.40512700
H       -2.08971891      -0.94732011       1.32506507
H       -0.49738098      -1.64493004       0.99596938
H       -1.23701067       1.33718646       0.86772014
H        1.01116520       1.87320006       0.69808300
H        1.50234499       0.21404296       1.04417572
H        1.66593416       1.19760512      -1.65866483
H        0.52996750      -1.58798189      -0.82259267
H        0.85418434      -1.02815352      -2.51295891
H       -1.29935629       0.45094857      -0.63268960
16
Frame=3 idx=002895 GeodesicLength=0.1834121264282727 rxn_smarts="[C:1]([C@@:2]1([H:10])[C:3]([H:11])([H:12])[C@@:4]2([H:13])[C:5]([H:14])([H:15])[C@@:6]12[H:16])([H:7])([H:8])[H:9]>>[C:1]([C:2]([C:3]([C@@:4]1([H:13])[C:5]([H:14])([H:15])[C:6]1)([H:11])[H:12])([H:10])[H:16])([H:7])([H:8])[H:9]"
C       -1.01370294      -0.75628986       1.35905672
C       -0.64563128       0.47131584       0.56826233
C        0.83797035       0.83314218       0.42841529
C        0.99419275       0.60110264      -1.05145593
C        0.56657991      -0.74900715      -1.51171121
C       -0.43683324       0.35393781      -1.50603528
H       -0.72617548      -0.62061026       2.40644060
H       -2.08683382      -0.95145588       1.33161241
H       -0.49401242      -1.64501782       0.99824752
H       -1.23512115       1.33610574       0.87836860
H        1.00488210       1.87797034       0.69251356
H        1.50003803       0.22188073       1.04943492
H        1.67577877       1.19003295      -1.65396941
H        0.51570312      -1.59313024      -0.83397652
H        0.86151922      -1.02861596      -2.51742889
H       -1.31835394       0.45863894      -0.63777472
16
Frame=4 idx=002895 GeodesicLength=0.24452355965117784 rxn_smarts="[C:1]([C@@:2]1([H:10])[C:3]([H:11])([H:12])[C@@:4]2([H:13])[C:5]([H:14])([H:15])[C@@:6]12[H:16])([H:7])([H:8])[H:9]>>[C:1]([C:2]([C:3]([C@@:4]1([H:13])[C:5]([H:14])([H:15])[C:6]1)([H:11])[H:12])([H:10])[H:16])([H:7])([H:8])[H:9]"
C       -1.01122602      -0.75683999       1.36121388
C       -0.64981324       0.47081952       0.56488162
C        0.83457859       0.83562791       0.42978967
C        1.00028133       0.59542725      -1.04881945
C        0.56903491      -0.75047115      -1.51735533
C       -0.42833723       0.35686369      -1.50716439
H       -0.72151812      -0.61984875       2.40770876
H       -2.08384670      -0.95563945       1.33803147
H       -0.49052501      -1.64505680       1.00044840
H       -1.23316110       1.33489636       0.88901342
H        0.99859491       1.88276025       0.68679740
H        1.49768346       0.22988294       1.05477073
H        1.68559805       1.18232676      -1.64915357
H        0.50125627      -1.59814202      -0.84556878
H        0.86887306      -1.02914684      -2.52181642
H       -1.33747316       0.46654031      -0.64277739
16
Frame=5 idx=002895 GeodesicLength=0.30562002117767634 rxn_smarts="[C:1]([C@@:2]1([H:10])[C:3]([H:11])([H:12])[C@@:4]2([H:13])[C:5]([H:14])([H:15])[C@@:6]12[H:16])([H:7])([H:8])[H:9]>>[C:1]([C:2]([C:3]([C@@:4]1([H:13])[C:5]([H:14])([H:15])[C:6]1)([H:11])[H:12])([H:10])[H:16])([H:7])([H:8])[H:9]"
C       -1.00868662      -0.75738620       1.36331274
C       -0.65402163       0.47037557       0.56151645
C        0.83117217       0.83815995       0.43116029
C        1.00637511       0.58961052      -1.04606431
C        0.57150171      -0.75198673      -1.52294663
C       -0.41981596       0.35970272      -1.50817590
H       -0.71684764      -0.61911502       2.40892895
H       -2.08075709      -0.95987007       1.34432570
H       -0.48692110      -1.64504810       1.00256446
H       -1.23113175       1.33355914       0.89964961
H        0.99230404       1.88756853       0.68093132
H        1.49528012       0.23805348       1.06018018
H        1.69539703       1.17448060      -1.64421359
H        0.48663259      -1.60300772      -0.85736832
H        0.87625026      -1.02975164      -2.52611491
H       -1.35673123       0.47465497      -0.64768604
16
Frame=6 idx=002895 GeodesicLength=0.3667059478298799 rxn_smarts="[C:1]([C@@:2]1([H:10])[C:3]([H:11])([H:12])[C@@:4]2([H:13])[C:5]([H:14])([H:15])[C@@:6]12[H:16])([H:7])([H:8])[H:9]>>[C:1]([C:2]([C:3]([C@@:4]1([H:13])[C:5]([H:14])([H:15])[C:6]1)([H:11])[H:12])([H:10])[H:16])([H:7])([H:8])[H:9]"
C       -1.00608286      -0.75792966       1.36535121
C       -0.65825654       0.46998470       0.55816688
C        0.82775015       0.84074011       0.43252501
C        1.01247248       0.58365011      -1.04318756
C        0.57397845      -0.75355450      -1.52848214
C       -0.41126488       0.36245754      -1.50907740
H       -0.71215704      -0.61841400       2.41009868
H       -2.07756352      -0.96414755       1.35049862
H       -0.48320208      -1.64499235       1.00458845
H       -1.22903362       1.33209349       0.91027212
H        0.98600842       1.89239540       0.67491057
H        1.49282623       0.24639768       1.06566068
H        1.70518185       1.16648546      -1.63914289
H        0.47183385      -1.60771755      -0.86937816
H        0.88365693      -1.03043494      -2.53031793
H       -1.37614780       0.48298605      -0.65248614
16
Frame=7 idx=002895 GeodesicLength=0.4277789881325456 rxn_smarts="[C:1]([C@@:2]1([H:10])[C:3]([H:11])([H:12])[C@@:4]2([H:13])[C:5]([H:14])([H:15])[C@@:6]12[H:16])([H:7])([H:8])[H:9]>>[C:1]([C:2]([C:3]([C@@:4]1([H:13])[C:5]([H:14])([H:15])[C:6]1)([H:11])[H:12])([H:10])[H:16])([H:7])([H:8])[H:9]"
C       -1.00341340      -0.75847169       1.36732667
C       -0.66251753       0.46964734       0.55483311
C        0.82431211       0.84336998       0.43388189
C        1.01857148       0.57754449      -1.04018697
C        0.57646260      -0.75517517      -1.53395876
C       -0.40268061       0.36513128      -1.50987592
H       -0.70744020      -0.61775075       2.41121495
H       -2.07426522      -0.96847121       1.35655288
H       -0.47937022      -1.64489064       1.00651288
H       -1.22686746       1.33050067       0.92087665
H        0.97970829       1.89723992       0.66873147
H        1.49032043       0.25491922       1.07120891
H        1.71495768       1.15833440      -1.63393668
H        0.45686769      -1.61226186      -0.88159799
H        0.89109720      -1.03120213      -2.53441842
H       -1.39574285       0.49153616      -0.65716468
16
Frame=8 idx=002895 GeodesicLength=0.4888435363432051 rxn_smarts="[C:1]([C@@:2]1([H:10])[C:3]([H:11])([H:12])[C@@:4]2([H:13])[C:5]([H:14])([H:15])[C@@:6]12[H:16])([H:7])([H:8])[H:9]>>[C:1]([C:2]([C:3]([C@@:4]1([H:13])[C:5]([H:14])([H:15])[C:6]1)([H:11])[H:12])([H:10])[H:16])([H:7])([H:8])[H:9]"
C       -1.00067664      -0.75901318       1.36923677
C       -0.66680481       0.46936403       0.55151446
C        0.82085725       0.84605119       0.43522860
C        1.02467056       0.57129135      -1.03705964
C        0.57895267      -0.75684940      -1.53937414
C       -0.39405830       0.36772653      -1.51057868
H       -0.70269059      -0.61712941       2.41227484
H       -2.07086075      -0.97284107       1.36249143
H       -0.47542699      -1.64474360       1.00833084
H       -1.22463350       1.32878037       0.93145735
H        0.97340315       1.90210106       0.66238948
H        1.48776076       0.26362279       1.07682182
H        1.72473059       1.15001895      -1.62858829
H        0.44173834      -1.61663006      -0.89402995
H        0.89857703      -1.03205832      -2.53841020
H       -1.41553878       0.50030878      -0.66170470
16
Frame=9 idx=002895 GeodesicLength=0.5498913550416993 rxn_smarts="[C:1]([C@@:2]1([H:10])[C:3]([H:11])([H:12])[C@@:4]2([H:13])[C:5]([H:14])([H:15])[C@@:6]12[H:16])([H:7])([H:8])[H:9]>>[C:1]([C:2]([C:3]([C@@:4]1([H:13])[C:5]([H:14])([H:15])[C:6]1)([H:11])[H:12])([H:10])[H:16])([H:7])([H:8])[H:9]"
C       -0.99787117      -0.75955528       1.37107944
C       -0.67111754       0.46913433       0.54821038
C        0.81738543       0.84878476       0.43656338
C        1.03076792       0.56488954      -1.03380333
C        0.58144862      -0.75857793      -1.54472566
C       -0.38539430       0.37024618      -1.51119186
H       -0.69790273      -0.61655353       2.41327580
H       -2.06734929      -0.97725640       1.36831682
H       -0.47137438      -1.64455237       1.01003621
H       -1.22233449       1.32693408       0.94200754
H        0.96709357       1.90697699       0.65588174
H        1.48514588       0.27251118       1.08249561
H        1.73450604       1.14153433      -1.62309398
H        0.42645130      -1.62081355      -0.90667494
H        0.90610082      -1.03300876      -2.54228675
H       -1.43555567       0.50930642      -0.66609040
16
Frame=10 idx=002895 GeodesicLength=0.6109330177418048 rxn_smarts="[C:1]([C@@:2]1([H:10])[C:3]([H:11])([H:12])[C@@:4]2([H:13])[C:5]([H:14])([H:15])[C@@:6]12[H:16])([H:7])([H:8])[H:9]>>[C:1]([C:2]([C:3]([C@@:4]1([H:13])[C:5]([H:14])([H:15])[C:6]1)([H:11])[H:12])([H:10])[H:16])([H:7])([H:8])[H:9]"
C       -0.99499583      -0.76009853       1.37285141
C       -0.67545605       0.46895883       0.54491888
C        0.81389614       0.85157196       0.43788326
C        1.03686266       0.55833666      -1.03041541
C        0.58394916      -0.76036065      -1.55001195
C       -0.37668314       0.37269349      -1.51172262
H       -0.69307053      -0.61602636       2.41421394
H       -2.06372972      -0.98171640       1.37403118
H       -0.46721430      -1.64431745       1.01162181
H       -1.21996929       1.32496198       0.95252240
H        0.96077914       1.91186614       0.64920333
H        1.48247348       0.28158861       1.08822648
H        1.74429048       1.13287056      -1.61744562
H        0.41101572      -1.62480240      -0.91953253
H        0.91367410      -1.03405798      -2.54604310
H       -1.45582199       0.51853152      -0.67030148
16
Frame=11 idx=002895 GeodesicLength=0.6719680310263894 rxn_smarts="[C:1]([C@@:2]1([H:10])[C:3]([H:11])([H:12])[C@@:4]2([H:13])[C:5]([H:14])([H:15])[C@@:6]12[H:16])([H:7])([H:8])[H:9]>>[C:1]([C:2]([C:3]([C@@:4]1([H:13])[C:5]([H:14])([H:15])[C:6]1)([H:11])[H:12])([H:10])[H:16])([H:7])([H:8])[H:9]"
C       -0.99204942      -0.76064370       1.37455035
C       -0.67981988       0.46883674       0.54163819
C        0.81038919       0.85441336       0.43918572
C        1.04295354       0.55163005      -1.02689327
C        0.58645336      -0.76219929      -1.55523037
C       -0.36791972       0.37506999      -1.51217716
H       -0.68818859      -0.61555043       2.41508626
H       -2.06000120      -0.98622039       1.37963686
H       -0.46294898      -1.64403993       1.01308188
H       -1.21753996       1.32286554       0.96299520
H        0.95446020       1.91676619       0.64235036
H        1.47974175       0.29085817       1.09401053
H        1.75408970       1.12402022      -1.61163753
H        0.39544116      -1.62858291      -0.93260715
H        0.92130231      -1.03521173      -2.54967245
H       -1.47636343       0.52798812      -0.67431741
16
Frame=12 idx=002895 GeodesicLength=0.7330004624409697 rxn_smarts="[C:1]([C@@:2]1([H:10])[C:3]([H:11])([H:12])[C@@:4]2([H:13])[C:5]([H:14])([H:15])[C@@:6]12[H:16])([H:7])([H:8])[H:9]>>[C:1]([C:2]([C:3]([C@@:4]1([H:13])[C:5]([H:14])([H:15])[C:6]1)([H:11])[H:12])([H:10])[H:16])([H:7])([H:8])[H:9]"
C       -0.98903114      -0.76119089       1.37617270
C       -0.68420951       0.46876856       0.53836538
C        0.80686399       0.85730999       0.44046762
C        1.04903944       0.54476805      -1.02323452
C        0.58896168      -0.76409353      -1.56038011
C       -0.35909854       0.37737856      -1.51256233
H       -0.68325130      -0.61512805       2.41588844
H       -2.05616285      -0.99076714       1.38513569
H       -0.45858094      -1.64372010       1.01440939
H       -1.21504545       1.32064489       0.97341972
H        0.94813727       1.92167479       0.63531837
H        1.47694811       0.30032270       1.09984332
H        1.76390970       1.11497513      -1.60566227
H        0.37973764      -1.63214685      -0.94589764
H        0.92899161      -1.03647464      -2.55316984
H       -1.49720972       0.53767852      -0.67811392
16
Frame=13 idx=002895 GeodesicLength=0.7940267171865233 rxn_smarts="[C:1]([C@@:2]1([H:10])[C:3]([H:11])([H:12])[C@@:4]2([H:13])[C:5]([H:14])([H:15])[C@@:6]12[H:16])([H:7])([H:8])[H:9]>>[C:1]([C:2]([C:3]([C@@:4]1([H:13])[C:5]([H:14])([H:15])[C:6]1)([H:11])[H:12])([H:10])[H:16])([H:7])([H:8])[H:9]"
C       -0.98594033      -0.76174045       1.37771561
C       -0.68862461       0.46875360       0.53509766
C        0.80332055       0.86026190       0.44172623
C        1.05511933       0.53774911      -1.01943717
C        0.59147535      -0.76604424      -1.56545970
C       -0.35021435       0.37962138      -1.51288430
H       -0.67825396      -0.61476083       2.41661687
H       -2.05221424      -0.99535521       1.39052945
H       -0.45411308      -1.64335880       1.01559867
H       -1.21248697       1.31830140       0.98378907
H        0.94181123       1.92658884       0.62810440
H        1.47409054       0.30998450       1.10571971
H        1.77375659       1.10572960      -1.59951449
H        0.36391617      -1.63548407      -0.95940495
H        0.93674740      -1.03785247      -2.55652985
H       -1.51838963       0.54760575      -0.68166721
16
Frame=14 idx=002895 GeodesicLength=0.8550478662592138 rxn_smarts="[C:1]([C@@:2]1([H:10])[C:3]([H:11])([H:12])[C@@:4]2([H:13])[C:5]([H:14])([H:15])[C@@:6]12[H:16])([H:7])([H:8])[H:9]>>[C:1]([C:2]([C:3]([C@@:4]1([H:13])[C:5]([H:14])([H:15])[C:6]1)([H:11])[H:12])([H:10])[H:16])([H:7])([H:8])[H:9]"
C       -0.98277614      -0.76229225       1.37917588
C       -0.69306510       0.46879148       0.53183148
C        0.79975870       0.86326962       0.44295809
C        1.06119231       0.53057082      -1.01549862
C        0.59399538      -0.76805195      -1.57046817
C       -0.34126093       0.38179972      -1.51314916
H       -0.67319173      -0.61444954       2.41726753
H       -2.04815450      -0.99998341       1.39581940
H       -0.44954733      -1.64295646       1.01664421
H       -1.20986522       1.31583622       0.99409531
H        0.93548277       1.93150510       0.62070381
H        1.47116665       0.31984556       1.11163493
H        1.78363622       1.09627518      -1.59318626
H        0.34798757      -1.63858395      -0.97313176
H        0.94457684      -1.03934956      -2.55974714
H       -1.53993550       0.55777342      -0.68494953
16
Frame=15 idx=002895 GeodesicLength=0.9160635036236249 rxn_smarts="[C:1]([C@@:2]1([H:10])[C:3]([H:11])([H:12])[C@@:4]2([H:13])[C:5]([H:14])([H:15])[C@@:6]12[H:16])([H:7])([H:8])[H:9]>>[C:1]([C:2]([C:3]([C@@:4]1([H:13])[C:5]([H:14])([H:15])[C:6]1)([H:11])[H:12])([H:10])[H:16])([H:7])([H:8])[H:9]"
C       -0.97953850      -0.76284604       1.38054983
C       -0.69753101       0.46888155       0.52856247
C        0.79617844       0.86633284       0.44415966
C        1.06725768       0.52323157      -1.01141702
C        0.59652372      -0.77011710      -1.57540520
C       -0.33223215       0.38391521      -1.51336351
H       -0.66806048      -0.61419462       2.41783587
H       -2.04398348      -1.00464980       1.40100655
H       -0.44488706      -1.64251365       1.01754038
H       -1.20718022       1.31325085       1.00433089
H        0.92915327       1.93641976       0.61311296
H        1.46817395       0.32990700       1.11758325
H        1.79355454       1.08660552      -1.58667108
H        0.33196620      -1.64143675      -0.98707784
H        0.95248678      -1.04097126      -2.56281691
H       -1.56188168       0.56818492      -0.68793029
16
Frame=16 idx=002895 GeodesicLength=0.9770712362476323 rxn_smarts="[C:1]([C@@:2]1([H:10])[C:3]([H:11])([H:12])[C@@:4]2([H:13])[C:5]([H:14])([H:15])[C@@:6]12[H:16])([H:7])([H:8])[H:9]>>[C:1]([C:2]([C:3]([C@@:4]1([H:13])[C:5]([H:14])([H:15])[C:6]1)([H:11])[H:12])([H:10])[H:16])([H:7])([H:8])[H:9]"
C       -0.97622707      -0.76340128       1.38183403
C       -0.70202234       0.46902311       0.52528594
C        0.79257977       0.86945135       0.44532720
C        1.07331474       0.51572938      -1.00719010
C        0.59906361      -0.77224041      -1.58027036
C       -0.32312117       0.38596871      -1.51353360
H       -0.66285600      -0.61399573       2.41831752
H       -2.03970081      -1.00935246       1.40609207
H       -0.44013503      -1.64203066       1.01828205
H       -1.20443287       1.31054646       1.01448662
H        0.92282396       1.94132898       0.60532782
H        1.46510991       0.34017018       1.12355894
H        1.80351789       1.07671350      -1.57996135
H        0.31586373      -1.64403217      -1.00124624
H        0.96048535      -1.04272256      -2.56573425
H       -1.58426366       0.57884359      -0.69057630
