15
Frame=0 idx=010351 GeodesicLength=0.0 rxn_smarts="[C:1]([C@@:2]1([C:5](=[O:6])[N:7]([H:14])[H:15])[C:3]([H:11])([H:12])[N:4]1[H:13])([H:8])([H:9])[H:10]>>[C:1]([C@@:2]([N+:4](=[C-:3][H:11])[H:13])([C:5](=[O:6])[N:7]([H:14])[H:15])[H:12])([H:8])([H:9])[H:10]"
C       -1.22779354      -1.07517552       0.57983788
C       -0.33281158      -0.08584301      -0.14171272
C       -0.85352266       1.47674231      -1.04209495
N       -0.48895227       1.30187536       0.31991804
C        1.12014731      -0.53682884      -0.26869001
O        1.38358571      -1.61429331      -0.75752177
N        2.02518712       0.33577697       0.20998158
H       -2.27533750      -0.79906568       0.45236683
H       -1.07065385      -2.07451125       0.17871448
H       -0.98638006      -1.08116600       1.64477394
H        0.10805767       1.56373314      -1.58325834
H       -0.78783273      -0.08706551      -1.21801310
H       -1.32191353       1.34955401       0.89676711
H        1.70632503       1.20601938       0.60094037
H        3.00189491       0.12024791       0.12799065
15
Frame=1 idx=010351 GeodesicLength=0.05813480285859841 rxn_smarts="[C:1]([C@@:2]1([C:5](=[O:6])[N:7]([H:14])[H:15])[C:3]([H:11])([H:12])[N:4]1[H:13])([H:8])([H:9])[H:10]>>[C:1]([C@@:2]([N+:4](=[C-:3][H:11])[H:13])([C:5](=[O:6])[N:7]([H:14])[H:15])[H:12])([H:8])([H:9])[H:10]"
C       -1.22611260      -1.07830415       0.57795597
C       -0.33380111      -0.08692307      -0.14412285
C       -0.85030234       1.48046761      -1.03750984
N       -0.48870038       1.29943433       0.32032827
C        1.12007825      -0.53750483      -0.26505731
O        1.38544799      -1.62114479      -0.73918954
N        2.02601522       0.33811164       0.20748442
H       -2.27416396      -0.80275116       0.45332320
H       -1.07026851      -2.07682484       0.17429717
H       -0.98303382      -1.08836900       1.64248411
H        0.10223246       1.57113945      -1.59170995
H       -0.80413103      -0.07845305      -1.23052775
H       -1.31527632       1.35231296       0.90525887
H        1.71005623       1.21495856       0.58555312
H        3.00195992       0.11385033       0.14143211
15
Frame=2 idx=010351 GeodesicLength=0.11626107289958312 rxn_smarts="[C:1]([C@@:2]1([C:5](=[O:6])[N:7]([H:14])[H:15])[C:3]([H:11])([H:12])[N:4]1[H:13])([H:8])([H:9])[H:10]>>[C:1]([C@@:2]([N+:4](=[C-:3][H:11])[H:13])([C:5](=[O:6])[N:7]([H:14])[H:15])[H:12])([H:8])([H:9])[H:10]"
C       -1.22443627      -1.08145968       0.57603523
C       -0.33470211      -0.08806922      -0.14648957
C       -0.84688869       1.48406998      -1.03296453
N       -0.48835203       1.29694060       0.32072138
C        1.12007416      -0.53828141      -0.26130294
O        1.38734151      -1.62789746      -0.72066542
N        2.02690329       0.34041302       0.20490377
H       -2.27297112      -0.80643297       0.45417664
H       -1.06986533      -2.07915393       0.16984158
H       -0.97977797      -1.09560330       1.64015714
H        0.09630227       1.57851959      -1.60022188
H       -0.82092631      -0.06956541      -1.24297416
H       -1.30837621       1.35507286       0.91373648
H        1.71381736       1.22359615       0.57011708
H        3.00185746       0.10785118       0.15492919
15
Frame=3 idx=010351 GeodesicLength=0.17437156837510687 rxn_smarts="[C:1]([C@@:2]1([C:5](=[O:6])[N:7]([H:14])[H:15])[C:3]([H:11])([H:12])[N:4]1[H:13])([H:8])([H:9])[H:10]>>[C:1]([C@@:2]([N+:4](=[C-:3][H:11])[H:13])([C:5](=[O:6])[N:7]([H:14])[H:15])[H:12])([H:8])([H:9])[H:10]"
C       -1.22277974      -1.08464231       0.57407595
C       -0.33551093      -0.08928920      -0.14880043
C       -0.84324064       1.48753762      -1.02847420
N       -0.48791210       1.29439077       0.32109657
C        1.12013677      -0.53917556      -0.25738044
O        1.38926863      -1.63455402      -0.70193688
N        2.02784963       0.34265737       0.20229545
H       -2.27177185      -0.81011278       0.45489800
H       -1.06944419      -2.08150302       0.16536432
H       -0.97665820      -1.10285374       1.63780122
H        0.09031824       1.58585801      -1.60877527
H       -0.83822151      -0.06039048      -1.25533731
H       -1.30123503       1.35783773       0.92216832
H        1.71758825       1.23188039       0.55476200
H        3.00161267       0.10235924       0.16824270
15
Frame=4 idx=010351 GeodesicLength=0.23245372721290927 rxn_smarts="[C:1]([C@@:2]1([C:5](=[O:6])[N:7]([H:14])[H:15])[C:3]([H:11])([H:12])[N:4]1[H:13])([H:8])([H:9])[H:10]>>[C:1]([C@@:2]([N+:4](=[C-:3][H:11])[H:13])([C:5](=[O:6])[N:7]([H:14])[H:15])[H:12])([H:8])([H:9])[H:10]"
C       -1.22116308      -1.08785329       0.57207885
C       -0.33622411      -0.09059234      -0.15103935
C       -0.83931959       1.49085421      -1.02405592
N       -0.48739078       1.29178247       0.32145403
C        1.12026917      -0.54020481      -0.25323622
O        1.39123512      -1.64111858      -0.68298850
N        2.02885198       0.34482066       0.19972789
H       -2.27058519      -0.81379381       0.45545353
H       -1.06900729      -2.08387956       0.16088248
H       -0.97372931      -1.11010339       1.63542768
H        0.08433564       1.59313994      -1.61734765
H       -0.85600976      -0.05091031      -1.26760101
H       -1.29388414       1.36061179       0.93052022
H        1.72134783       1.23976750       0.53962632
H        3.00127348       0.09747951       0.18109763
15
Frame=5 idx=010351 GeodesicLength=0.2905115057239904 rxn_smarts="[C:1]([C@@:2]1([C:5](=[O:6])[N:7]([H:14])[H:15])[C:3]([H:11])([H:12])[N:4]1[H:13])([H:8])([H:9])[H:10]>>[C:1]([C@@:2]([N+:4](=[C-:3][H:11])[H:13])([C:5](=[O:6])[N:7]([H:14])[H:15])[H:12])([H:8])([H:9])[H:10]"
C       -1.21970496      -1.09109828       0.57000622
C       -0.33683513      -0.09201527      -0.15312814
C       -0.83492136       1.49400053      -1.01970901
N       -0.48680440       1.28908074       0.32184390
C        1.12047271      -0.54145698      -0.24856366
O        1.39325473      -1.64767472      -0.66352485
N        2.02988098       0.34678490       0.19761357
H       -2.26950340      -0.81745400       0.45565695
H       -1.06863824      -2.08629398       0.15639525
H       -0.97126735      -1.11735614       1.63303278
H        0.07863838       1.60028197      -1.62581442
H       -0.87419193      -0.04114304      -1.27973766
H       -1.28642982       1.36339441       0.93872074
H        1.72503993       1.24712089       0.52516554
H        3.00100986       0.09382898       0.19204280
15
Frame=6 idx=010351 GeodesicLength=0.34853153864312947 rxn_smarts="[C:1]([C@@:2]1([C:5](=[O:6])[N:7]([H:14])[H:15])[C:3]([H:11])([H:12])[N:4]1[H:13])([H:8])([H:9])[H:10]>>[C:1]([C@@:2]([N+:4](=[C-:3][H:11])[H:13])([C:5](=[O:6])[N:7]([H:14])[H:15])[H:12])([H:8])([H:9])[H:10]"
C       -1.21827765      -1.09437514       0.56789589
C       -0.33734860      -0.09351926      -0.15514964
C       -0.83024624       1.49698717      -1.01546037
N       -0.48616223       1.28632739       0.32219980
C        1.12074843      -0.54282806      -0.24364441
O        1.39531535      -1.65411518      -0.64386263
N        2.03096188       0.34869468       0.19554446
H       -2.26843074      -0.82113632       0.45568549
H       -1.06821889      -2.08874218       0.15191674
H       -0.96900206      -1.12459315       1.63062633
H        0.07294384       1.60735527      -1.63431830
H       -0.89293691      -0.03102965      -1.29174638
H       -1.27880363       1.36619102       0.94681077
H        1.72870133       1.25409099       0.51102422
H        3.00075613       0.09069243       0.20247803
15
Frame=7 idx=010351 GeodesicLength=0.4064946351778542 rxn_smarts="[C:1]([C@@:2]1([C:5](=[O:6])[N:7]([H:14])[H:15])[C:3]([H:11])([H:12])[N:4]1[H:13])([H:8])([H:9])[H:10]>>[C:1]([C@@:2]([N+:4](=[C-:3][H:11])[H:13])([C:5](=[O:6])[N:7]([H:14])[H:15])[H:12])([H:8])([H:9])[H:10]"
C       -1.21696519      -1.09768743       0.56571461
C       -0.33775792      -0.09512751      -0.15705520
C       -0.82517390       1.49979017      -1.01129968
N       -0.48548031       1.28349278       0.32255493
C        1.12110091      -0.54437057      -0.23826065
O        1.39743762      -1.66050295      -0.62375145
N        2.03207355       0.35046018       0.19380709
H       -2.26743595      -0.82482516       0.45540564
H       -1.06781276      -2.09122963       0.14743015
H       -0.96712165      -1.13182171       1.62819895
H        0.06742969       1.61430482      -1.64276378
H       -0.91216801      -0.02055253      -1.30360283
H       -1.27107796       1.36899099       0.95474177
H        1.73229785       1.26061117       0.49747900
H        3.00065402       0.08846738       0.21140143
15
Frame=8 idx=010351 GeodesicLength=0.464464161963521 rxn_smarts="[C:1]([C@@:2]1([C:5](=[O:6])[N:7]([H:14])[H:15])[C:3]([H:11])([H:12])[N:4]1[H:13])([H:8])([H:9])[H:10]>>[C:1]([C@@:2]([N+:4](=[C-:3][H:11])[H:13])([C:5](=[O:6])[N:7]([H:14])[H:15])[H:12])([H:8])([H:9])[H:10]"
C       -1.21557324      -1.10103251       0.56351634
C       -0.33805969      -0.09679117      -0.15894996
C       -0.81997999       1.50243026      -1.00726217
N       -0.48473823       1.28063542       0.32282328
C        1.12153177      -0.54595215      -0.23286316
O        1.39959223      -1.66670832      -0.60365727
N        2.03327139       0.35227695       0.19176818
H       -2.26636086      -0.82856352       0.45508364
H       -1.06725906      -2.09374044       0.14294151
H       -0.96521480      -1.13904162       1.62575608
H        0.06166744       1.62124598      -1.65136013
H       -0.93214113      -0.00964089      -1.31531019
H       -1.26310054       1.37180443       0.96259973
H        1.73590875       1.26688346       0.48390244
H        3.00045595       0.08619413       0.22101168
15
Frame=9 idx=010351 GeodesicLength=0.5223964478655211 rxn_smarts="[C:1]([C@@:2]1([C:5](=[O:6])[N:7]([H:14])[H:15])[C:3]([H:11])([H:12])[N:4]1[H:13])([H:8])([H:9])[H:10]>>[C:1]([C@@:2]([N+:4](=[C-:3][H:11])[H:13])([C:5](=[O:6])[N:7]([H:14])[H:15])[H:12])([H:8])([H:9])[H:10]"
C       -1.21430686      -1.10442301       0.56122846
C       -0.33825016      -0.09856355      -0.16072308
C       -0.81435775       1.50487771      -1.00332193
N       -0.48397055       1.27769375       0.32309030
C        1.12204366      -0.54769938      -0.22692697
O        1.40181401      -1.67286722      -0.58303127
N        2.03449956       0.35395900       0.19012224
H       -2.26537171      -0.83232273       0.45441158
H       -1.06671157      -2.09629815       0.13842869
H       -0.96373784      -1.14626633       1.62328065
H        0.05611125       1.62803731      -1.65990367
H       -0.95266388       0.00168437      -1.32682977
H       -1.25505120       1.37462035       0.97028512
H        1.73944991       1.27273756       0.47099752
H        3.00050312       0.08483034       0.22889213
15
Frame=10 idx=010351 GeodesicLength=0.5803126807671681 rxn_smarts="[C:1]([C@@:2]1([C:5](=[O:6])[N:7]([H:14])[H:15])[C:3]([H:11])([H:12])[N:4]1[H:13])([H:8])([H:9])[H:10]>>[C:1]([C@@:2]([N+:4](=[C-:3][H:11])[H:13])([C:5](=[O:6])[N:7]([H:14])[H:15])[H:12])([H:8])([H:9])[H:10]"
C       -1.21305975      -1.10785771       0.55888199
C       -0.33832135      -0.10042292      -0.16242543
C       -0.80848268       1.50712965      -0.99950574
N       -0.48316965       1.27470152       0.32330744
C        1.12264276      -0.54954596      -0.22072234
O        1.40409381      -1.67892612      -0.56210805
N        2.03579576       0.35561434       0.18847989
H       -2.26438488      -0.83612118       0.45352658
H       -1.06608273      -2.09889513       0.13389080
H       -0.96246256      -1.15349589       1.62078107
H        0.05049714       1.63477122      -1.66849719
H       -0.97385936       0.01348623      -1.33815586
H       -1.24684063       1.37744324       0.97784741
H        1.74296574       1.27828544       0.45838636
H        3.00066840       0.08383325       0.23631309
15
Frame=11 idx=010351 GeodesicLength=0.6381720580101283 rxn_smarts="[C:1]([C@@:2]1([C:5](=[O:6])[N:7]([H:14])[H:15])[C:3]([H:11])([H:12])[N:4]1[H:13])([H:8])([H:9])[H:10]>>[C:1]([C@@:2]([N+:4](=[C-:3][H:11])[H:13])([C:5](=[O:6])[N:7]([H:14])[H:15])[H:12])([H:8])([H:9])[H:10]"
C       -1.21191850      -1.11134579       0.55643498
C       -0.33826680      -0.10239501      -0.16401356
C       -0.80221129       1.50916397      -0.99580652
N       -0.48235583       1.27162940       0.32350637
C        1.12333336      -0.55153571      -0.21397631
O        1.40645584      -1.68493007      -0.54060754
N        2.03713203       0.35717549       0.18717463
H       -2.26346855      -0.83995251       0.45228380
H       -1.06542869      -2.10154467       0.12930963
H       -0.96159774      -1.16073780       1.61823992
H        0.04503448       1.64136181      -1.67706273
H       -0.99566007       0.02579278      -1.34924756
H       -1.23856039       1.38026389       0.98523155
H        1.74641803       1.28347000       0.44642805
H        3.00109414       0.08358420       0.24210530
15
Frame=12 idx=010351 GeodesicLength=0.6960212606585414 rxn_smarts="[C:1]([C@@:2]1([C:5](=[O:6])[N:7]([H:14])[H:15])[C:3]([H:11])([H:12])[N:4]1[H:13])([H:8])([H:9])[H:10]>>[C:1]([C@@:2]([N+:4](=[C-:3][H:11])[H:13])([C:5](=[O:6])[N:7]([H:14])[H:15])[H:12])([H:8])([H:9])[H:10]"
C       -1.21094125      -1.11489866       0.55386681
C       -0.33807712      -0.10449758      -0.16543256
C       -0.79548623       1.51095320      -0.99222885
N       -0.48156073       1.26846960       0.32371393
C        1.12411790      -0.55369354      -0.20655267
O        1.40890629      -1.69092186      -0.51832212
N        2.03849110       0.35861678       0.18640628
H       -2.26267321      -0.84381524       0.45058233
H       -1.06478244      -2.10425485       0.12466225
H       -0.96127736      -1.16801646       1.61565694
H        0.03981827       1.64780305      -1.68554021
H       -1.01801216       0.03863293      -1.36010123
H       -1.23028502       1.38308027       0.99241680
H        1.74978341       1.28829239       0.43525980
H        3.00197852       0.08424997       0.24561249
15
Frame=13 idx=010351 GeodesicLength=0.7538713921900027 rxn_smarts="[C:1]([C@@:2]1([C:5](=[O:6])[N:7]([H:14])[H:15])[C:3]([H:11])([H:12])[N:4]1[H:13])([H:8])([H:9])[H:10]>>[C:1]([C@@:2]([N+:4](=[C-:3][H:11])[H:13])([C:5](=[O:6])[N:7]([H:14])[H:15])[H:12])([H:8])([H:9])[H:10]"
C       -1.20992060      -1.11850823       0.55121633
C       -0.33774736      -0.10667808      -0.16683408
C       -0.78858507       1.51253359      -0.98878742
N       -0.48071960       1.26526397       0.32383030
C        1.12500714      -0.55589625      -0.19893079
O        1.41143013      -1.69678603      -0.49572424
N        2.03995156       0.36009234       0.18544732
H       -2.26182759      -0.84774236       0.44871309
H       -1.06399796      -2.10700508       0.11993382
H       -0.96104339      -1.17533257       1.61301165
H        0.03438603       1.65418308      -1.69415418
H       -1.04124370       0.05210212      -1.37067548
H       -1.22177968       1.38589537       0.99950127
H        1.75316939       1.29292731       0.42416512
H        3.00292070       0.08495084       0.24928728
15
Frame=14 idx=010351 GeodesicLength=0.8117268017416904 rxn_smarts="[C:1]([C@@:2]1([C:5](=[O:6])[N:7]([H:14])[H:15])[C:3]([H:11])([H:12])[N:4]1[H:13])([H:8])([H:9])[H:10]>>[C:1]([C@@:2]([N+:4](=[C-:3][H:11])[H:13])([C:5](=[O:6])[N:7]([H:14])[H:15])[H:12])([H:8])([H:9])[H:10]"
C       -1.20868875      -1.12216287       0.54850538
C       -0.33727165      -0.10889952      -0.16834041
C       -0.78171473       1.51393365      -0.98550161
N       -0.47976600       1.26203790       0.32377228
C        1.12601064      -0.55806303      -0.19149957
O        1.41401419      -1.70244566      -0.47318221
N        2.04157548       0.36169231       0.18372058
H       -2.26078699      -0.85174042       0.44690709
H       -1.06297174      -2.10976571       0.11509349
H       -0.96051873      -1.18269949       1.61027265
H        0.02835467       1.66055178      -1.70308696
H       -1.06565467       0.06629645      -1.38089167
H       -1.21283171       1.38870891       1.00655110
H        1.75665998       1.29748193       0.41255400
H        3.00359001       0.08507375       0.25512584
15
Frame=15 idx=010351 GeodesicLength=0.8695854931523754 rxn_smarts="[C:1]([C@@:2]1([C:5](=[O:6])[N:7]([H:14])[H:15])[C:3]([H:11])([H:12])[N:4]1[H:13])([H:8])([H:9])[H:10]>>[C:1]([C@@:2]([N+:4](=[C-:3][H:11])[H:13])([C:5](=[O:6])[N:7]([H:14])[H:15])[H:12])([H:8])([H:9])[H:10]"
C       -1.20744527      -1.12589036       0.54566948
C       -0.33663546      -0.11122162      -0.16981991
C       -0.77462857       1.51509976      -0.98235920
N       -0.47875452       1.25874990       0.32362879
C        1.12713725      -0.56030189      -0.18377917
O        1.41669577      -1.70802681      -0.45011967
N        2.04331649       0.36329288       0.18185952
H       -2.25972058      -0.85580160       0.44485197
H       -1.06183288      -2.11257764       0.11011547
H       -0.96015945      -1.19014182       1.60743847
H        0.02211798       1.66683096      -1.71214088
H       -1.09101106       0.08123518      -1.39072354
H       -1.20363689       1.39151161       1.01349312
H        1.76018706       1.30185101       0.40101794
H        3.00437012       0.08539045       0.26086759
15
Frame=16 idx=010351 GeodesicLength=0.9274424504287679 rxn_smarts="[C:1]([C@@:2]1([C:5](=[O:6])[N:7]([H:14])[H:15])[C:3]([H:11])([H:12])[N:4]1[H:13])([H:8])([H:9])[H:10]>>[C:1]([C@@:2]([N+:4](=[C-:3][H:11])[H:13])([C:5](=[O:6])[N:7]([H:14])[H:15])[H:12])([H:8])([H:9])[H:10]"
C       -1.20633121      -1.12970464       0.54264828
C       -0.33582208      -0.11368779      -0.17116112
C       -0.76714342       1.51597500      -0.97934955
N       -0.47774250       1.25535677       0.32346542
C        1.12838449      -0.56268132      -0.17535382
O        1.41949629      -1.71359955      -0.42601364
N        2.04511487       0.36480970       0.18039041
H       -2.25873905      -0.85991788       0.44227097
H       -1.06065036      -2.11545360       0.10497926
H       -0.96032189      -1.19767282       1.60449603
H        0.01597462       1.67295695      -1.72114927
H       -1.11711387       0.09695920      -1.40015117
H       -1.19436462       1.39427816       1.02025692
H        1.76367341       1.30595366       0.39005041
H        3.00558531       0.08642816       0.26462086
