12
Frame=0 idx=002991 GeodesicLength=0.0 rxn_smarts="[C:1]([C:2]([C:3]([H:10])([H:11])[H:12])([C:4]#[N:5])[H:9])([H:6])([H:7])[H:8]>>[C:1]([C+:2]=[C:4]=[N-:5])([H:6])([H:7])[H:8].[C:3]([H:9])([H:10])([H:11])[H:12]"
C        1.36557936      -0.62985330       0.26236008
C        0.57870815       0.08500346      -0.77840548
C       -1.58473128      -0.22039066       0.11801831
C        0.52113940       1.49355545      -0.64903822
N        0.50431072       2.64976616      -0.65099065
H        1.21120652      -1.70703068       0.21897455
H        2.40320941      -0.44605556      -0.04724500
H        1.27112755      -0.26709914       1.29013884
H       -0.78670738      -0.33997428      -0.73680282
H       -1.96790275      -1.23437197       0.22225014
H       -1.19760022       0.15568977       1.05761282
H       -2.31833951       0.46076072      -0.30687253
12
Frame=1 idx=002991 GeodesicLength=0.056427117178817335 rxn_smarts="[C:1]([C:2]([C:3]([H:10])([H:11])[H:12])([C:4]#[N:5])[H:9])([H:6])([H:7])[H:8]>>[C:1]([C+:2]=[C:4]=[N-:5])([H:6])([H:7])[H:8].[C:3]([H:9])([H:10])([H:11])[H:12]"
C        1.36928049      -0.62832235       0.26537584
C        0.57036905       0.08519431      -0.76638341
C       -1.58101058      -0.22049420       0.11597830
C        0.52501970       1.49533744      -0.64965673
N        0.50224218       2.65126224      -0.64904149
H        1.21370878      -1.70554513       0.22690811
H        2.40424399      -0.44643452      -0.05428925
H        1.28222015      -0.26140217       1.29221030
H       -0.79352948      -0.35650234      -0.76517608
H       -1.97733159      -1.22941213       0.22174950
H       -1.20497682       0.14638877       1.06426027
H       -2.31023589       0.46993008      -0.30193537
12
Frame=2 idx=002991 GeodesicLength=0.11286500588620946 rxn_smarts="[C:1]([C:2]([C:3]([H:10])([H:11])[H:12])([C:4]#[N:5])[H:9])([H:6])([H:7])[H:8]>>[C:1]([C+:2]=[C:4]=[N-:5])([H:6])([H:7])[H:8].[C:3]([H:9])([H:10])([H:11])[H:12]"
C        1.37291846      -0.62664499       0.26835257
C        0.56147805       0.08559097      -0.75382711
C       -1.57741789      -0.22084053       0.11417747
C        0.52890908       1.49720885      -0.65006795
N        0.50124516       2.65284898      -0.64775168
H        1.21607040      -1.70388366       0.23490665
H        2.40495407      -0.44684798      -0.06193851
H        1.29372036      -0.25559956       1.29422481
H       -0.79997157      -0.37242951      -0.79259213
H       -1.98662368      -1.22470740       0.22055132
H       -1.21320867       0.13674931       1.07119680
H       -2.30207377       0.47855554      -0.29723223
12
Frame=3 idx=002991 GeodesicLength=0.16931833750833275 rxn_smarts="[C:1]([C:2]([C:3]([H:10])([H:11])[H:12])([C:4]#[N:5])[H:9])([H:6])([H:7])[H:8]>>[C:1]([C+:2]=[C:4]=[N-:5])([H:6])([H:7])[H:8].[C:3]([H:9])([H:10])([H:11])[H:12]"
C        1.37648777      -0.62481907       0.27128750
C        0.55208836       0.08621690      -0.74073733
C       -1.57399395      -0.22143303       0.11264040
C        0.53277557       1.49916581      -0.65025898
N        0.50136831       2.65454092      -0.64716387
H        1.21831225      -1.70204548       0.24294145
H        2.40532873      -0.44727718      -0.07014192
H        1.30559643      -0.24971228       1.29617566
H       -0.80599837      -0.38776664      -0.81910882
H       -1.99579944      -1.22027979       0.21868622
H       -1.22225681       0.12675466       1.07838716
H       -2.29390885       0.48665518      -0.29270747
12
Frame=4 idx=002991 GeodesicLength=0.22579252679892192 rxn_smarts="[C:1]([C:2]([C:3]([H:10])([H:11])[H:12])([C:4]#[N:5])[H:9])([H:6])([H:7])[H:8]>>[C:1]([C+:2]=[C:4]=[N-:5])([H:6])([H:7])[H:8].[C:3]([H:9])([H:10])([H:11])[H:12]"
C        1.37998200      -0.62284326       0.27417841
C        0.54224768       0.08709303      -0.72711308
C       -1.57077102      -0.22227255       0.11138777
C        0.53658891       1.50120475      -0.65021708
N        0.50265006       2.65634789      -0.64731838
H        1.22045021      -1.70003071       0.25098731
H        2.40535583      -0.44770620      -0.07885360
H        1.31781933      -0.24375955       1.29805660
H       -0.81157320      -0.40252334      -0.84478550
H       -2.00487317      -1.21614630       0.21618260
H       -1.23208712       0.11638933       1.08580198
H       -2.28578951       0.49424691      -0.28830703
12
Frame=5 idx=002991 GeodesicLength=0.2822934420154013 rxn_smarts="[C:1]([C:2]([C:3]([H:10])([H:11])[H:12])([C:4]#[N:5])[H:9])([H:6])([H:7])[H:8]>>[C:1]([C+:2]=[C:4]=[N-:5])([H:6])([H:7])[H:8].[C:3]([H:9])([H:10])([H:11])[H:12]"
C        1.38339435      -0.62071691       0.27702358
C        0.53199896       0.08823740      -0.71295203
C       -1.56777382      -0.22335725       0.11043651
C        0.54032203       1.50332190      -0.64993131
N        0.50511487       2.65827380      -0.64824881
H        1.22249363      -1.69783979       0.25902535
H        2.40502227      -0.44812445      -0.08803442
H        1.33036538      -0.23775641       1.29986083
H       -0.81665750      -0.41670767      -0.86968190
H       -2.01385366      -1.21231879       0.21306584
H       -1.24266931       0.10563938       1.09341624
H       -2.27775721       0.50134880      -0.28397987
12
Frame=6 idx=002991 GeodesicLength=0.3388266864752305 rxn_smarts="[C:1]([C:2]([C:3]([H:10])([H:11])[H:12])([C:4]#[N:5])[H:9])([H:6])([H:7])[H:8]>>[C:1]([C+:2]=[C:4]=[N-:5])([H:6])([H:7])[H:8].[C:3]([H:9])([H:10])([H:11])[H:12]"
C        1.38671798      -0.61844074       0.27982116
C        0.52138114       0.08966415      -0.69825182
C       -1.56502023      -0.22468142       0.10980046
C        0.54395223       1.50551231      -0.64939582
N        0.50876943       2.66031409      -0.64997723
H        1.22444875      -1.69547456       0.26704015
H        2.40431452      -0.44852466      -0.09764992
H        1.34321373      -0.23171584       1.30158067
H       -0.82121021      -0.43032743      -0.89385630
H       -2.02274461      -1.20880250       0.20936142
H       -1.25397617       0.09449706       1.10120751
H       -2.26984654       0.50797954      -0.27968028
12
Frame=7 idx=002991 GeodesicLength=0.395397136142224 rxn_smarts="[C:1]([C:2]([C:3]([H:10])([H:11])[H:12])([C:4]#[N:5])[H:9])([H:6])([H:7])[H:8]>>[C:1]([C+:2]=[C:4]=[N-:5])([H:6])([H:7])[H:8].[C:3]([H:9])([H:10])([H:11])[H:12]"
C        1.38994619      -0.61601626       0.28256934
C        0.51042979       0.09138407      -0.68300997
C       -1.56252228      -0.22623608       0.10949048
C        0.54746144       1.50776996      -0.64860968
N        0.51360266       2.66245572      -0.65251297
H        1.22631689      -1.69293725       0.27502250
H        2.40321855      -0.44890509      -0.10767195
H        1.35634873      -0.22564639       1.30320675
H       -0.82518770      -0.44338962      -0.91736512
H       -2.03154532      -1.20559687       0.20509328
H       -1.26598290       0.08295921       1.10915509
H       -2.26208605       0.51415860      -0.27536774
12
Frame=8 idx=002991 GeodesicLength=0.4520083339970548 rxn_smarts="[C:1]([C:2]([C:3]([H:10])([H:11])[H:12])([C:4]#[N:5])[H:9])([H:6])([H:7])[H:8]>>[C:1]([C+:2]=[C:4]=[N-:5])([H:6])([H:7])[H:8].[C:3]([H:9])([H:10])([H:11])[H:12]"
C        1.39307266      -0.61344600       0.28526606
C        0.49917769       0.09340445      -0.66722450
C       -1.56028687      -0.22800873       0.10951483
C        0.55083646       1.51008717      -0.64757810
N        0.51958475       2.66467680      -0.65585138
H        1.22809609      -1.69023072       0.28296839
H        2.40171989      -0.44926867      -0.11807763
H        1.36975895      -0.21955309       1.30472781
H       -0.82854333      -0.45590133      -0.94026190
H       -2.04025142      -1.20269519       0.20028447
H       -1.27866650       0.07102833       1.11723925
H       -2.25449837       0.51990696      -0.27100732
12
Frame=9 idx=002991 GeodesicLength=0.5086622253024526 rxn_smarts="[C:1]([C:2]([C:3]([H:10])([H:11])[H:12])([C:4]#[N:5])[H:9])([H:6])([H:7])[H:8]>>[C:1]([C+:2]=[C:4]=[N-:5])([H:6])([H:7])[H:8].[C:3]([H:9])([H:10])([H:11])[H:12]"
C        1.39609116      -0.61073288       0.28790903
C        0.48765499       0.09573026      -0.65089358
C       -1.55831681      -0.22998441       0.10987964
C        0.55406788       1.51245534      -0.64631093
N        0.52667167       2.66694768      -0.65997571
H        1.22978034      -1.68735764       0.29087966
H        2.39980317      -0.44962341      -0.12884983
H        1.38343773      -0.21343672       1.30613031
H       -0.83122766      -0.46786910      -0.96259703
H       -2.04885497      -1.20008621       0.19495648
H       -1.29200583       0.05871094       1.12544100
H       -2.24710166       0.52524615      -0.26656905
12
Frame=10 idx=002991 GeodesicLength=0.5653602697474552 rxn_smarts="[C:1]([C:2]([C:3]([H:10])([H:11])[H:12])([C:4]#[N:5])[H:9])([H:6])([H:7])[H:8]>>[C:1]([C+:2]=[C:4]=[N-:5])([H:6])([H:7])[H:8].[C:3]([H:9])([H:10])([H:11])[H:12]"
C        1.39899456      -0.60787940       0.29049614
C        0.47588727       0.09836827      -0.63401169
C       -1.55661325      -0.23214879       0.11059113
C        0.55714530       1.51486869      -0.64481172
N        0.53482507       2.66923491      -0.66488002
H        1.23136283      -1.68432023       0.29875627
H        2.39745083      -0.44997535      -0.13997371
H        1.39737906      -0.20730024       1.30740144
H       -0.83318949      -0.47929525      -0.98441665
H       -2.05734478      -1.19775878       0.18912645
H       -1.30598435       0.04601044       1.13374510
H       -2.23991304       0.53019574      -0.26202274
12
Frame=11 idx=002991 GeodesicLength=0.6221038158634747 rxn_smarts="[C:1]([C:2]([C:3]([H:10])([H:11])[H:12])([C:4]#[N:5])[H:9])([H:6])([H:7])[H:8]>>[C:1]([C+:2]=[C:4]=[N-:5])([H:6])([H:7])[H:8].[C:3]([H:9])([H:10])([H:11])[H:12]"
C        1.40177548      -0.60488764       0.29302517
C        0.46389740       0.10132480      -0.61657239
C       -1.55517546      -0.23448709       0.11165471
C        0.56005982       1.51732205      -0.64308406
N        0.54400302       2.67149980      -0.67055608
H        1.23283398      -1.68111989       0.30660173
H        2.39464397      -0.45033272      -0.15143875
H        1.41158039      -0.20114391       1.30852701
H       -0.83437513      -0.49017992      -1.00576362
H       -2.06570772      -1.19570006       0.18280821
H       -1.32058809       0.03292959       1.14213787
H       -2.23294767       0.53477500      -0.25733980
12
Frame=12 idx=002991 GeodesicLength=0.6789030956056745 rxn_smarts="[C:1]([C:2]([C:3]([H:10])([H:11])[H:12])([C:4]#[N:5])[H:9])([H:6])([H:7])[H:8]>>[C:1]([C+:2]=[C:4]=[N-:5])([H:6])([H:7])[H:8].[C:3]([H:9])([H:10])([H:11])[H:12]"
C        1.40442621      -0.60175607       0.29549522
C        0.45170326       0.10461321      -0.59856404
C       -1.55400734      -0.23699145       0.11307762
C        0.56279942       1.51981950      -0.64111564
N        0.55419674       2.67370583      -0.67702577
H        1.23418032      -1.67775481       0.31441910
H        2.39136292      -0.45069867      -0.16323927
H        1.42604446      -0.19496853       1.30949787
H       -0.83473328      -0.50051352      -1.02668105
H       -2.07393329      -1.19390687       0.17600677
H       -1.33581120       0.01945505       1.15061447
H       -2.22622822       0.53899633      -0.25248527
12
Frame=13 idx=002991 GeodesicLength=0.7357351450590355 rxn_smarts="[C:1]([C:2]([C:3]([H:10])([H:11])[H:12])([C:4]#[N:5])[H:9])([H:6])([H:7])[H:8]>>[C:1]([C+:2]=[C:4]=[N-:5])([H:6])([H:7])[H:8].[C:3]([H:9])([H:10])([H:11])[H:12]"
C        1.40693201      -0.59848471       0.29790574
C        0.43931269       0.10824512      -0.57996162
C       -1.55310074      -0.23964942       0.11486077
C        0.56532844       1.52236129      -0.63887937
N        0.56538705       2.67580880      -0.68430832
H        1.23538345      -1.67422098       0.32222352
H        2.38756633      -0.45109524      -0.17537843
H        1.44077956      -0.18876629       1.31028824
H       -0.83419536      -0.51028436      -1.04719357
H       -2.08198390      -1.19236385       0.16871743
H       -1.35164079       0.00557267       1.15915050
H       -2.21976875       0.54287697      -0.24742488
12
Frame=14 idx=002991 GeodesicLength=0.7926468964356749 rxn_smarts="[C:1]([C:2]([C:3]([H:10])([H:11])[H:12])([C:4]#[N:5])[H:9])([H:6])([H:7])[H:8]>>[C:1]([C+:2]=[C:4]=[N-:5])([H:6])([H:7])[H:8].[C:3]([H:9])([H:10])([H:11])[H:12]"
C        1.40926500      -0.59504726       0.30027202
C        0.42671041       0.11229396      -0.56069263
C       -1.55247735      -0.24251120       0.11703818
C        0.56758939       1.52502410      -0.63620182
N        0.57782238       2.67779600      -0.69279333
H        1.23642116      -1.67049812       0.32997515
H        2.38320628      -0.45144006      -0.18783208
H        1.45577305      -0.18258586       1.31093410
H       -0.83271960      -0.51939302      -1.06734410
H       -2.08988657      -1.19112788       0.16083989
H       -1.36810653      -0.00892903       1.16780611
H       -2.21359761       0.54641836      -0.24200151
12
Frame=15 idx=002991 GeodesicLength=0.8496018984835949 rxn_smarts="[C:1]([C:2]([C:3]([H:10])([H:11])[H:12])([C:4]#[N:5])[H:9])([H:6])([H:7])[H:8]>>[C:1]([C+:2]=[C:4]=[N-:5])([H:6])([H:7])[H:8].[C:3]([H:9])([H:10])([H:11])[H:12]"
C        1.41142518      -0.59146070       0.30256721
C        0.41393400       0.11671100      -0.54080133
C       -1.55211424      -0.24550565       0.11959819
C        0.56960271       1.52773947      -0.63320410
N        0.59127133       2.67953296      -0.70217182
H        1.23730668      -1.66659379       0.33767664
H        2.37828161      -0.45177774      -0.20059476
H        1.47099242      -0.17640346       1.31137362
H       -0.83022670      -0.52788992      -1.08715163
H       -2.09756267      -1.19012166       0.15249321
H       -1.38517764      -0.02386118       1.17650998
H       -2.20773269       0.54963068      -0.23629522
12
Frame=16 idx=002991 GeodesicLength=0.9066104367853246 rxn_smarts="[C:1]([C:2]([C:3]([H:10])([H:11])[H:12])([C:4]#[N:5])[H:9])([H:6])([H:7])[H:8]>>[C:1]([C+:2]=[C:4]=[N-:5])([H:6])([H:7])[H:8].[C:3]([H:9])([H:10])([H:11])[H:12]"
C        1.41340094      -0.58773055       0.30479541
C        0.40099364       0.12151326      -0.52027281
C       -1.55200401      -0.24862594       0.12254992
C        0.57136329       1.53053527      -0.62985327
N        0.60569462       2.68097886      -0.71251680
H        1.23802192      -1.66252422       0.34532854
H        2.37276119      -0.45210382      -0.21365807
H        1.48644455      -0.17023855       1.31160761
H       -0.82665291      -0.53574962      -1.10664219
H       -2.10500502      -1.18933596       0.14366561
H       -1.40284294      -0.03925828       1.18526421
H       -2.20217527       0.55253956      -0.23026817
