18
Frame=0 idx=002996 GeodesicLength=0.0 rxn_smarts="[C:1]([C:2]([C:3]([H:11])([H:12])[H:13])([C@@:4]([C:5]([H:15])([H:16])[H:17])([O:6][H:18])[H:14])[H:10])([H:7])([H:8])[H:9]>>[C:1]([C:2][C@@:4]([C:5]([H:15])([H:16])[H:17])([O:6][H:18])[H:14])([H:7])([H:8])[H:9].[C:3]([H:10])([H:11])([H:12])[H:13]"
C       -1.42302867       1.39566779      -0.21424263
C       -0.43015476       0.63874162       0.60726862
C       -1.23123790      -1.40206184       0.06330736
C        0.92466058       0.52884461       0.00811161
C        1.82733213      -0.51307117       0.64886541
O        0.92115910       0.39748285      -1.41811600
H       -1.10315108       2.44137733      -0.13418085
H       -1.45224719       1.15690573      -1.28279275
H       -2.42599205       1.34329237       0.20983104
H       -0.91566391      -0.59795348       0.90496281
H       -0.93545605      -2.33137191       0.54890038
H       -2.31231587      -1.31366093      -0.00829670
H       -0.75676200      -1.29689992      -0.90609018
H        1.31616032       1.52945514       0.27237841
H        2.85716518      -0.40793239       0.29778260
H        1.49040082      -1.51987024       0.39637992
H        1.82119836      -0.40070584       1.73272956
H        1.82793291       0.35176035      -1.72679853
18
Frame=1 idx=002996 GeodesicLength=0.05510094234975788 rxn_smarts="[C:1]([C:2]([C:3]([H:11])([H:12])[H:13])([C@@:4]([C:5]([H:15])([H:16])[H:17])([O:6][H:18])[H:14])[H:10])([H:7])([H:8])[H:9]>>[C:1]([C:2][C@@:4]([C:5]([H:15])([H:16])[H:17])([O:6][H:18])[H:14])([H:7])([H:8])[H:9].[C:3]([H:10])([H:11])([H:12])[H:13]"
C       -1.42128301       1.39883393      -0.21791024
C       -0.43254168       0.63172934       0.59727191
C       -1.23420484      -1.40252411       0.06664374
C        0.92548934       0.52873888       0.00642577
C        1.82957314      -0.51187605       0.64732956
O        0.92463136       0.40036882      -1.41947777
H       -1.09779881       2.44342341      -0.13179974
H       -1.44777739       1.16308854      -1.28699068
H       -2.42551922       1.34855393       0.20344388
H       -0.92344943      -0.60088453       0.93194723
H       -0.93226794      -2.33527063       0.54314993
H       -2.31641298      -1.32127949      -0.00279545
H       -0.76950518      -1.30460181      -0.90911384
H        1.31258105       1.53026758       0.27587730
H        2.86000026      -0.40289476       0.29862888
H        1.49582168      -1.51910477       0.39232442
H        1.82061631      -0.40171730       1.73151985
H        1.83204734       0.35514902      -1.72647474
18
Frame=2 idx=002996 GeodesicLength=0.10988774628691103 rxn_smarts="[C:1]([C:2]([C:3]([H:11])([H:12])[H:13])([C@@:4]([C:5]([H:15])([H:16])[H:17])([O:6][H:18])[H:14])[H:10])([H:7])([H:8])[H:9]>>[C:1]([C:2][C@@:4]([C:5]([H:15])([H:16])[H:17])([O:6][H:18])[H:14])([H:7])([H:8])[H:9].[C:3]([H:10])([H:11])([H:12])[H:13]"
C       -1.41945600       1.40198614      -0.22166054
C       -0.43504070       0.62433235       0.58715182
C       -1.23718747      -1.40286134       0.07004371
C        0.92631670       0.52862188       0.00468619
C        1.83178919      -0.51067490       0.64576343
O        0.92823454       0.40339858      -1.42086138
H       -1.09246559       2.44530607      -0.12924526
H       -1.44318912       1.16930789      -1.29127209
H       -2.42498439       1.35371015       0.19688079
H       -0.93117033      -0.60364514       0.95865356
H       -0.92911214      -2.33881176       0.53763629
H       -2.32042328      -1.32900692       0.00305469
H       -0.78253787      -1.31237609      -0.91208538
H        1.30889881       1.53099459       0.27953116
H        2.86280121      -0.39782079       0.29950457
H        1.50129109      -1.51829834       0.38812320
H        1.81993952      -0.40288750       1.73022480
H        1.83629583       0.35872511      -1.72612955
18
Frame=3 idx=002996 GeodesicLength=0.16465233894438808 rxn_smarts="[C:1]([C:2]([C:3]([H:11])([H:12])[H:13])([C@@:4]([C:5]([H:15])([H:16])[H:17])([O:6][H:18])[H:14])[H:10])([H:7])([H:8])[H:9]>>[C:1]([C:2][C@@:4]([C:5]([H:15])([H:16])[H:17])([O:6][H:18])[H:14])([H:7])([H:8])[H:9].[C:3]([H:10])([H:11])([H:12])[H:13]"
C       -1.41754002       1.40507169      -0.22544198
C       -0.43771355       0.61638585       0.57673757
C       -1.24010483      -1.40317602       0.07343077
C        0.92712952       0.52851276       0.00288314
C        1.83398918      -0.50953437       0.64409787
O        0.93196463       0.40651375      -1.42233698
H       -1.08713282       2.44708357      -0.12644642
H       -1.43849955       1.17559566      -1.29563636
H       -2.42435021       1.35873202       0.19022070
H       -0.93865011      -0.60608833       0.98510254
H       -0.92605285      -2.34188892       0.53256269
H       -2.32438896      -1.33678547       0.00923464
H       -0.79584011      -1.32025808      -0.91513913
H        1.30504742       1.53158304       0.28332099
H        2.86554642      -0.39265652       0.30050560
H        1.50677250      -1.51749867       0.38370442
H        1.81910978      -0.40415426       1.72891973
H        1.84071356       0.36256230      -1.72571980
18
Frame=4 idx=002996 GeodesicLength=0.21937261047562706 rxn_smarts="[C:1]([C:2]([C:3]([H:11])([H:12])[H:13])([C@@:4]([C:5]([H:15])([H:16])[H:17])([O:6][H:18])[H:14])[H:10])([H:7])([H:8])[H:9]>>[C:1]([C:2][C@@:4]([C:5]([H:15])([H:16])[H:17])([O:6][H:18])[H:14])([H:7])([H:8])[H:9].[C:3]([H:10])([H:11])([H:12])[H:13]"
C       -1.41557329       1.40811092      -0.22918299
C       -0.44048124       0.60814305       0.56621413
C       -1.24296793      -1.40350714       0.07671578
C        0.92794883       0.52842938       0.00105482
C        1.83614731      -0.50839279       0.64245525
O        0.93577792       0.40974517      -1.42384396
H       -1.08187092       2.44870809      -0.12354969
H       -1.43375692       1.18194317      -1.29999153
H       -2.42362335       1.36362541       0.18366788
H       -0.94592472      -0.60829883       1.01125213
H       -0.92316235      -2.34461409       0.52772690
H       -2.32828063      -1.34460688       0.01546605
H       -0.80923898      -1.32824976      -0.91823609
H        1.30112049       1.53212025       0.28710418
H        2.86824077      -0.38755070       0.30153405
H        1.51218058      -1.51664895       0.37935718
H        1.81827917      -0.40541056       1.72753367
H        1.84518528       0.36645426      -1.72527777
18
Frame=5 idx=002996 GeodesicLength=0.2733351703125565 rxn_smarts="[C:1]([C:2]([C:3]([H:11])([H:12])[H:13])([C@@:4]([C:5]([H:15])([H:16])[H:17])([O:6][H:18])[H:14])[H:10])([H:7])([H:8])[H:9]>>[C:1]([C:2][C@@:4]([C:5]([H:15])([H:16])[H:17])([O:6][H:18])[H:14])([H:7])([H:8])[H:9].[C:3]([H:10])([H:11])([H:12])[H:13]"
C       -1.41355910       1.41110079      -0.23293137
C       -0.44324646       0.59981143       0.55584438
C       -1.24584761      -1.40382571       0.07984198
C        0.92876671       0.52841055      -0.00080829
C        1.83829688      -0.50720284       0.64081440
O        0.93965265       0.41308831      -1.42540483
H       -1.07669750       2.45020886      -0.12063644
H       -1.42898032       1.18828075      -1.30433618
H       -2.42280310       1.36841369       0.17730028
H       -0.95308414      -0.61042308       1.03678397
H       -0.92034420      -2.34710346       0.52321320
H       -2.33213260      -1.35244940       0.02180725
H       -0.82276841      -1.33633182      -0.92129286
H        1.29718656       1.53261492       0.29088472
H        2.87088137      -0.38249638       0.30262989
H        1.51756625      -1.51578605       0.37497028
H        1.81735651      -0.40668991       1.72615400
H        1.84975650       0.37037935      -1.72483439
18
Frame=6 idx=002996 GeodesicLength=0.3273652982378942 rxn_smarts="[C:1]([C:2]([C:3]([H:11])([H:12])[H:13])([C@@:4]([C:5]([H:15])([H:16])[H:17])([O:6][H:18])[H:14])[H:10])([H:7])([H:8])[H:9]>>[C:1]([C:2][C@@:4]([C:5]([H:15])([H:16])[H:17])([O:6][H:18])[H:14])([H:7])([H:8])[H:9].[C:3]([H:10])([H:11])([H:12])[H:13]"
C       -1.41147396       1.41399648      -0.23667551
C       -0.44612626       0.59106602       0.54520391
C       -1.24870674      -1.40413925       0.08282145
C        0.92956987       0.52839609      -0.00271126
C        1.84042963      -0.50600363       0.63917584
O        0.94366047       0.41654978      -1.42698893
H       -1.07154160       2.45151888      -0.11748423
H       -1.42409166       1.19468006      -1.30873558
H       -2.42187174       1.37308361       0.17089646
H       -0.95999972      -0.61216312       1.06205565
H       -0.91760850      -2.34921280       0.51891589
H       -2.33590933      -1.36040809       0.02844215
H       -0.83667424      -1.34447724      -0.92434260
H        1.29314496       1.53299907       0.29471679
H        2.87347121      -0.37736319       0.30382457
H        1.52298500      -1.51485444       0.37050354
H        1.81631319      -0.40805895       1.72474428
H        1.85442943       0.37439072      -1.72436242
18
Frame=7 idx=002996 GeodesicLength=0.38111427357398925 rxn_smarts="[C:1]([C:2]([C:3]([H:11])([H:12])[H:13])([C@@:4]([C:5]([H:15])([H:16])[H:17])([O:6][H:18])[H:14])[H:10])([H:7])([H:8])[H:9]>>[C:1]([C:2][C@@:4]([C:5]([H:15])([H:16])[H:17])([O:6][H:18])[H:14])([H:7])([H:8])[H:9].[C:3]([H:10])([H:11])([H:12])[H:13]"
C       -1.40928232       1.41688823      -0.24036816
C       -0.44908756       0.58204478       0.53450057
C       -1.25156010      -1.40448076       0.08567411
C        0.93036307       0.52840690      -0.00467562
C        1.84253746      -0.50480763       0.63749852
O        0.94776285       0.42015793      -1.42857892
H       -1.06645921       2.45267589      -0.11421480
H       -1.41914373       1.20111480      -1.31313303
H       -2.42085591       1.37764769       0.16458221
H       -0.96670898      -0.61370238       1.08694987
H       -0.91509403      -2.35090862       0.51502297
H       -2.33963326      -1.36845352       0.03518672
H       -0.85064472      -1.35280447      -0.92748451
H        1.28901847       1.53326972       0.29853745
H        2.87604659      -0.37221325       0.30507998
H        1.52835573      -1.51390636       0.36599661
H        1.81518062      -0.40945399       1.72330388
H        1.85920503       0.37852503      -1.72387784
18
Frame=8 idx=002996 GeodesicLength=0.43470136231647133 rxn_smarts="[C:1]([C:2]([C:3]([H:11])([H:12])[H:13])([C@@:4]([C:5]([H:15])([H:16])[H:17])([O:6][H:18])[H:14])[H:10])([H:7])([H:8])[H:9]>>[C:1]([C:2][C@@:4]([C:5]([H:15])([H:16])[H:17])([O:6][H:18])[H:14])([H:7])([H:8])[H:9].[C:3]([H:10])([H:11])([H:12])[H:13]"
C       -1.40707684       1.41966363      -0.24409151
C       -0.45209711       0.57269937       0.52367474
C       -1.25433766      -1.40484275       0.08828221
C        0.93115281       0.52844684      -0.00665805
C        1.84462933      -0.50357792       0.63584229
O        0.95196885       0.42388965      -1.43018962
H       -1.06147791       2.45364459      -0.11087649
H       -1.41411306       1.20764175      -1.31749285
H       -2.41973520       1.38204789       0.15836923
H       -0.97318022      -0.61487375       1.11148699
H       -0.91272665      -2.35224358       0.51143278
H       -2.34325885      -1.37654819       0.04203463
H       -0.86491610      -1.36123462      -0.93050140
H        1.28483907       1.53345631       0.30236591
H        2.87855786      -0.36711286       0.30637494
H        1.53370954      -1.51292739       0.36144128
H        1.81397975      -0.41092554       1.72183890
H        1.86408237       0.38279657      -1.72333396
18
Frame=9 idx=002996 GeodesicLength=0.48765794623278125 rxn_smarts="[C:1]([C:2]([C:3]([H:11])([H:12])[H:13])([C@@:4]([C:5]([H:15])([H:16])[H:17])([O:6][H:18])[H:14])[H:10])([H:7])([H:8])[H:9]>>[C:1]([C:2][C@@:4]([C:5]([H:15])([H:16])[H:17])([O:6][H:18])[H:14])([H:7])([H:8])[H:9].[C:3]([H:10])([H:11])([H:12])[H:13]"
C       -1.40480118       1.42232149      -0.24781269
C       -0.45501628       0.56366549       0.51317833
C       -1.25725731      -1.40522631       0.09074374
C        0.93191853       0.52848681      -0.00862501
C        1.84670827      -0.50233647       0.63420508
O        0.95616450       0.42761729      -1.43181450
H       -1.05656246       2.45452442      -0.10759631
H       -1.40897093       1.21411188      -1.32188761
H       -2.41854846       1.38644476       0.15207922
H       -0.97954947      -0.61603543       1.13556861
H       -0.91034508      -2.35361759       0.50788267
H       -2.34674672      -1.38468989       0.04912196
H       -0.87949616      -1.36965556      -0.93332536
H        1.28065624       1.53358892       0.30619135
H        2.88105415      -0.36194510       0.30775614
H        1.53909300      -1.51192732       0.35670134
H        1.81269633      -0.41248993       1.72037064
H        1.86900304       0.38716254      -1.72273761
18
Frame=10 idx=002996 GeodesicLength=0.5404985231806986 rxn_smarts="[C:1]([C:2]([C:3]([H:11])([H:12])[H:13])([C@@:4]([C:5]([H:15])([H:16])[H:17])([O:6][H:18])[H:14])[H:10])([H:7])([H:8])[H:9]>>[C:1]([C:2][C@@:4]([C:5]([H:15])([H:16])[H:17])([O:6][H:18])[H:14])([H:7])([H:8])[H:9].[C:3]([H:10])([H:11])([H:12])[H:13]"
C       -1.40248178       1.42491190      -0.25152193
C       -0.45796778       0.55444119       0.50258502
C       -1.26018516      -1.40563508       0.09298013
C        0.93268467       0.52854685      -0.01064875
C        1.84876436      -0.50113049       0.63252323
O        0.96048015       0.43148288      -1.43340432
H       -1.05169315       2.45529638      -0.10427329
H       -1.40378389       1.22056697      -1.32622688
H       -2.41728401       1.39073289       0.14589616
H       -0.98575432      -0.61695869       1.15936113
H       -0.90806095      -2.35477603       0.50439516
H       -2.35017884      -1.39289194       0.05635544
H       -0.89428968      -1.37814245      -0.93601667
H        1.27642646       1.53366231       0.31000569
H        2.88352314      -0.35678669       0.30919516
H        1.54441385      -1.51085192       0.35207451
H        1.81138285      -0.41404723       1.71883700
H        1.87400409       0.39157917      -1.72211679
18
Frame=11 idx=002996 GeodesicLength=0.5931063487743091 rxn_smarts="[C:1]([C:2]([C:3]([H:11])([H:12])[H:13])([C@@:4]([C:5]([H:15])([H:16])[H:17])([O:6][H:18])[H:14])[H:10])([H:7])([H:8])[H:9]>>[C:1]([C:2][C@@:4]([C:5]([H:15])([H:16])[H:17])([O:6][H:18])[H:14])([H:7])([H:8])[H:9].[C:3]([H:10])([H:11])([H:12])[H:13]"
C       -1.40012383       1.42739734      -0.25523164
C       -0.46093451       0.54499527       0.49183019
C       -1.26310499      -1.40602241       0.09516795
C        0.93343648       0.52863010      -0.01267571
C        1.85079197      -0.49991338       0.63086408
O        0.96489866       0.43547959      -1.43504891
H       -1.04689683       2.45589602      -0.10092768
H       -1.39847838       1.22708477      -1.33056442
H       -2.41594020       1.39489682       0.13973694
H       -0.99184676      -0.61766506       1.18294483
H       -0.90588206      -2.35567625       0.50105570
H       -2.35354822      -1.40114449       0.06378602
H       -0.90930058      -1.38665717      -0.93863034
H        1.27211087       1.53362790       0.31385673
H        2.88595554      -0.35162993       0.31069795
H        1.54974796      -1.50972150       0.34735652
H        1.80999997      -0.41570548       1.71724139
H        1.87911491       0.39612786      -1.72145961
18
Frame=12 idx=002996 GeodesicLength=0.6454133394860786 rxn_smarts="[C:1]([C:2]([C:3]([H:11])([H:12])[H:13])([C@@:4]([C:5]([H:15])([H:16])[H:17])([O:6][H:18])[H:14])[H:10])([H:7])([H:8])[H:9]>>[C:1]([C:2][C@@:4]([C:5]([H:15])([H:16])[H:17])([O:6][H:18])[H:14])([H:7])([H:8])[H:9].[C:3]([H:10])([H:11])([H:12])[H:13]"
C       -1.39770232       1.42982221      -0.25886828
C       -0.46394409       0.53535397       0.48097840
C       -1.26601774      -1.40647271       0.09716464
C        0.93417774       0.52870916      -0.01476733
C        1.85278704      -0.49866996       0.62922375
O        0.96938213       0.43956321      -1.43667242
H       -1.04214613       2.45638849      -0.09748511
H       -1.39311333       1.23366311      -1.33484290
H       -2.41451951       1.39891088       0.13369342
H       -0.99771185      -0.61803303       1.20617389
H       -0.90384859      -2.35630437       0.49797723
H       -2.35680313      -1.40947590       0.07123812
H       -0.92446702      -1.39527857      -0.94124065
H        1.26773456       1.53352838       0.31769513
H        2.88830848      -0.34650689       0.31226338
H        1.55505674      -1.50856716       0.34264744
H        1.80856082      -0.41734373       1.71560643
H        1.88426620       0.40071290      -1.72078514
18
Frame=13 idx=002996 GeodesicLength=0.6974843360812373 rxn_smarts="[C:1]([C:2]([C:3]([H:11])([H:12])[H:13])([C@@:4]([C:5]([H:15])([H:16])[H:17])([O:6][H:18])[H:14])[H:10])([H:7])([H:8])[H:9]>>[C:1]([C:2][C@@:4]([C:5]([H:15])([H:16])[H:17])([O:6][H:18])[H:14])([H:7])([H:8])[H:9].[C:3]([H:10])([H:11])([H:12])[H:13]"
C       -1.39522710       1.43219008      -0.26253796
C       -0.46698366       0.52564406       0.47006843
C       -1.26895158      -1.40694943       0.09900845
C        0.93491482       0.52883358      -0.01684308
C        1.85477236      -0.49745937       0.62754480
O        0.97391281       0.44372723      -1.43829457
H       -1.03752912       2.45672540      -0.09404382
H       -1.38766449       1.24026721      -1.33910444
H       -2.41303888       1.40283336       0.12768795
H       -1.00336764      -0.61814221       1.22914209
H       -0.90190101      -2.35678083       0.49497862
H       -2.36003388      -1.41787684       0.07894790
H       -0.93981969      -1.40393983      -0.94377349
H        1.26334531       1.53335404       0.32151615
H        2.89062251      -0.34141576       0.31390084
H        1.56037943      -1.50738149       0.33785248
H        1.80703391      -0.41905984       1.71397755
H        1.88953591       0.40543064      -1.72002790
18
Frame=14 idx=002996 GeodesicLength=0.7494342395334279 rxn_smarts="[C:1]([C:2]([C:3]([H:11])([H:12])[H:13])([C@@:4]([C:5]([H:15])([H:16])[H:17])([O:6][H:18])[H:14])[H:10])([H:7])([H:8])[H:9]>>[C:1]([C:2][C@@:4]([C:5]([H:15])([H:16])[H:17])([O:6][H:18])[H:14])([H:7])([H:8])[H:9].[C:3]([H:10])([H:11])([H:12])[H:13]"
C       -1.39265062       1.43450716      -0.26621638
C       -0.47007311       0.51570187       0.45897165
C       -1.27196188      -1.40740337       0.10073314
C        0.93563978       0.52895863      -0.01896771
C        1.85673124      -0.49627281       0.62578416
O        0.97858593       0.44810697      -1.43989225
H       -1.03293312       2.45695931      -0.09051089
H       -1.38208624       1.24687751      -1.34338992
H       -2.41146646       1.40663280       0.12155236
H       -1.00891187      -0.61798839       1.25191384
H       -0.90004483      -2.35700953       0.49217452
H       -2.36315325      -1.42643433       0.08700223
H       -0.95547970      -1.41268995      -0.94616932
H        1.25884449       1.53302558       0.32540310
H        2.89290181      -0.33626573       0.31560618
H        1.56571726      -1.50614676       0.33291469
H        1.80540002      -0.42092711       1.71227990
H        1.89494056       0.41036815      -1.71918930
18
Frame=15 idx=002996 GeodesicLength=0.8011710299477007 rxn_smarts="[C:1]([C:2]([C:3]([H:11])([H:12])[H:13])([C@@:4]([C:5]([H:15])([H:16])[H:17])([O:6][H:18])[H:14])[H:10])([H:7])([H:8])[H:9]>>[C:1]([C:2][C@@:4]([C:5]([H:15])([H:16])[H:17])([O:6][H:18])[H:14])([H:7])([H:8])[H:9].[C:3]([H:10])([H:11])([H:12])[H:13]"
C       -1.39004518       1.43672863      -0.26990833
C       -0.47314864       0.50567267       0.44781184
C       -1.27497571      -1.40786097       0.10222932
C        0.93635197       0.52911486      -0.02109328
C        1.85868613      -0.49504598       0.62408357
O        0.98332541       0.45253546      -1.44149875
H       -1.02841747       2.45702871      -0.08690862
H       -1.37650006       1.25345189      -1.34762482
H       -2.40982000       1.41038084       0.11549751
H       -1.01423338      -0.61759545       1.27443150
H       -0.89825943      -2.35707897       0.48932399
H       -2.36615867      -1.43501759       0.09513772
H       -0.97140678      -1.42146496      -0.94837438
H        1.25433778       1.53266869       0.32926751
H        2.89511784      -0.33114462       0.31740065
H        1.57103992      -1.50488850       0.32799304
H        1.80373404      -0.42279334       1.71057409
H        1.90037223       0.41530862      -1.71834258
18
Frame=16 idx=002996 GeodesicLength=0.8526093913693114 rxn_smarts="[C:1]([C:2]([C:3]([H:11])([H:12])[H:13])([C@@:4]([C:5]([H:15])([H:16])[H:17])([O:6][H:18])[H:14])[H:10])([H:7])([H:8])[H:9]>>[C:1]([C:2][C@@:4]([C:5]([H:15])([H:16])[H:17])([O:6][H:18])[H:14])([H:7])([H:8])[H:9].[C:3]([H:10])([H:11])([H:12])[H:13]"
C       -1.38734721       1.43893536      -0.27351968
C       -0.47621788       0.49551694       0.43659101
C       -1.27808490      -1.40833971       0.10351823
C        0.93703979       0.52929979      -0.02321115
C        1.86061359      -0.49380359       0.62240097
O        0.98812143       0.45703894      -1.44310390
H       -1.02395545       2.45695823      -0.08331194
H       -1.37087324       1.26004667      -1.35182666
H       -2.40808773       1.41401566       0.10955957
H       -1.01939083      -0.61694442       1.29665431
H       -0.89650208      -2.35701881       0.48652364
H       -2.36897425      -1.44366013       0.10331826
H       -0.98757773      -1.43027642      -0.95042556
H        1.24978731       1.53226397       0.33306980
H        2.89729034      -0.32604059       0.31925366
H        1.57633773      -1.50358828       0.32309469
H        1.80200494      -0.42465898       1.70885826
H        1.90581620       0.42025537      -1.71744350
