14
Frame=0 idx=008889 GeodesicLength=0.0 rxn_smarts="[O:1]=[C:2]1[C:3]([H:8])([H:9])[N:4]2[C:5]([H:10])([H:11])[C:6]1([H:12])[C:7]2([H:13])[H:14]>>[O+:1]1=[C-:2][C:6]2([H:12])[C:5]([H:10])([H:11])[N:4]([C:3]1([H:8])[H:9])[C:7]2([H:13])[H:14]"
O       -1.51037386       0.85983308       1.30610259
C       -0.43349217       1.40569757       1.31919737
C       -1.22383133      -0.46488703      -1.18550487
N       -0.05105210      -0.44922652      -0.69185825
C        0.91227181       0.66876837      -0.61268973
C        0.84604022       0.40182509       0.88698264
C        0.35118939      -1.00964569       0.61793996
H       -1.48880740       0.24526467      -1.95840941
H       -1.92995298      -1.21042394      -0.84596144
H        0.49046531       1.63499289      -0.92773203
H        1.82769085       0.43845964      -1.16166327
H        1.68087883       0.61360584       1.54283665
H        1.05364813      -1.83732070       0.49696683
H       -0.52467476      -1.29694326       1.21379290
14
Frame=1 idx=008889 GeodesicLength=0.13090145501766925 rxn_smarts="[O:1]=[C:2]1[C:3]([H:8])([H:9])[N:4]2[C:5]([H:10])([H:11])[C:6]1([H:12])[C:7]2([H:13])[H:14]>>[O+:1]1=[C-:2][C:6]2([H:12])[C:5]([H:10])([H:11])[N:4]([C:3]1([H:8])[H:9])[C:7]2([H:13])[H:14]"
O       -1.54844057       0.84597448       1.27452700
C       -0.46348865       1.37600100       1.27427467
C       -1.24566006      -0.41534923      -1.13009092
N       -0.03720510      -0.46513115      -0.70516352
C        0.92459045       0.65528845      -0.61978662
C        0.83612898       0.40503933       0.88268157
C        0.36499803      -1.01521730       0.61027869
H       -1.50384006       0.28188923      -1.91724722
H       -1.93731125      -1.18817976      -0.82183084
H        0.51937228       1.62128804      -0.95448651
H        1.84997211       0.41533534      -1.14728060
H        1.65546007       0.63332333       1.55265786
H        1.08681744      -1.82635178       0.49302123
H       -0.50139368      -1.32390997       1.20844520
14
Frame=2 idx=008889 GeodesicLength=0.2618622151795593 rxn_smarts="[O:1]=[C:2]1[C:3]([H:8])([H:9])[N:4]2[C:5]([H:10])([H:11])[C:6]1([H:12])[C:7]2([H:13])[H:14]>>[O+:1]1=[C-:2][C:6]2([H:12])[C:5]([H:10])([H:11])[N:4]([C:3]1([H:8])[H:9])[C:7]2([H:13])[H:14]"
O       -1.58449138       0.83586012       1.24406775
C       -0.48996552       1.34605630       1.23340424
C       -1.26129980      -0.37171332      -1.07868267
N       -0.02574802      -0.47981642      -0.71761400
C        0.93497444       0.64274366      -0.62638508
C        0.82654493       0.40775774       0.87830080
C        0.37748390      -1.02037886       0.60281950
H       -1.51686031       0.31461301      -1.87673485
H       -1.94402895      -1.16407630      -0.79938900
H        0.54463051       1.60776111      -0.97912185
H        1.86941053       0.39429201      -1.13333031
H        1.63128829       0.65120978       1.56074375
H        1.11770484      -1.81502368       0.48915412
H       -0.47964346      -1.34928516       1.20276761
14
Frame=3 idx=008889 GeodesicLength=0.392840303919184 rxn_smarts="[O:1]=[C:2]1[C:3]([H:8])([H:9])[N:4]2[C:5]([H:10])([H:11])[C:6]1([H:12])[C:7]2([H:13])[H:14]>>[O+:1]1=[C-:2][C:6]2([H:12])[C:5]([H:10])([H:11])[N:4]([C:3]1([H:8])[H:9])[C:7]2([H:13])[H:14]"
O       -1.61878894       0.82942329       1.21407380
C       -0.51341431       1.31592610       1.19634623
C       -1.27232020      -0.33298741      -1.03088562
N       -0.01608888      -0.49350868      -0.72935529
C        0.94374133       0.63107890      -0.63248274
C        0.81731980       0.41000003       0.87396831
C        0.38889112      -1.02523474       0.59554165
H       -1.52804944       0.34423105      -1.83726447
H       -1.95014812      -1.13919919      -0.77786580
H        0.56668322       1.59449067      -1.00184602
H        1.88644891       0.37519952      -1.11976899
H        1.60832245       0.66740551       1.56750251
H        1.14659452      -1.80347040       0.48528828
H       -0.45919146      -1.37335466       1.19674815
14
Frame=4 idx=008889 GeodesicLength=0.5238140058812305 rxn_smarts="[O:1]=[C:2]1[C:3]([H:8])([H:9])[N:4]2[C:5]([H:10])([H:11])[C:6]1([H:12])[C:7]2([H:13])[H:14]>>[O+:1]1=[C-:2][C:6]2([H:12])[C:5]([H:10])([H:11])[N:4]([C:3]1([H:8])[H:9])[C:7]2([H:13])[H:14]"
O       -1.65149004       0.82663138       1.18413924
C       -0.53423156       1.28566134       1.16289100
C       -1.27989237      -0.29831752      -0.98622300
N       -0.00784972      -0.50635335      -0.74048892
C        0.95111567       0.62024446      -0.63808097
C        0.80846821       0.41178253       0.86978333
C        0.39940033      -1.02986355       0.58841843
H       -1.53756671       0.37113404      -1.79915750
H       -1.95566192      -1.11426882      -0.75687352
H        0.58590061       1.58155234      -1.02281572
H        1.90140507       0.35792357      -1.10657700
H        1.58652466       0.68202385       1.57324863
H        1.17371459      -1.79178719       0.48133882
H       -0.43983681      -1.39636308       1.19039719
14
Frame=5 idx=008889 GeodesicLength=0.6547759677288864 rxn_smarts="[O:1]=[C:2]1[C:3]([H:8])([H:9])[N:4]2[C:5]([H:10])([H:11])[C:6]1([H:12])[C:7]2([H:13])[H:14]>>[O+:1]1=[C-:2][C:6]2([H:12])[C:5]([H:10])([H:11])[N:4]([C:3]1([H:8])[H:9])[C:7]2([H:13])[H:14]"
O       -1.68265795       0.82747409       1.15394536
C       -0.55277326       1.25528280       1.13282460
C       -1.28485292      -0.26703589      -0.94426221
N       -0.00076232      -0.51846222      -0.75109165
C        0.95726416       0.61019011      -0.64318193
C        0.79997825       0.41311742       0.86581868
C        0.40915710      -1.03433337       0.58141517
H       -1.54558865       0.39554510      -1.76259321
H       -1.96056863      -1.08971359      -0.73616084
H        0.60258571       1.56900173      -1.04215664
H        1.91452423       0.34233882      -1.09372891
H        1.56582384       0.69516810       1.57823283
H        1.19926990      -1.78003932       0.47723254
H       -0.42139946      -1.41853377       1.18370622
14
Frame=6 idx=008889 GeodesicLength=0.7857259655866162 rxn_smarts="[O:1]=[C:2]1[C:3]([H:8])([H:9])[N:4]2[C:5]([H:10])([H:11])[C:6]1([H:12])[C:7]2([H:13])[H:14]>>[O+:1]1=[C-:2][C:6]2([H:12])[C:5]([H:10])([H:11])[N:4]([C:3]1([H:8])[H:9])[C:7]2([H:13])[H:14]"
O       -1.71230678       0.83196719       1.12322598
C       -0.56936396       1.22477835       1.10593387
C       -1.28781075      -0.23862941      -0.90463854
N        0.00537626      -0.52992449      -0.76123192
C        0.96231991       0.60086987      -0.64779052
C        0.79182220       0.41401299       0.86213010
C        0.41828651      -1.03870518       0.57449653
H       -1.55230392       0.41760968      -1.72765504
H       -1.96488772      -1.06578405      -0.71553155
H        0.61699239       1.55688075      -1.05997439
H        1.92601303       0.32833590      -1.08119417
H        1.54613129       0.70693373       1.58266364
H        1.22344934      -1.76827382       0.47290730
H       -0.40371780      -1.44007152       1.17665871
14
Frame=7 idx=008889 GeodesicLength=0.9166628707080456 rxn_smarts="[O:1]=[C:2]1[C:3]([H:8])([H:9])[N:4]2[C:5]([H:10])([H:11])[C:6]1([H:12])[C:7]2([H:13])[H:14]>>[O+:1]1=[C-:2][C:6]2([H:12])[C:5]([H:10])([H:11])[N:4]([C:3]1([H:8])[H:9])[C:7]2([H:13])[H:14]"
O       -1.74037479       0.84015368       1.09172900
C       -0.58430908       1.19410675       1.08201664
C       -1.28921639      -0.21269934      -0.86705079
N        0.01072295      -0.54081550      -0.77096927
C        0.96638677       0.59224213      -0.65190980
C        0.78395607       0.41447316       0.85876324
C        0.42689685      -1.04303472       0.56762511
H       -1.55789701       0.43742382      -1.69437371
H       -1.96865814      -1.04261438      -0.69479538
H        0.62932607       1.54522174      -1.07635075
H        1.93604324       0.31582405      -1.06893800
H        1.52733820       0.71740607       1.58672010
H        1.24643024      -1.75651946       0.46831142
H       -0.38664499      -1.46116803       1.16922218
14
Frame=8 idx=008889 GeodesicLength=1.0475727412794698 rxn_smarts="[O:1]=[C:2]1[C:3]([H:8])([H:9])[N:4]2[C:5]([H:10])([H:11])[C:6]1([H:12])[C:7]2([H:13])[H:14]>>[O+:1]1=[C-:2][C:6]2([H:12])[C:5]([H:10])([H:11])[N:4]([C:3]1([H:8])[H:9])[C:7]2([H:13])[H:14]"
O       -1.76673443       0.85210463       1.05921009
C       -0.59789442       1.16320220       1.06088832
C       -1.28942373      -0.18893365      -0.83125512
N        0.01539833      -0.55119758      -0.78036099
C        0.96955190       0.58427671      -0.65554229
C        0.77632988       0.41449930       0.85576133
C        0.43508334      -1.04737574       0.56076743
H       -1.56255423       0.45504445      -1.66276622
H       -1.97194819      -1.02027622      -0.67376017
H        0.63975824       1.53406063      -1.09135021
H        1.94477016       0.30473948      -1.05692435
H        1.50933481       0.72666058       1.59056679
H        1.26838026      -1.74479414       0.46340479
H       -0.37005192      -1.48201064       1.16136062
14
Frame=9 idx=008889 GeodesicLength=1.1784900409989834 rxn_smarts="[O:1]=[C:2]1[C:3]([H:8])([H:9])[N:4]2[C:5]([H:10])([H:11])[C:6]1([H:12])[C:7]2([H:13])[H:14]>>[O+:1]1=[C-:2][C:6]2([H:12])[C:5]([H:10])([H:11])[N:4]([C:3]1([H:8])[H:9])[C:7]2([H:13])[H:14]"
O       -1.79117609       0.86789913       1.02544433
C       -0.61038596       1.13199636       1.04235454
C       -1.28866912      -0.16707827      -0.79702591
N        0.01950512      -0.56112277      -0.78944972
C        0.97185603       0.57693005      -0.65867160
C        0.76885485       0.41409231       0.85314081
C        0.44292285      -1.05176546       0.55386476
H       -1.56639764       0.47049594      -1.63279718
H       -1.97476133      -0.99877711      -0.65220416
H        0.64840330       1.52340622      -1.10499448
H        1.95227652       0.29499921      -1.04508447
H        1.49194956       0.73476937       1.59431137
H        1.28942561      -1.73310346       0.45812484
H       -0.35380370      -1.50274151       1.15298687
14
Frame=10 idx=008889 GeodesicLength=1.3093773985553807 rxn_smarts="[O:1]=[C:2]1[C:3]([H:8])([H:9])[N:4]2[C:5]([H:10])([H:11])[C:6]1([H:12])[C:7]2([H:13])[H:14]>>[O+:1]1=[C-:2][C:6]2([H:12])[C:5]([H:10])([H:11])[N:4]([C:3]1([H:8])[H:9])[C:7]2([H:13])[H:14]"
O       -1.81338864       0.88763473       0.99019478
C       -0.62204779       1.10038707       1.02626912
C       -1.28719660      -0.14693109      -0.76421278
N        0.02311170      -0.57063339      -0.79829009
C        0.97335777       0.57019138      -0.66129759
C        0.76146162       0.41324968       0.85094795
C        0.45048621      -1.05624741       0.54689247
H       -1.56960719       0.48376631      -1.60450433
H       -1.97721264      -0.97812056      -0.62991186
H        0.65537506       1.51330022      -1.11731799
H        1.95868839       0.28658938      -1.03338379
H        1.47506096       0.74178565       1.59810448
H        1.30971329      -1.72143474       0.45245336
H       -0.33780215      -1.52353722       1.14405628
14
Frame=11 idx=008889 GeodesicLength=1.440243661813074 rxn_smarts="[O:1]=[C:2]1[C:3]([H:8])([H:9])[N:4]2[C:5]([H:10])([H:11])[C:6]1([H:12])[C:7]2([H:13])[H:14]>>[O+:1]1=[C-:2][C:6]2([H:12])[C:5]([H:10])([H:11])[N:4]([C:3]1([H:8])[H:9])[C:7]2([H:13])[H:14]"
O       -1.83295743       0.91137395       0.95325850
C       -0.63313516       1.06828525       1.01246429
C       -1.28518124      -0.12831955      -0.73267865
N        0.02627500      -0.57976435      -0.80692454
C        0.97408184       0.56404012      -0.66340596
C        0.75404471       0.41197314       0.84920583
C        0.45782707      -1.06084963       0.53980958
H       -1.57231558       0.49482724      -1.57789351
H       -1.97936822      -0.95827328      -0.60664921
H        0.66074950       1.50376530      -1.12833120
H        1.96407833       0.27947902      -1.02175614
H        1.45849290       0.74776488       1.60205130
H        1.32935422      -1.70976352       0.44636484
H       -0.32194593      -1.54453856       1.13448487
14
Frame=12 idx=008889 GeodesicLength=1.5710979700941956 rxn_smarts="[O:1]=[C:2]1[C:3]([H:8])([H:9])[N:4]2[C:5]([H:10])([H:11])[C:6]1([H:12])[C:7]2([H:13])[H:14]>>[O+:1]1=[C-:2][C:6]2([H:12])[C:5]([H:10])([H:11])[N:4]([C:3]1([H:8])[H:9])[C:7]2([H:13])[H:14]"
O       -1.84935921       0.93908044       0.91449910
C       -0.64389602       1.03562739       1.00075787
C       -1.28277641      -0.11109449      -0.70232292
N        0.02903476      -0.58854410      -0.81539433
C        0.97404668       0.55845655      -0.66498536
C        0.74648258       0.41027631       0.84793183
C        0.46498050      -1.06558462       0.53258248
H       -1.57465299       0.50365081      -1.55297294
H       -1.98130411      -0.93918405      -0.58220282
H        0.66459788       1.49481692      -1.13805375
H        1.96851003       0.27363816      -1.01012866
H        1.44205368       0.75277161       1.60624472
H        1.34843554      -1.69804758       0.43985652
H       -0.30615290      -1.56586336       1.12418828
14
Frame=13 idx=008889 GeodesicLength=1.7019473690028153 rxn_smarts="[O:1]=[C:2]1[C:3]([H:8])([H:9])[N:4]2[C:5]([H:10])([H:11])[C:6]1([H:12])[C:7]2([H:13])[H:14]>>[O+:1]1=[C-:2][C:6]2([H:12])[C:5]([H:10])([H:11])[N:4]([C:3]1([H:8])[H:9])[C:7]2([H:13])[H:14]"
O       -1.86197661       0.97051151       0.87391672
C       -0.65457056       1.00241253       0.99092650
C       -1.28012407      -0.09511663      -0.67308493
N        0.03141579      -0.59699604      -0.82373786
C        0.97327549       0.55341714      -0.66603793
C        0.73864018       0.40819445       0.84713138
C        0.47195752      -1.07044086       0.52519641
H       -1.57675104       0.51024940      -1.52974085
H       -1.98311054      -0.92078353      -0.55642650
H        0.66700650       1.48645548      -1.14654443
H        1.97205163       0.26902196      -0.99842648
H        1.42554170       0.75688936       1.61075848
H        1.36701499      -1.68622580       0.43297139
H       -0.29037097      -1.58758898       1.11309811
14
Frame=14 idx=008889 GeodesicLength=1.8328105113420827 rxn_smarts="[O:1]=[C:2]1[C:3]([H:8])([H:9])[N:4]2[C:5]([H:10])([H:11])[C:6]1([H:12])[C:7]2([H:13])[H:14]>>[O+:1]1=[C-:2][C:6]2([H:12])[C:5]([H:10])([H:11])[N:4]([C:3]1([H:8])[H:9])[C:7]2([H:13])[H:14]"
O       -1.87018601       1.00509501       0.83173799
C       -0.66535496       0.96875370       0.98267960
C       -1.27734389      -0.08024772      -0.64494014
N        0.03343378      -0.60513998      -0.83198872
C        0.97180125       0.54887982      -0.66658559
C        0.73037837       0.40579828       0.84678413
C        0.47873394      -1.07536766       0.51765777
H       -1.57872488       0.51472317      -1.50815120
H       -1.98486304      -0.90298618      -0.52930545
H        0.66809577       1.47864001      -1.15392093
H        1.97476972       0.26554001      -0.98657229
H        1.40875588       0.76023975       1.61562574
H        1.38509479      -1.67421814       0.42580519
H       -0.27459071      -1.60971006       1.10117388
14
Frame=15 idx=008889 GeodesicLength=1.9637080618700051 rxn_smarts="[O:1]=[C:2]1[C:3]([H:8])([H:9])[N:4]2[C:5]([H:10])([H:11])[C:6]1([H:12])[C:7]2([H:13])[H:14]>>[O+:1]1=[C-:2][C:6]2([H:12])[C:5]([H:10])([H:11])[N:4]([C:3]1([H:8])[H:9])[C:7]2([H:13])[H:14]"
O       -1.87350372       1.04180224       0.78851457
C       -0.67637401       0.93493022       0.97563654
C       -1.27453720      -0.06633687      -0.61790069
N        0.03510088      -0.61299514      -0.84017192
C        0.96968896       0.54477973      -0.66668895
C        0.72158044       0.40320341       0.84683374
C        0.48524549      -1.08026952       0.51001280
H       -1.58066845       0.51732977      -1.48809083
H       -1.98662300      -0.88570023      -0.50103578
H        0.66805512       1.47128164      -1.16040203
H        1.97675254       0.26303481      -0.97450628
H        1.39153342       0.76298967       1.62082409
H        1.40261392      -1.66193921       0.41853360
H       -0.25886439      -1.63211052       1.08844115
14
Frame=16 idx=008889 GeodesicLength=2.094662224652583 rxn_smarts="[O:1]=[C:2]1[C:3]([H:8])([H:9])[N:4]2[C:5]([H:10])([H:11])[C:6]1([H:12])[C:7]2([H:13])[H:14]>>[O+:1]1=[C-:2][C:6]2([H:12])[C:5]([H:10])([H:11])[N:4]([C:3]1([H:8])[H:9])[C:7]2([H:13])[H:14]"
O       -1.87179743       1.07917515       0.74512424
C       -0.68763411       0.90139280       0.96934797
C       -1.27177333      -0.05321910      -0.59199980
N        0.03643555      -0.62058199      -0.84830104
C        0.96704285       0.54102604      -0.66645084
C        0.71218793       0.40056477       0.84718313
C        0.49139243      -1.08501131       0.50234727
H       -1.58263223       0.51850948      -1.46936331
H       -1.98841200      -0.86884503      -0.47205284
H        0.66715090       1.46423899      -1.16630444
H        1.97810911       0.26127343      -0.96220295
H        1.37379557       0.76534351       1.62626348
H        1.41944396      -1.64931973       0.41139824
H       -0.24330921      -1.65454702       1.07501088
