12
Frame=0 idx=010587 GeodesicLength=0.0 rxn_smarts="[O:1]=[C:2]([C@@:3]1([H:9])[C:4]([H:10])([H:11])[C@:5]1([C:6]#[N:7])[H:12])[H:8]>>[O:1]=[C:2]([C@@:3]1([H:9])[C:4]([H:10])([H:11])[N:7]=[C:6]=[C:5]1[H:12])[H:8]"
O       -2.08062275      -0.63216606       1.80522104
C       -1.22537850      -0.77912959       0.97932679
C       -0.41153963       0.35212049       0.39988257
C        1.07592124       0.13918311       0.30105065
C       -0.49542836       0.42656287      -1.11050819
C        0.77939114       0.03484693      -1.46897144
N        1.87025630      -0.38920704      -1.73706741
H       -1.00426183      -1.77632531       0.54157107
H       -0.63304126       1.28226753       0.92826389
H        1.53092400      -0.78861624       0.63043335
H        1.69215157       1.01973537       0.41776405
H       -1.09837194       1.11072794      -1.68696642
12
Frame=1 idx=010587 GeodesicLength=0.060350876784770933 rxn_smarts="[O:1]=[C:2]([C@@:3]1([H:9])[C:4]([H:10])([H:11])[C@:5]1([C:6]#[N:7])[H:12])[H:8]>>[O:1]=[C:2]([C@@:3]1([H:9])[C:4]([H:10])([H:11])[N:7]=[C:6]=[C:5]1[H:12])[H:8]"
O       -2.04036711      -0.64935198       1.84053015
C       -1.22558722      -0.78140683       0.97217902
C       -0.41579875       0.35376187       0.39906399
C        1.07333860       0.14890204       0.29783578
C       -0.48330098       0.43803902      -1.11004988
C        0.77113056       0.00893995      -1.48850619
N        1.87252067      -0.40260709      -1.72516324
H       -1.03187668      -1.77263596       0.50891153
H       -0.64355429       1.28444372       0.92380959
H        1.52451981      -0.77481789       0.64398425
H        1.68682379       1.02983250       0.42776174
H       -1.08784839       1.11690065      -1.69035674
12
Frame=2 idx=010587 GeodesicLength=0.12071579715175573 rxn_smarts="[O:1]=[C:2]([C@@:3]1([H:9])[C:4]([H:10])([H:11])[C@:5]1([C:6]#[N:7])[H:12])[H:8]>>[O:1]=[C:2]([C@@:3]1([H:9])[C:4]([H:10])([H:11])[N:7]=[C:6]=[C:5]1[H:12])[H:8]"
O       -1.99814224      -0.66733621       1.87436295
C       -1.22605589      -0.78294426       0.96541990
C       -0.41989130       0.35561710       0.39812176
C        1.07095741       0.15837441       0.29487901
C       -0.47022092       0.44910212      -1.10969593
C        0.76247040      -0.01741664      -1.50767783
N        1.87419275      -0.41384054      -1.71373349
H       -1.06106465      -1.76730561       0.47724848
H       -0.65402672       1.28692194       0.91896488
H        1.51781352      -0.76161040       0.65682104
H        1.68167798       1.03928698       0.43948119
H       -1.07771033       1.12115110      -1.69419196
12
Frame=3 idx=010587 GeodesicLength=0.18105002118225771 rxn_smarts="[O:1]=[C:2]([C@@:3]1([H:9])[C:4]([H:10])([H:11])[C@:5]1([C:6]#[N:7])[H:12])[H:8]>>[O:1]=[C:2]([C@@:3]1([H:9])[C:4]([H:10])([H:11])[N:7]=[C:6]=[C:5]1[H:12])[H:8]"
O       -1.95373783      -0.68600838       1.90633748
C       -1.22668742      -0.78364662       0.95888284
C       -0.42372781       0.35766564       0.39697448
C        1.06880724       0.16763799       0.29225531
C       -0.45619956       0.45966261      -1.10939615
C        0.75347792      -0.04376722      -1.52636768
N        1.87497324      -0.42309517      -1.70260922
H       -1.09183752      -1.76010917       0.44654925
H       -0.66432027       1.28958533       0.91360128
H        1.51077088      -0.74894062       0.66891607
H        1.67673247       1.04797453       0.45316735
H       -1.06825132       1.12304109      -1.69831102
12
Frame=4 idx=010587 GeodesicLength=0.241466915812439 rxn_smarts="[O:1]=[C:2]([C@@:3]1([H:9])[C:4]([H:10])([H:11])[C@:5]1([C:6]#[N:7])[H:12])[H:8]>>[O:1]=[C:2]([C@@:3]1([H:9])[C:4]([H:10])([H:11])[N:7]=[C:6]=[C:5]1[H:12])[H:8]"
O       -1.90823418      -0.70540251       1.93607200
C       -1.22731292      -0.78373867       0.95294634
C       -0.42726347       0.35998281       0.39579159
C        1.06706517       0.17680483       0.28995832
C       -0.44120035       0.46990162      -1.10917145
C        0.74437086      -0.06985695      -1.54482061
N        1.87495627      -0.43092841      -1.69220471
H       -1.12394876      -1.75132244       0.41709579
H       -0.67453213       1.29262234       0.90800396
H        1.50369587      -0.73687395       0.68033646
H        1.67209223       1.05610788       0.46865193
H       -1.05968860       1.12270345      -1.70265962
12
Frame=5 idx=010587 GeodesicLength=0.30178205257614804 rxn_smarts="[O:1]=[C:2]([C@@:3]1([H:9])[C:4]([H:10])([H:11])[C@:5]1([C:6]#[N:7])[H:12])[H:8]>>[O:1]=[C:2]([C@@:3]1([H:9])[C:4]([H:10])([H:11])[N:7]=[C:6]=[C:5]1[H:12])[H:8]"
O       -1.86230666      -0.72528665       1.96242237
C       -1.22744429      -0.78325606       0.94748015
C       -0.43025725       0.36249016       0.39463120
C        1.06586326       0.18604728       0.28800881
C       -0.42532729       0.47977324      -1.10871548
C        0.73486070      -0.09551718      -1.56275696
N        1.87358837      -0.43780457      -1.68229574
H       -1.15706770      -1.74064729       0.38877847
H       -0.68430232       1.29571571       0.90225632
H        1.49679233      -0.72499078       0.69110609
H        1.66787559       1.06373071       0.48577883
H       -1.05227475       1.11974543      -1.70669406
12
Frame=6 idx=010587 GeodesicLength=0.36215986309765297 rxn_smarts="[O:1]=[C:2]([C@@:3]1([H:9])[C:4]([H:10])([H:11])[C@:5]1([C:6]#[N:7])[H:12])[H:8]>>[O:1]=[C:2]([C@@:3]1([H:9])[C:4]([H:10])([H:11])[N:7]=[C:6]=[C:5]1[H:12])[H:8]"
O       -1.81534558      -0.74578567       1.98626288
C       -1.22727765      -0.78228889       0.94239936
C       -0.43287426       0.36520636       0.39332074
C        1.06511311       0.19535189       0.28641683
C       -0.40860038       0.48928718      -1.10834817
C        0.72544203      -0.12014578      -1.58050660
N        1.87117134      -0.44416374      -1.67279099
H       -1.19144587      -1.72824199       0.36164282
H       -0.69397996       1.29901557       0.89612874
H        1.48996152      -0.71349674       0.70132206
H        1.66382652       1.07082426       0.50469561
H       -1.04599080       1.11443755      -1.71054329
12
Frame=7 idx=010587 GeodesicLength=0.42277348570924167 rxn_smarts="[O:1]=[C:2]([C@@:3]1([H:9])[C:4]([H:10])([H:11])[C@:5]1([C:6]#[N:7])[H:12])[H:8]>>[O:1]=[C:2]([C@@:3]1([H:9])[C:4]([H:10])([H:11])[N:7]=[C:6]=[C:5]1[H:12])[H:8]"
O       -1.76759233      -0.76717344       2.00751109
C       -1.22670760      -0.78101943       0.93766975
C       -0.43508872       0.36814647       0.39191693
C        1.06487644       0.20495459       0.28517318
C       -0.39106519       0.49851788      -1.10806251
C        0.71607915      -0.14373615      -1.59815560
N        1.86757948      -0.45074541      -1.66366558
H       -1.22710294      -1.71410782       0.33552783
H       -0.70358264       1.30249811       0.88978969
H        1.48330424      -0.70204717       0.71119046
H        1.65995039       1.07772004       0.52514146
H       -1.04065027       1.10699233      -1.71403671
12
Frame=8 idx=010587 GeodesicLength=0.48331153972989277 rxn_smarts="[O:1]=[C:2]([C@@:3]1([H:9])[C:4]([H:10])([H:11])[C@:5]1([C:6]#[N:7])[H:12])[H:8]>>[O:1]=[C:2]([C@@:3]1([H:9])[C:4]([H:10])([H:11])[N:7]=[C:6]=[C:5]1[H:12])[H:8]"
O       -1.71998726      -0.78918616       2.02540212
C       -1.22530629      -0.77960301       0.93324073
C       -0.43679106       0.37120116       0.39047801
C        1.06523494       0.21493357       0.28421110
C       -0.37292359       0.50744159      -1.10764148
C        0.70656831      -0.16619677      -1.61556419
N        1.86259314      -0.45801239      -1.65477983
H       -1.26342479      -1.69818097       0.31062498
H       -0.71302923       1.30589449       0.88328844
H        1.47710807      -0.69038460       0.72073004
H        1.65621143       1.08446545       0.54670254
H       -1.03625367       1.09762764      -1.71669247
12
Frame=9 idx=010587 GeodesicLength=0.5440048192936219 rxn_smarts="[O:1]=[C:2]([C@@:3]1([H:9])[C:4]([H:10])([H:11])[C@:5]1([C:6]#[N:7])[H:12])[H:8]>>[O:1]=[C:2]([C@@:3]1([H:9])[C:4]([H:10])([H:11])[N:7]=[C:6]=[C:5]1[H:12])[H:8]"
O       -1.67175593      -0.81194019       2.04062093
C       -1.22329430      -0.77815982       0.92902966
C       -0.43816570       0.37424350       0.38879371
C        1.06601723       0.22531346       0.28345410
C       -0.35439719       0.51567773      -1.10737699
C        0.69711875      -0.18739530      -1.63300102
N        1.85639871      -0.46607482      -1.64589389
H       -1.30074709      -1.68067734       0.28718125
H       -0.72256201       1.30915495       0.87630407
H        1.47120831      -0.67843928       0.72996945
H        1.65226283       1.09113788       0.56937282
H       -1.03208362       1.08715922      -1.71845410
12
Frame=10 idx=010587 GeodesicLength=0.6048208116748948 rxn_smarts="[O:1]=[C:2]([C@@:3]1([H:9])[C:4]([H:10])([H:11])[C@:5]1([C:6]#[N:7])[H:12])[H:8]>>[O:1]=[C:2]([C@@:3]1([H:9])[C:4]([H:10])([H:11])[N:7]=[C:6]=[C:5]1[H:12])[H:8]"
O       -1.62379068      -0.83536933       2.05303008
C       -1.22048616      -0.77697236       0.92511600
C       -0.43919919       0.37720943       0.38698480
C        1.06724635       0.23619394       0.28283829
C       -0.33563957       0.52320639      -1.10723185
C        0.68765389      -0.20739356      -1.65059695
N        1.84895508      -0.47538912      -1.63713861
H       -1.33853828      -1.66191929       0.26548075
H       -0.73222847       1.31222240       0.86901625
H        1.46578440      -0.66605822       0.73899929
H        1.64803349       1.09799165       0.59273729
H       -1.02779085       1.07627807      -1.71923535
12
Frame=11 idx=010587 GeodesicLength=0.6657039047068253 rxn_smarts="[O:1]=[C:2]([C@@:3]1([H:9])[C:4]([H:10])([H:11])[C@:5]1([C:6]#[N:7])[H:12])[H:8]>>[O:1]=[C:2]([C@@:3]1([H:9])[C:4]([H:10])([H:11])[N:7]=[C:6]=[C:5]1[H:12])[H:8]"
O       -1.57618569      -0.85935231       2.06272562
C       -1.21685403      -0.77616448       0.92143153
C       -0.43993943       0.37997448       0.38501191
C        1.06886090       0.24758037       0.28229168
C       -0.31685548       0.52981106      -1.10721061
C        0.67816321      -0.22618937      -1.66840583
N        1.84028092      -0.48603321      -1.62835596
H       -1.37661882      -1.64207014       0.24576649
H       -0.74209037       1.31493519       0.86131765
H        1.46086570      -0.65313418       0.74781045
H        1.64336573       1.10505630       0.61658967
H       -1.02299264       1.06558630      -1.71897261
12
Frame=12 idx=010587 GeodesicLength=0.7266952769737933 rxn_smarts="[O:1]=[C:2]([C@@:3]1([H:9])[C:4]([H:10])([H:11])[C@:5]1([C:6]#[N:7])[H:12])[H:8]>>[O:1]=[C:2]([C@@:3]1([H:9])[C:4]([H:10])([H:11])[N:7]=[C:6]=[C:5]1[H:12])[H:8]"
O       -1.52876047      -0.88404901       2.06988461
C       -1.21239306      -0.77583890       0.91788689
C       -0.44043148       0.38250031       0.38288063
C        1.07080957       0.25952947       0.28179459
C       -0.29813361       0.53545994      -1.10731046
C        0.66865652      -0.24382631      -1.68647143
N        1.83034563      -0.49831682      -1.61936836
H       -1.41499086      -1.62114028       0.22803980
H       -0.75225428       1.31721899       0.85320611
H        1.45645160      -0.63952910       0.75652987
H        1.63813882       1.11245648       0.64071503
H       -1.01743838       1.05553523      -1.71778730
12
Frame=13 idx=010587 GeodesicLength=0.7878815156820892 rxn_smarts="[O:1]=[C:2]([C@@:3]1([H:9])[C:4]([H:10])([H:11])[C@:5]1([C:6]#[N:7])[H:12])[H:8]>>[O:1]=[C:2]([C@@:3]1([H:9])[C:4]([H:10])([H:11])[N:7]=[C:6]=[C:5]1[H:12])[H:8]"
O       -1.48097497      -0.90953793       2.07475529
C       -1.20715596      -0.77604440       0.91443165
C       -0.44074491       0.38470308       0.38051255
C        1.07301369       0.27202646       0.28130305
C       -0.27956841       0.53997427      -1.10759726
C        0.65927460      -0.26031784      -1.70487923
N        1.81928744      -0.51213822      -1.60997479
H       -1.45405985      -1.59904912       0.21246872
H       -0.76282434       1.31898218       0.84452646
H        1.45248636      -0.62521773       0.76514825
H        1.63214448       1.12016745       0.66513400
H       -1.01087812       1.04645180      -1.71582868
12
Frame=14 idx=010587 GeodesicLength=0.8492384631507192 rxn_smarts="[O:1]=[C:2]([C@@:3]1([H:9])[C:4]([H:10])([H:11])[C@:5]1([C:6]#[N:7])[H:12])[H:8]>>[O:1]=[C:2]([C@@:3]1([H:9])[C:4]([H:10])([H:11])[N:7]=[C:6]=[C:5]1[H:12])[H:8]"
O       -1.43364874      -0.93568998       2.07725616
C       -1.20111173      -0.77691871       0.91098928
C       -0.44082353       0.38660751       0.37805120
C        1.07550624       0.28509731       0.28084092
C       -0.26115823       0.54356409      -1.10798799
C        0.64996931      -0.27557870      -1.72373926
N        1.80691884      -0.52782029      -1.60019526
H       -1.49310898      -1.57612202       0.19915489
H       -0.77369424       1.32023033       0.83553157
H        1.44903127      -0.61017490       0.77375963
H        1.62552080       1.12831362       0.68954204
H       -1.00340101       1.03849174      -1.71320317
12
Frame=15 idx=010587 GeodesicLength=0.9109361089121136 rxn_smarts="[O:1]=[C:2]([C@@:3]1([H:9])[C:4]([H:10])([H:11])[C@:5]1([C:6]#[N:7])[H:12])[H:8]>>[O:1]=[C:2]([C@@:3]1([H:9])[C:4]([H:10])([H:11])[N:7]=[C:6]=[C:5]1[H:12])[H:8]"
O       -1.38582528      -0.96274116       2.07758321
C       -1.19427940      -0.77846450       0.90747666
C       -0.44071316       0.38815964       0.37537512
C        1.07823350       0.29874397       0.28039021
C       -0.24290608       0.54612612      -1.10857091
C        0.64096283      -0.28958841      -1.74310699
N        1.79338123      -0.54518990      -1.58977867
H       -1.53300583      -1.55195559       0.18821371
H       -0.78495880       1.32088337       0.82601701
H        1.44601512      -0.59438663       0.78237207
H        1.61804251       1.13681841       0.71418391
H       -0.99494663       1.03159467      -1.71015532
12
Frame=16 idx=010587 GeodesicLength=0.9726482058780852 rxn_smarts="[O:1]=[C:2]([C@@:3]1([H:9])[C:4]([H:10])([H:11])[C@:5]1([C:6]#[N:7])[H:12])[H:8]>>[O:1]=[C:2]([C@@:3]1([H:9])[C:4]([H:10])([H:11])[N:7]=[C:6]=[C:5]1[H:12])[H:8]"
O       -1.33860647      -0.99021747       2.07533019
C       -1.18663782      -0.78061925       0.90366424
C       -0.44038600       0.38937842       0.37261362
C        1.08116862       0.31286384       0.27993396
C       -0.22486271       0.54785681      -1.10905367
C        0.63217851      -0.30214359      -1.76284353
N        1.77832445      -0.56456500      -1.57853462
H       -1.57227625      -1.52690842       0.17969921
H       -0.79653080       1.32083186       0.81618866
H        1.44348083      -0.57785256       0.79091595
H        1.60987056       1.14556962       0.73846501
H       -0.98572292       1.02580573      -1.70637901
