11
Frame=0 idx=009093 GeodesicLength=0.0 rxn_smarts="[O:1]=[C:2]1[C:3]([H:8])([H:9])[C:4]([H:10])=[C:5]([H:11])[C:6]1=[O:7]>>[O:1]=[C:2]1[C:3]([H:8])([H:9])[C:4]([H:10])=[C:5]=[C:6]1[O:7][H:11]"
O       -0.69842766       2.18400414       0.60806934
C       -0.36400990       1.08071680       0.30163914
C       -1.23031352      -0.14180417       0.01093078
C       -0.21036644      -1.21621695      -0.31313402
C        1.08327348      -0.81444350      -0.25831233
C        1.04786211       0.54921298       0.10387781
O        2.20457571       1.03165227       0.18360480
H       -1.84985750      -0.38423266       0.87915302
H       -1.91655805       0.06560919      -0.81499377
H       -0.54474445      -2.21886424      -0.56484142
H        2.47856624      -0.13563382      -0.13599339
11
Frame=1 idx=009093 GeodesicLength=0.03994589328731379 rxn_smarts="[O:1]=[C:2]1[C:3]([H:8])([H:9])[C:4]([H:10])=[C:5]([H:11])[C:6]1=[O:7]>>[O:1]=[C:2]1[C:3]([H:8])([H:9])[C:4]([H:10])=[C:5]=[C:6]1[O:7][H:11]"
O       -0.69752912       2.18154800       0.61810111
C       -0.36441776       1.07664802       0.31648975
C       -1.23126230      -0.14040526       0.00422634
C       -0.20980476      -1.21752302      -0.30114414
C        1.08353544      -0.81791537      -0.23720808
C        1.04983862       0.53693830       0.16234706
O        2.20030885       1.04143797       0.15801497
H       -1.87187817      -0.38216455       0.85708084
H       -1.89605494       0.07413873      -0.83719581
H       -0.54130870      -2.22172479      -0.55029050
H        2.47857283      -0.13097803      -0.19042154
11
Frame=2 idx=009093 GeodesicLength=0.08015787811426461 rxn_smarts="[O:1]=[C:2]1[C:3]([H:8])([H:9])[C:4]([H:10])=[C:5]([H:11])[C:6]1=[O:7]>>[O:1]=[C:2]1[C:3]([H:8])([H:9])[C:4]([H:10])=[C:5]=[C:6]1[O:7][H:11]"
O       -0.69595375       2.17891551       0.62700100
C       -0.36396046       1.07281587       0.32909548
C       -1.23135390      -0.13921715      -0.00123149
C       -0.20909183      -1.21833954      -0.29135976
C        1.08378380      -0.82046115      -0.22034195
C        1.05184844       0.52827352       0.20493394
O        2.19379746       1.04931938       0.14067107
H       -1.88914624      -0.38040963       0.83843542
H       -1.87770737       0.08158758      -0.85521252
H       -0.53803250      -2.22425795      -0.53654171
H        2.47581634      -0.12822643      -0.23544946
11
Frame=3 idx=009093 GeodesicLength=0.12054301185189598 rxn_smarts="[O:1]=[C:2]1[C:3]([H:8])([H:9])[C:4]([H:10])=[C:5]([H:11])[C:6]1=[O:7]>>[O:1]=[C:2]1[C:3]([H:8])([H:9])[C:4]([H:10])=[C:5]=[C:6]1[O:7][H:11]"
O       -0.69437151       2.17662702       0.63446304
C       -0.36346173       1.06955461       0.33937815
C       -1.23125733      -0.13832227      -0.00554289
C       -0.20842081      -1.21869327      -0.28356520
C        1.08390822      -0.82173780      -0.20840037
C        1.05361454       0.52229333       0.23699770
O        2.18719207       1.05588611       0.12886662
H       -1.90281447      -0.37909418       0.82311604
H       -1.86216356       0.08774073      -0.86955359
H       -0.53484479      -2.22650612      -0.52397212
H        2.47261938      -0.12774815      -0.27178739
11
Frame=4 idx=009093 GeodesicLength=0.16097413903801122 rxn_smarts="[O:1]=[C:2]1[C:3]([H:8])([H:9])[C:4]([H:10])=[C:5]([H:11])[C:6]1=[O:7]>>[O:1]=[C:2]1[C:3]([H:8])([H:9])[C:4]([H:10])=[C:5]=[C:6]1[O:7][H:11]"
O       -0.69279678       2.17446557       0.64127608
C       -0.36295261       1.06653080       0.34862875
C       -1.23102710      -0.13756221      -0.00932497
C       -0.20774273      -1.21881385      -0.27670250
C        1.08400836      -0.82249746      -0.19841036
C        1.05527028       0.51762192       0.26394872
O        2.18049401       1.06189169       0.11955875
H       -1.91471239      -0.37799497       0.80929343
H       -1.84784307       0.09329795      -0.88211219
H       -0.53170818      -2.22852393      -0.51210925
H        2.46901020      -0.12841552      -0.30404646
11
Frame=5 idx=009093 GeodesicLength=0.20145239514974367 rxn_smarts="[O:1]=[C:2]1[C:3]([H:8])([H:9])[C:4]([H:10])=[C:5]([H:11])[C:6]1=[O:7]>>[O:1]=[C:2]1[C:3]([H:8])([H:9])[C:4]([H:10])=[C:5]=[C:6]1[O:7][H:11]"
O       -0.69125600       2.17231301       0.64793967
C       -0.36244479       1.06360401       0.35744791
C       -1.23066719      -0.13686129      -0.01285741
C       -0.20702069      -1.21881513      -0.27025707
C        1.08414124      -0.82306059      -0.18908574
C        1.05688785       0.51379539       0.28780832
O        2.17367550       1.06762619       0.11148447
H       -1.92565301      -0.37699206       0.79611435
H       -1.83398048       0.09856841      -0.89374139
H       -0.52857789      -2.23037010      -0.50067243
H        2.46489544      -0.12980785      -0.33418067
11
Frame=6 idx=009093 GeodesicLength=0.24196827539557203 rxn_smarts="[O:1]=[C:2]1[C:3]([H:8])([H:9])[C:4]([H:10])=[C:5]([H:11])[C:6]1=[O:7]>>[O:1]=[C:2]1[C:3]([H:8])([H:9])[C:4]([H:10])=[C:5]=[C:6]1[O:7][H:11]"
O       -0.68974097       2.17014152       0.65454881
C       -0.36194071       1.06073434       0.36595962
C       -1.23019085      -0.13618938      -0.01628670
C       -0.20625605      -1.21874930      -0.26406264
C        1.08430703      -0.82343340      -0.18042811
C        1.05848292       0.51053234       0.30954918
O        2.16684570       1.07308462       0.10473259
H       -1.93594534      -0.37601106       0.78323382
H       -1.82031363       0.10365139      -0.90480073
H       -0.52544727      -2.23217619      -0.48915251
H        2.46019916      -0.13158488      -0.36329333
11
Frame=7 idx=009093 GeodesicLength=0.2825276688480945 rxn_smarts="[O:1]=[C:2]1[C:3]([H:8])([H:9])[C:4]([H:10])=[C:5]([H:11])[C:6]1=[O:7]>>[O:1]=[C:2]1[C:3]([H:8])([H:9])[C:4]([H:10])=[C:5]=[C:6]1[O:7][H:11]"
O       -0.68825299       2.16789130       0.66131907
C       -0.36143877       1.05786064       0.37438288
C       -1.22958753      -0.13551627      -0.01973277
C       -0.20543695      -1.21865569      -0.25796653
C        1.08452340      -0.82368351      -0.17218364
C        1.06008228       0.50768122       0.32976511
O        2.16000660       1.07834234       0.09898887
H       -1.94585638      -0.37501105       0.77031234
H       -1.80654705       0.10867532      -0.91559525
H       -0.52230342      -2.23400632      -0.47725973
H        2.45481081      -0.13357799      -0.39203036
11
Frame=8 idx=009093 GeodesicLength=0.323132041456861 rxn_smarts="[O:1]=[C:2]1[C:3]([H:8])([H:9])[C:4]([H:10])=[C:5]([H:11])[C:6]1=[O:7]>>[O:1]=[C:2]1[C:3]([H:8])([H:9])[C:4]([H:10])=[C:5]=[C:6]1[O:7][H:11]"
O       -0.68680186       2.16551343       0.66841721
C       -0.36094379       1.05495003       0.38282357
C       -1.22885300      -0.13482489      -0.02326486
C       -0.20456184      -1.21855307      -0.25189253
C        1.08479559      -0.82382610      -0.16429316
C        1.06169881       0.50515968       0.34877505
O        2.15315413       1.08346349       0.09400147
H       -1.95552869      -0.37396687       0.75715504
H       -1.79251865       0.11371006      -0.92628698
H       -0.51914571      -2.23589426      -0.46480583
H        2.44870500      -0.13573151      -0.42062898
11
Frame=9 idx=009093 GeodesicLength=0.36375454252409184 rxn_smarts="[O:1]=[C:2]1[C:3]([H:8])([H:9])[C:4]([H:10])=[C:5]([H:11])[C:6]1=[O:7]>>[O:1]=[C:2]1[C:3]([H:8])([H:9])[C:4]([H:10])=[C:5]=[C:6]1[O:7][H:11]"
O       -0.68541079       2.16312905       0.67543377
C       -0.36047541       1.05209583       0.39098133
C       -1.22803700      -0.13415514      -0.02672786
C       -0.20365269      -1.21837865      -0.24605271
C        1.08509330      -0.82379014      -0.15693950
C        1.06330182       0.50294391       0.36669948
O        2.14629993       1.08848965       0.08966047
H       -1.96468924      -0.37294957       0.74421540
H       -1.77866500       0.11859663      -0.93651834
H       -0.51598536      -2.23769315      -0.45238024
H        2.44222046      -0.13828842      -0.44837180
11
Frame=10 idx=009093 GeodesicLength=0.4043949956720673 rxn_smarts="[O:1]=[C:2]1[C:3]([H:8])([H:9])[C:4]([H:10])=[C:5]([H:11])[C:6]1=[O:7]>>[O:1]=[C:2]1[C:3]([H:8])([H:9])[C:4]([H:10])=[C:5]=[C:6]1[O:7][H:11]"
O       -0.68408416       2.16069439       0.68251207
C       -0.36003616       1.04926941       0.39893990
C       -1.22714444      -0.13349049      -0.03018985
C       -0.20271206      -1.21813549      -0.24044805
C        1.08541740      -0.82357819      -0.15012392
C        1.06489361       0.50098010       0.38370282
O        2.13944858       1.09345173       0.08588442
H       -1.97344894      -0.37195496       0.73134020
H       -1.76488952       0.12341168      -0.94642202
H       -0.51282182      -2.23945485      -0.43972083
H        2.43537752      -0.14119334      -0.47547474
11
Frame=11 idx=009093 GeodesicLength=0.44506269662589126 rxn_smarts="[O:1]=[C:2]1[C:3]([H:8])([H:9])[C:4]([H:10])=[C:5]([H:11])[C:6]1=[O:7]>>[O:1]=[C:2]1[C:3]([H:8])([H:9])[C:4]([H:10])=[C:5]=[C:6]1[O:7][H:11]"
O       -0.68282055       2.15816663       0.68978030
C       -0.35962148       1.04642863       0.40682528
C       -1.22616159      -0.13281477      -0.03371783
C       -0.20173273      -1.21784726      -0.23500168
C        1.08577740      -0.82321922      -0.14375289
C        1.06648824       0.49921396       0.39996285
O        2.13259075       1.09837189       0.08260377
H       -1.98193597      -0.37095891       0.71833676
H       -1.75102245       0.12822914      -0.95615147
H       -0.50965207      -2.24121809      -0.42661176
H        2.42809044      -0.14435200      -0.50227332
11
Frame=12 idx=009093 GeodesicLength=0.48576979794671665 rxn_smarts="[O:1]=[C:2]1[C:3]([H:8])([H:9])[C:4]([H:10])=[C:5]([H:11])[C:6]1=[O:7]>>[O:1]=[C:2]1[C:3]([H:8])([H:9])[C:4]([H:10])=[C:5]=[C:6]1[O:7][H:11]"
O       -0.68162429       2.15549680       0.69738285
C       -0.35922896       1.04353139       0.41476010
C       -1.22506889      -0.13211121      -0.03737760
C       -0.20070481      -1.21753319      -0.22964646
C        1.08618630      -0.82274591      -0.13771750
C        1.06810251       0.49760924       0.41561395
O        2.12570447       1.10327664       0.07971360
H       -1.99025957      -0.36993958       0.70501250
H       -1.73689269       0.13312344      -0.96584444
H       -0.50647126      -2.24301058      -0.41285378
H        2.42025720      -0.14769703      -0.52904323
11
Frame=13 idx=009093 GeodesicLength=0.5265285297456286 rxn_smarts="[O:1]=[C:2]1[C:3]([H:8])([H:9])[C:4]([H:10])=[C:5]([H:11])[C:6]1=[O:7]>>[O:1]=[C:2]1[C:3]([H:8])([H:9])[C:4]([H:10])=[C:5]=[C:6]1[O:7][H:11]"
O       -0.68050302       2.15263680       0.70544849
C       -0.35885834       1.04053904       0.42284313
C       -1.22384734      -0.13136647      -0.04122463
C       -0.19962082      -1.21720965      -0.22432971
C        1.08665415      -0.82217723      -0.13196159
C        1.06975173       0.49613697       0.43075187
O        2.11876270       1.10819352       0.07711658
H       -1.99849957      -0.36887680       0.69120388
H       -1.72235285       0.13815734      -0.97560689
H       -0.50328078      -2.24484938      -0.39826701
H        2.41179415      -0.15118414      -0.55597413
11
Frame=14 idx=009093 GeodesicLength=0.5673523005658678 rxn_smarts="[O:1]=[C:2]1[C:3]([H:8])([H:9])[C:4]([H:10])=[C:5]([H:11])[C:6]1=[O:7]>>[O:1]=[C:2]1[C:3]([H:8])([H:9])[C:4]([H:10])=[C:5]=[C:6]1[O:7][H:11]"
O       -0.67946495       2.14954224       0.71408516
C       -0.35850970       1.03741901       0.43114443
C       -1.22247602      -0.13056886      -0.04531034
C       -0.19847283      -1.21688877      -0.21901940
C        1.08719108      -0.82153028      -0.12643757
C        1.07144891       0.49477193       0.44545606
O        2.11174676       1.11313834       0.07475496
H       -2.00670729      -0.36775318       0.67676843
H       -1.70727598       0.14338264      -0.98552219
H       -0.50008134      -2.24674283      -0.38268094
H        2.40260137      -0.15477023      -0.58323859
11
Frame=15 idx=009093 GeodesicLength=0.6082546121715002 rxn_smarts="[O:1]=[C:2]1[C:3]([H:8])([H:9])[C:4]([H:10])=[C:5]([H:11])[C:6]1=[O:7]>>[O:1]=[C:2]1[C:3]([H:8])([H:9])[C:4]([H:10])=[C:5]=[C:6]1[O:7][H:11]"
O       -0.67852370       2.14615776       0.72342702
C       -0.35818706       1.03413524       0.43973445
C       -1.22093512      -0.12970679      -0.04968492
C       -0.19725686      -1.21658144      -0.21369125
C        1.08780358      -0.82081060      -0.12114462
C        1.07320604       0.49349730       0.45976566
O        2.10462878       1.11813694       0.07254610
H       -2.01493196      -0.36655008       0.66155885
H       -1.69153463       0.14885207      -0.99566501
H       -0.49687769      -2.24869420      -0.36590353
H        2.39260862      -0.15843620      -0.61094275
11
Frame=16 idx=009093 GeodesicLength=0.6491956741376995 rxn_smarts="[O:1]=[C:2]1[C:3]([H:8])([H:9])[C:4]([H:10])=[C:5]([H:11])[C:6]1=[O:7]>>[O:1]=[C:2]1[C:3]([H:8])([H:9])[C:4]([H:10])=[C:5]=[C:6]1[O:7][H:11]"
O       -0.67768640       2.14263427       0.73299357
C       -0.35790259       1.03079720       0.44829343
C       -1.21928600      -0.12882861      -0.05416205
C       -0.19599431      -1.21623916      -0.20850369
C        1.08846159      -0.81996504      -0.11619441
C        1.07497565       0.49233047       0.47365910
O        2.09746577       1.12317307       0.07062634
H       -2.02290847      -0.36533202       0.64610146
H       -1.67560213       0.15436741      -1.00567246
H       -0.49366744      -2.25055070      -0.34863010
H        2.38214435      -0.16238691      -0.63851120
