17
Frame=0 idx=009578 GeodesicLength=0.0 rxn_smarts="[C:1]1([H:8])([H:9])[C:2]([H:10])([H:11])[C:3]12[C:4]([H:12])([H:13])[C@@:5]1([H:14])[C:6]([H:15])([H:16])[C@@:7]21[H:17]>>[C:1]1([H:8])([H:9])[C:2]([H:10])([H:11])[C:3]1([C:4](=[C:5]([H:12])[H:14])[H:13])[C:7](=[C:6]([H:15])[H:16])[H:17]"
C       -2.00869073      -0.24244034      -0.10836024
C       -1.31178074       0.96337271      -0.65944021
C       -0.51229142      -0.20050470      -0.17604434
C        0.43998782      -0.97006491      -1.00549383
C        1.42430167      -0.98380668       0.05482434
C        1.36311362       1.15198817       0.94040241
C        0.55254149      -0.04279997       0.95092030
H       -2.53887313      -0.89108701      -0.79549857
H       -2.44957341      -0.16971181       0.87780853
H       -1.36895777       1.14343336      -1.72571502
H       -1.21841199       1.85253969      -0.04149526
H        0.77746971      -1.98506833       0.01145683
H        0.50525640      -1.13771558      -2.07348620
H        2.50004884      -1.11790189       0.00900965
H        1.57521072       1.64871310       0.00200795
H        1.96887298       1.40313756       1.79933714
H        0.30177597      -0.42208345       1.93976649
17
Frame=1 idx=009578 GeodesicLength=0.0960967309298101 rxn_smarts="[C:1]1([H:8])([H:9])[C:2]([H:10])([H:11])[C:3]12[C:4]([H:12])([H:13])[C@@:5]1([H:14])[C:6]([H:15])([H:16])[C@@:7]21[H:17]>>[C:1]1([H:8])([H:9])[C:2]([H:10])([H:11])[C:3]1([C:4](=[C:5]([H:12])[H:14])[H:13])[C:7](=[C:6]([H:15])[H:16])[H:17]"
C       -2.00270802      -0.24773860      -0.10417960
C       -1.31955941       0.96391746      -0.66120523
C       -0.50780032      -0.18863649      -0.17331333
C        0.44367831      -0.96354246      -1.00195630
C        1.42318718      -1.00217610       0.05913568
C        1.37535848       1.14668048       0.93136329
C        0.54367030      -0.02939583       0.96015609
H       -2.51985771      -0.91260844      -0.78567381
H       -2.44601822      -0.17273063       0.88073221
H       -1.38087773       1.13675754      -1.72844539
H       -1.23351196       1.85740138      -0.04888129
H        0.75136858      -2.00291235      -0.00264474
H        0.53955190      -1.07967136      -2.07464615
H        2.49486126      -1.16425109       0.01510909
H        1.56344147       1.65746250      -0.00463125
H        1.98256306       1.40299689       1.78780909
H        0.29265283      -0.40155289       1.95127165
17
Frame=2 idx=009578 GeodesicLength=0.1922507755893952 rxn_smarts="[C:1]1([H:8])([H:9])[C:2]([H:10])([H:11])[C:3]12[C:4]([H:12])([H:13])[C@@:5]1([H:14])[C:6]([H:15])([H:16])[C@@:7]21[H:17]>>[C:1]1([H:8])([H:9])[C:2]([H:10])([H:11])[C:3]1([C:4](=[C:5]([H:12])[H:14])[H:13])[C:7](=[C:6]([H:15])[H:16])[H:17]"
C       -1.99645179      -0.25306023      -0.09998372
C       -1.32729670       0.96422352      -0.66322378
C       -0.50320376      -0.17667704      -0.17062078
C        0.44763018      -0.95660008      -0.99869295
C        1.42188396      -1.02058846       0.06299801
C        1.38780978       1.14106254       0.92226888
C        0.53479192      -0.01524516       0.96924047
H       -2.50037622      -0.93391397      -0.77553159
H       -2.44225999      -0.17569845       0.88362144
H       -1.39270819       1.12954166      -1.73141514
H       -1.24887211       1.86209862      -0.05676465
H        0.72508684      -2.02032856      -0.01868416
H        0.57375562      -1.02275925      -2.07272631
H        2.48866750      -1.21096215       0.02042987
H        1.55142898       1.66722699      -0.00985283
H        1.99619840       1.40240200       1.77643714
H        0.28391558      -0.38072200       1.96250010
17
Frame=3 idx=009578 GeodesicLength=0.28846320174453427 rxn_smarts="[C:1]1([H:8])([H:9])[C:2]([H:10])([H:11])[C:3]12[C:4]([H:12])([H:13])[C@@:5]1([H:14])[C:6]([H:15])([H:16])[C@@:7]21[H:17]>>[C:1]1([H:8])([H:9])[C:2]([H:10])([H:11])[C:3]1([C:4](=[C:5]([H:12])[H:14])[H:13])[C:7](=[C:6]([H:15])[H:16])[H:17]"
C       -1.98991708      -0.25839392      -0.09574588
C       -1.33497388       0.96426225      -0.66551972
C       -0.49850183      -0.16463088      -0.16793616
C        0.45184555      -0.94926312      -0.99564456
C        1.42039738      -1.03904336       0.06642149
C        1.40044308       1.13514902       0.91313265
C        0.52590768      -0.00029981       0.97819224
H       -2.48042926      -0.95500403      -0.76502645
H       -2.43829961      -0.17856520       0.88649593
H       -1.40440572       1.12171210      -1.73465062
H       -1.26449136       1.86661751      -0.06520944
H        0.69867187      -2.03728497      -0.03669807
H        0.60776601      -0.96711825      -2.06793156
H        2.48144515      -1.25798715       0.02491065
H        1.53918520       1.67807475      -0.01349189
H        2.00978869       1.40134175       1.76522761
H        0.27556813      -0.35956670       1.97347379
17
Frame=4 idx=009578 GeodesicLength=0.38473469439894376 rxn_smarts="[C:1]1([H:8])([H:9])[C:2]([H:10])([H:11])[C:3]12[C:4]([H:12])([H:13])[C@@:5]1([H:14])[C:6]([H:15])([H:16])[C@@:7]21[H:17]>>[C:1]1([H:8])([H:9])[C:2]([H:10])([H:11])[C:3]1([C:4](=[C:5]([H:12])[H:14])[H:13])[C:7](=[C:6]([H:15])[H:16])[H:17]"
C       -1.98310246      -0.26373105      -0.09143756
C       -1.34257857       0.96400153      -0.66811870
C       -0.49369777      -0.15250210      -0.16523156
C        0.45631911      -0.94156582      -0.99275037
C        1.41872926      -1.05754067       0.06941772
C        1.41322233       1.12896096       0.90396331
C        0.51701360       0.01549330       0.98702729
H       -2.46002113      -0.97588337      -0.75410675
H       -2.43414124      -0.18128240       0.88937636
H       -1.41593504       1.11319068      -1.73817843
H       -1.28037373       1.87094004      -0.07428510
H        0.67216985      -2.05374680      -0.05671617
H        0.64151145      -0.91284267      -2.06045623
H        2.47317146      -1.30527475       0.02849568
H        1.52674116       1.69005755      -0.01538017
H        2.02336251       1.39978311       1.75416953
H        0.26760923      -0.33805753       1.98421116
17
Frame=5 idx=009578 GeodesicLength=0.481066968874046 rxn_smarts="[C:1]1([H:8])([H:9])[C:2]([H:10])([H:11])[C:3]12[C:4]([H:12])([H:13])[C@@:5]1([H:14])[C:6]([H:15])([H:16])[C@@:7]21[H:17]>>[C:1]1([H:8])([H:9])[C:2]([H:10])([H:11])[C:3]1([C:4](=[C:5]([H:12])[H:14])[H:13])[C:7](=[C:6]([H:15])[H:16])[H:17]"
C       -1.97600926      -0.26906511      -0.08702999
C       -1.35010452       0.96340748      -0.67104778
C       -0.48879753      -0.14029289      -0.16248225
C        0.46104054      -0.93354555      -0.98995066
C        1.41688022      -1.07607665       0.07199843
C        1.42609656       1.12252921       0.89476895
C        0.50809981       0.03219260       0.99575915
H       -2.43915880      -0.99655869      -0.74271825
H       -2.42979251      -0.18380431       0.89228306
H       -1.42726755       1.10389782      -1.74202519
H       -1.29652903       1.87504516      -0.08406463
H        0.64562889      -2.06967353      -0.07876423
H        0.67493864      -0.86000839      -2.05048006
H        2.46382691      -1.35276290       0.03113428
H        1.51414325       1.70321405      -0.01534583
H        2.03697206       1.39766417       1.74323764
H        0.26003234      -0.31616244       1.99472736
17
Frame=6 idx=009578 GeodesicLength=0.5774655986763199 rxn_smarts="[C:1]1([H:8])([H:9])[C:2]([H:10])([H:11])[C:3]12[C:4]([H:12])([H:13])[C@@:5]1([H:14])[C:6]([H:15])([H:16])[C@@:7]21[H:17]>>[C:1]1([H:8])([H:9])[C:2]([H:10])([H:11])[C:3]1([C:4](=[C:5]([H:12])[H:14])[H:13])[C:7](=[C:6]([H:15])[H:16])[H:17]"
C       -1.96864237      -0.27439302      -0.08249207
C       -1.35755339       0.96244147      -0.67433642
C       -0.48381099      -0.12800393      -0.15966572
C        0.46599703      -0.92523826      -0.98718652
C        1.41484847      -1.09464333       0.07417850
C        1.43899343       1.11589939       0.88556019
C        0.49914772       0.04986258       1.00440038
H       -2.41785147      -1.01704423      -0.73079804
H       -2.42526546      -0.18608602       0.89523711
H       -1.43838456       1.09374554      -1.74621841
H       -1.31297204       1.87890806      -0.09462994
H        0.61909856      -2.08501769      -0.10286820
H        0.70801506      -0.80864837      -2.03816079
H        2.45339428      -1.40037744       0.03277964
H        1.50147291       1.71755216      -0.01322640
H        2.05069052       1.39488908       1.73239211
H        0.25282228      -0.29384598       2.00503458
17
Frame=7 idx=009578 GeodesicLength=0.6739369720328684 rxn_smarts="[C:1]1([H:8])([H:9])[C:2]([H:10])([H:11])[C:3]12[C:4]([H:12])([H:13])[C@@:5]1([H:14])[C:6]([H:15])([H:16])[C@@:7]21[H:17]>>[C:1]1([H:8])([H:9])[C:2]([H:10])([H:11])[C:3]1([C:4](=[C:5]([H:12])[H:14])[H:13])[C:7](=[C:6]([H:15])[H:16])[H:17]"
C       -1.96100924      -0.27971409      -0.07779394
C       -1.36493517       0.96106430      -0.67801362
C       -0.47875092      -0.11563085      -0.15676276
C        0.47117402      -0.91667423      -0.98440166
C        1.41263404      -1.11322330       0.07597221
C        1.45182423       1.10913137       0.87635117
C        0.49013125       0.06857489       1.01296088
H       -2.39610681      -1.03735455      -0.71828561
H       -2.42057653      -0.18808972       0.89825728
H       -1.44927628       1.08264686      -1.75078294
H       -1.32972629       1.88249970      -0.10606256
H        0.59263472      -2.09972025      -0.12905414
H        0.74070895      -0.75880083      -2.02364539
H        2.44186408      -1.44803066       0.03339908
H        1.48883435       1.73306640      -0.00886518
H        2.06461874       1.39132504       1.72158636
H        0.24595685      -0.27107007       2.01514081
17
Frame=8 idx=009578 GeodesicLength=0.7704938637569752 rxn_smarts="[C:1]1([H:8])([H:9])[C:2]([H:10])([H:11])[C:3]12[C:4]([H:12])([H:13])[C@@:5]1([H:14])[C:6]([H:15])([H:16])[C@@:7]21[H:17]>>[C:1]1([H:8])([H:9])[C:2]([H:10])([H:11])[C:3]1([C:4](=[C:5]([H:12])[H:14])[H:13])[C:7](=[C:6]([H:15])[H:16])[H:17]"
C       -1.95312002      -0.28503171      -0.07290387
C       -1.37226761       0.95923434      -0.68210513
C       -0.47363418      -0.10316724      -0.15375505
C        0.47655597      -0.90787794      -0.98154204
C        1.41023599      -1.13179553       0.07739668
C        1.46448073       1.10230142       0.86716052
C        0.48101569       0.08840617       1.02145054
H       -2.37393147      -1.05751016      -0.70511622
H       -2.41574661      -0.18978372       0.90136305
H       -1.45994250       1.07051380      -1.75573852
H       -1.34681853       1.88578726      -0.11844309
H        0.56629604      -2.11371465      -0.15735250
H        0.77300044      -0.71046859      -2.00706238
H        2.42923137      -1.49562556       0.03296608
H        1.47638350       1.74970420      -0.00214436
H        2.07885551       1.38682304       1.71077385
H        0.23940568      -0.24779510       2.02505244
17
Frame=9 idx=009578 GeodesicLength=0.8671595245744257 rxn_smarts="[C:1]1([H:8])([H:9])[C:2]([H:10])([H:11])[C:3]12[C:4]([H:12])([H:13])[C@@:5]1([H:14])[C:6]([H:15])([H:16])[C@@:7]21[H:17]>>[C:1]1([H:8])([H:9])[C:2]([H:10])([H:11])[C:3]1([C:4](=[C:5]([H:12])[H:14])[H:13])[C:7](=[C:6]([H:15])[H:16])[H:17]"
C       -1.94498707      -0.29035213      -0.06778910
C       -1.37957098       0.95691242      -0.68663420
C       -0.46847975      -0.09060436      -0.15062584
C        0.48212393      -0.89887066      -0.97856019
C        1.40765709      -1.15033531       0.07846540
C        1.47684728       1.09550031       0.85801746
C        0.47176197       0.10943525       1.02988173
H       -2.35133407      -1.07753463      -0.69122637
H       -2.41079983      -0.19114376       0.90457718
H       -1.47038681       1.05726475      -1.76110375
H       -1.36427180       1.88873924      -0.13184717
H        0.54014581      -2.12693064      -0.18779739
H        0.80486049      -0.66366026      -1.98853941
H        2.41550107      -1.54305815       0.03145561
H        1.46431327       1.76738993       0.00701564
H        2.09348464       1.38123587       1.69993060
H        0.23313475      -0.22398786       2.03477980
17
Frame=10 idx=009578 GeodesicLength=0.9639958538723185 rxn_smarts="[C:1]1([H:8])([H:9])[C:2]([H:10])([H:11])[C:3]12[C:4]([H:12])([H:13])[C@@:5]1([H:14])[C:6]([H:15])([H:16])[C@@:7]21[H:17]>>[C:1]1([H:8])([H:9])[C:2]([H:10])([H:11])[C:3]1([C:4](=[C:5]([H:12])[H:14])[H:13])[C:7](=[C:6]([H:15])[H:16])[H:17]"
C       -1.93662973      -0.29569404      -0.06241516
C       -1.38687024       0.95406890      -0.69163370
C       -0.46331003      -0.07793435      -0.14736079
C        0.48784836      -0.88967832      -0.97542703
C        1.40490188      -1.16883022       0.07919245
C        1.48881941       1.08884522       0.84897733
C        0.46233542       0.13174296       1.03828475
H       -2.32833681      -1.09748019      -0.67655578
H       -2.40576253      -0.19215936       0.90793810
H       -1.48062896       1.04282857      -1.76692302
H       -1.38209690       1.89134677      -0.14635531
H        0.51424159      -2.13932213      -0.22043404
H        0.83624121      -0.61836937      -1.96822730
H        2.40068464      -1.59023858       0.02883846
H        1.45287253       1.78604434       0.01864680
H        2.10857123       1.37445818       1.68908934
H        0.22711891      -0.19962838       2.04436491
17
Frame=11 idx=009578 GeodesicLength=1.060915929235833 rxn_smarts="[C:1]1([H:8])([H:9])[C:2]([H:10])([H:11])[C:3]12[C:4]([H:12])([H:13])[C@@:5]1([H:14])[C:6]([H:15])([H:16])[C@@:7]21[H:17]>>[C:1]1([H:8])([H:9])[C:2]([H:10])([H:11])[C:3]1([C:4](=[C:5]([H:12])[H:14])[H:13])[C:7](=[C:6]([H:15])[H:16])[H:17]"
C       -1.92802565      -0.30099579      -0.05672983
C       -1.39416844       0.95062643      -0.69703599
C       -0.45813458      -0.06513519      -0.14392405
C        0.49375702      -0.88026835      -0.97203127
C        1.40199239      -1.18721245       0.07957005
C        1.50019460       1.08233600       0.84002088
C        0.45264965       0.15539028       1.04658955
H       -2.30487200      -1.11722521      -0.66098597
H       -2.40065277      -0.19274204       0.91141709
H       -1.49061657       1.02709443      -1.77303553
H       -1.40032758       1.89346460      -0.16198020
H        0.48871413      -2.15068342      -0.25531381
H        0.86718791      -0.57457492      -1.94606495
H        2.38481292      -1.63702090       0.02505546
H        1.44227949       1.80530908       0.03262534
H        2.12394830       1.36631141       1.67815890
H        0.22126118      -0.17467398       2.05366434
17
Frame=12 idx=009578 GeodesicLength=1.1580342064025595 rxn_smarts="[C:1]1([H:8])([H:9])[C:2]([H:10])([H:11])[C:3]12[C:4]([H:12])([H:13])[C@@:5]1([H:14])[C:6]([H:15])([H:16])[C@@:7]21[H:17]>>[C:1]1([H:8])([H:9])[C:2]([H:10])([H:11])[C:3]1([C:4](=[C:5]([H:12])[H:14])[H:13])[C:7](=[C:6]([H:15])[H:16])[H:17]"
C       -1.91922911      -0.30633188      -0.05073726
C       -1.40148403       0.94663509      -0.70292473
C       -0.45297949      -0.05218820      -0.14031492
C        0.49975869      -0.87069307      -0.96841618
C        1.39895390      -1.20546951       0.07960276
C        1.51097658       1.07619436       0.83133400
C        0.44271031       0.18047772       1.05494729
H       -2.28100906      -1.13697378      -0.64452534
H       -2.39552279      -0.19299738       0.91508281
H       -1.50038027       1.01012195      -1.77962696
H       -1.41893960       1.89521206      -0.17878276
H        0.46357073      -2.16101590      -0.29241948
H        0.89743861      -0.53250406      -1.92251737
H        2.36793610      -1.68329255       0.02013276
H        1.43284536       1.82525081       0.04889714
H        2.13974871       1.35680335       1.66739279
H        0.21560535      -0.14922903       2.06287548
17
Frame=13 idx=009578 GeodesicLength=1.2551196413221575 rxn_smarts="[C:1]1([H:8])([H:9])[C:2]([H:10])([H:11])[C:3]12[C:4]([H:12])([H:13])[C@@:5]1([H:14])[C:6]([H:15])([H:16])[C@@:7]21[H:17]>>[C:1]1([H:8])([H:9])[C:2]([H:10])([H:11])[C:3]1([C:4](=[C:5]([H:12])[H:14])[H:13])[C:7](=[C:6]([H:15])[H:16])[H:17]"
C       -1.91017549      -0.31156805      -0.04432613
C       -1.40881611       0.94190398      -0.70911159
C       -0.44784704      -0.03911655      -0.13647939
C        0.50593707      -0.86091450      -0.96437282
C        1.39580800      -1.22355325       0.07926886
C        1.52091922       1.07018063       0.82273391
C        0.43239234       0.20699153       1.06308648
H       -2.25666070      -1.15633003      -0.62699344
H       -2.39034654      -0.19270469       0.91885727
H       -1.50988281       0.99164897      -1.78626861
H       -1.43794129       1.89622610      -0.19673385
H        0.43901592      -2.16996896      -0.33184629
H        0.92730010      -0.49170466      -1.89705744
H        2.35007011      -1.72897343       0.01392955
H        1.42486201       1.84511479       0.06720342
H        2.15540357       1.34586971       1.65653680
H        0.20996164      -0.12310160       2.07157327
17
Frame=14 idx=009578 GeodesicLength=1.3525108959716554 rxn_smarts="[C:1]1([H:8])([H:9])[C:2]([H:10])([H:11])[C:3]12[C:4]([H:12])([H:13])[C@@:5]1([H:14])[C:6]([H:15])([H:16])[C@@:7]21[H:17]>>[C:1]1([H:8])([H:9])[C:2]([H:10])([H:11])[C:3]1([C:4](=[C:5]([H:12])[H:14])[H:13])[C:7](=[C:6]([H:15])[H:16])[H:17]"
C       -1.90093211      -0.31685335      -0.03749349
C       -1.41617979       0.93653625      -0.71568840
C       -0.44276753      -0.02591159      -0.13241365
C        0.51218369      -0.85100007      -0.96004134
C        1.39255226      -1.24155632       0.07858010
C        1.53009329       1.06461958       0.81451401
C        0.42173203       0.23505361       1.07124639
H       -2.23193440      -1.17563209      -0.60845956
H       -2.38517137      -0.19208767       0.92290468
H       -1.51915492       0.97183454      -1.79323979
H       -1.45728198       1.89673139      -0.21583030
H        0.41497787      -2.17771719      -0.37369293
H        0.95654489      -0.45232413      -1.87023522
H        2.33119857      -1.77414699       0.00646192
H        1.41876023       1.86502250       0.08717517
H        2.17098328       1.33382561       1.64606573
H        0.20439598      -0.09639410       2.08014667
17
Frame=15 idx=009578 GeodesicLength=1.4501564501359472 rxn_smarts="[C:1]1([H:8])([H:9])[C:2]([H:10])([H:11])[C:3]12[C:4]([H:12])([H:13])[C@@:5]1([H:14])[C:6]([H:15])([H:16])[C@@:7]21[H:17]>>[C:1]1([H:8])([H:9])[C:2]([H:10])([H:11])[C:3]1([C:4](=[C:5]([H:12])[H:14])[H:13])[C:7](=[C:6]([H:15])[H:16])[H:17]"
C       -1.89146757      -0.32213811      -0.03018298
C       -1.42356899       0.93047228      -0.72257394
C       -0.43773936      -0.01255127      -0.12808385
C        0.51851988      -0.84092162      -0.95533773
C        1.38920807      -1.25946372       0.07751510
C        1.53841134       1.05944414       0.80671096
C        0.41066111       0.26472119       1.07935664
H       -2.20674285      -1.19479159      -0.58879881
H       -2.37999766      -0.19108863       0.92721205
H       -1.52817065       0.95059506      -1.80037585
H       -1.47697299       1.89659804      -0.23604926
H        0.39156066      -2.18401719      -0.41803939
H        0.98521230      -0.41429539      -1.84200146
H        2.31132574      -1.81877458      -0.00232753
H        1.41476210       1.88461329       0.10848897
H        2.18619177       1.32065818       1.63603515
H        0.19880711      -0.06906008       2.08845194
17
Frame=16 idx=009578 GeodesicLength=1.5480632273976918 rxn_smarts="[C:1]1([H:8])([H:9])[C:2]([H:10])([H:11])[C:3]12[C:4]([H:12])([H:13])[C@@:5]1([H:14])[C:6]([H:15])([H:16])[C@@:7]21[H:17]>>[C:1]1([H:8])([H:9])[C:2]([H:10])([H:11])[C:3]1([C:4](=[C:5]([H:12])[H:14])[H:13])[C:7](=[C:6]([H:15])[H:16])[H:17]"
C       -1.88176604      -0.32741600      -0.02234780
C       -1.43097728       0.92367495      -0.72970932
C       -0.43276309       0.00097858      -0.12346359
C        0.52494187      -0.83067516      -0.95021992
C        1.38578934      -1.27729389       0.07605233
C        1.54584819       1.05462890       0.79941294
C        0.39913959       0.29606279       1.08738399
H       -2.18103737      -1.21378791      -0.56793010
H       -2.37482740      -0.18971710       0.93179912
H       -1.53691456       0.92789128      -1.80757922
H       -1.49701213       1.89574208      -0.25735414
H        0.36882605      -2.18867765      -0.46497381
H        1.01330829      -0.37756672      -1.81238436
H        2.29043196      -1.86286759      -0.01249282
H        1.41311839       1.90361748       0.13077622
H        2.20078048       1.30645529       1.62660397
H        0.19311372      -0.04104932       2.09642649
