12
Frame=0 idx=002574 GeodesicLength=0.0 rxn_smarts="[N:1]1([H:7])[C@@:2]2([H:8])[C@:3]1([H:9])[C@@:4]1([H:10])[N:5]([H:11])[C@@:6]21[H:12]>>[N:1]1([H:7])[C@:3]2([H:9])[C:2]([H:8])=[C:6]([H:12])[N:5]([H:11])[C@:4]12[H:10]"
N       -1.37935489      -1.29460141       0.13369590
C        0.14135167      -0.10780208      -1.15569042
C       -1.01691337       0.00632226      -0.25727226
C       -0.20666389       0.77777933       0.78430278
N        0.99559883       0.13121915       1.09648960
C        1.18105542       0.33121328      -0.33314607
H       -0.61175876      -1.70713778       0.65991848
H        0.17460624      -0.30187629      -2.21865898
H       -1.85143300       0.58857941      -0.65048258
H       -0.45410657       1.70376253       1.29498029
H        0.89283632      -0.85880074       1.29782749
H        2.13478200       0.73134229      -0.65196423
12
Frame=1 idx=002574 GeodesicLength=0.07573576135895732 rxn_smarts="[N:1]1([H:7])[C@@:2]2([H:8])[C@:3]1([H:9])[C@@:4]1([H:10])[N:5]([H:11])[C@@:6]21[H:12]>>[N:1]1([H:7])[C@:3]2([H:9])[C:2]([H:8])=[C:6]([H:12])[N:5]([H:11])[C@:4]12[H:10]"
N       -1.36561159      -1.26927834       0.13867577
C        0.13955028      -0.12808501      -1.15340248
C       -1.02464578       0.03112020      -0.27152669
C       -0.21259676       0.76579735       0.79057565
N        0.99907250       0.13031713       1.09340282
C        1.17485748       0.33462215      -0.33324155
H       -0.60185789      -1.70239523       0.65176529
H        0.17700764      -0.32847223      -2.21493362
H       -1.85878018       0.60934158      -0.66765878
H       -0.46556206       1.68115803       1.31725287
H        0.91140345      -0.85813244       1.30615180
H        2.12716290       0.73400680      -0.65706108
12
Frame=2 idx=002574 GeodesicLength=0.15144837850839316 rxn_smarts="[N:1]1([H:7])[C@@:2]2([H:8])[C@:3]1([H:9])[C@@:4]1([H:10])[N:5]([H:11])[C@@:6]21[H:12]>>[N:1]1([H:7])[C@:3]2([H:9])[C:2]([H:8])=[C:6]([H:12])[N:5]([H:11])[C@:4]12[H:10]"
N       -1.35149833      -1.24415559       0.14308471
C        0.13743822      -0.14748165      -1.15092077
C       -1.03141005       0.05552106      -0.28571801
C       -0.21855840       0.75376209       0.79643547
N        1.00243040       0.12968019       1.09033139
C        1.16878031       0.33758755      -0.33339173
H       -0.59297395      -1.69779532       0.64412459
H        0.17888637      -0.35389610      -2.21102555
H       -1.86572307       0.62937080      -0.68424018
H       -0.47720549       1.65823566       1.33873156
H        0.93008568      -0.85680741       1.31479966
H        2.11974830       0.73597872      -0.66221114
12
Frame=3 idx=002574 GeodesicLength=0.22711822854856223 rxn_smarts="[N:1]1([H:7])[C@@:2]2([H:8])[C@:3]1([H:9])[C@@:4]1([H:10])[N:5]([H:11])[C@@:6]21[H:12]>>[N:1]1([H:7])[C@:3]2([H:9])[C:2]([H:8])=[C:6]([H:12])[N:5]([H:11])[C@:4]12[H:10]"
N       -1.33704178      -1.21938798       0.14688742
C        0.13500623      -0.16593283      -1.14830015
C       -1.03725322       0.07946565      -0.29974417
C       -0.22452456       0.74175746       0.80185760
N        1.00564382       0.12929076       1.08731652
C        1.16287850       0.34006292      -0.33356714
H       -0.58501736      -1.69337787       0.63696169
H        0.18020286      -0.37796959      -2.20702329
H       -1.87234239       0.64856428      -0.70012595
H       -0.48896890       1.63517262       1.35927270
H        0.94878653      -0.85481360       1.32382557
H        2.11263026       0.73716817      -0.66736081
12
Frame=4 idx=002574 GeodesicLength=0.3027470272639377 rxn_smarts="[N:1]1([H:7])[C@@:2]2([H:8])[C@:3]1([H:9])[C@@:4]1([H:10])[N:5]([H:11])[C@@:6]21[H:12]>>[N:1]1([H:7])[C@:3]2([H:9])[C:2]([H:8])=[C:6]([H:12])[N:5]([H:11])[C@:4]12[H:10]"
N       -1.32224466      -1.19507401       0.15005708
C        0.13227881      -0.18341250      -1.14558801
C       -1.04223647       0.10288869      -0.31349106
C       -0.23042598       0.72984175       0.80683143
N        1.00866012       0.12916597       1.08437497
C        1.15712925       0.34200839      -0.33370767
H       -0.57789063      -1.68909087       0.63013933
H        0.18096810      -0.40062410      -2.20299354
H       -1.87869505       0.66681939      -0.71521359
H       -0.50072819       1.61209638       1.37878844
H        0.96741861      -0.85208358       1.33320147
H        2.10576608       0.73746449      -0.67239886
12
Frame=5 idx=002574 GeodesicLength=0.378355265655306 rxn_smarts="[N:1]1([H:7])[C@@:2]2([H:8])[C@:3]1([H:9])[C@@:4]1([H:10])[N:5]([H:11])[C@@:6]21[H:12]>>[N:1]1([H:7])[C@:3]2([H:9])[C:2]([H:8])=[C:6]([H:12])[N:5]([H:11])[C@:4]12[H:10]"
N       -1.30718997      -1.17130233       0.15259403
C        0.12921914      -0.19991942      -1.14282508
C       -1.04638853       0.12579530      -0.32694161
C       -0.23628543       0.71808710       0.81135672
N        1.01150756       0.12924348       1.08152319
C        1.15162893       0.34346677      -0.33383327
H       -0.57154013      -1.68499323       0.62367389
H        0.18113192      -0.42187927      -2.19896615
H       -1.88480482       0.68413715      -0.72950301
H       -0.51251578       1.58909960       1.39729678
H        0.98592671      -0.84868297       1.34297577
H        2.09931039       0.73694780      -0.67735127
12
Frame=6 idx=002574 GeodesicLength=0.45390606618756274 rxn_smarts="[N:1]1([H:7])[C@@:2]2([H:8])[C@:3]1([H:9])[C@@:4]1([H:10])[N:5]([H:11])[C@@:6]21[H:12]>>[N:1]1([H:7])[C@:3]2([H:9])[C:2]([H:8])=[C:6]([H:12])[N:5]([H:11])[C@:4]12[H:10]"
N       -1.29192676      -1.14813549       0.15454468
C        0.12587661      -0.21546432      -1.14005834
C       -1.04981076       0.14816471      -0.34001758
C       -0.24206451       0.70652404       0.81545181
N        1.01416307       0.12950641       1.07877705
C        1.14637172       0.34443261      -0.33390950
H       -0.56588508      -1.68107648       0.61746513
H        0.18076465      -0.44174103      -2.19501496
H       -1.89075425       0.70050073      -0.74295181
H       -0.52424653       1.56629578       1.41474955
H        1.00427159      -0.84461637       1.35312176
H        2.09324024       0.73560942      -0.68215780
12
Frame=7 idx=002574 GeodesicLength=0.5294406251059796 rxn_smarts="[N:1]1([H:7])[C@@:2]2([H:8])[C@:3]1([H:9])[C@@:4]1([H:10])[N:5]([H:11])[C@@:6]21[H:12]>>[N:1]1([H:7])[C@:3]2([H:9])[C:2]([H:8])=[C:6]([H:12])[N:5]([H:11])[C@:4]12[H:10]"
N       -1.27651537      -1.12557956       0.15594903
C        0.12225827      -0.23009092      -1.13732547
C       -1.05253865       0.17001637      -0.35270288
C       -0.24775456       0.69518388       0.81912862
N        1.01663285       0.12992592       1.07612748
C        1.14136966       0.34495605      -0.33394108
H       -0.56086842      -1.67730040       0.61145399
H        0.17988160      -0.46034286      -2.19115762
H       -1.89652547       0.71594604      -0.75558061
H       -0.53593717       1.54366577       1.43124936
H        1.02242666      -0.83988546       1.36361606
H        2.08757060       0.73350516      -0.68681688
12
Frame=8 idx=002574 GeodesicLength=0.6049536613941371 rxn_smarts="[N:1]1([H:7])[C@@:2]2([H:8])[C@:3]1([H:9])[C@@:4]1([H:10])[N:5]([H:11])[C@@:6]21[H:12]>>[N:1]1([H:7])[C@:3]2([H:9])[C:2]([H:8])=[C:6]([H:12])[N:5]([H:11])[C@:4]12[H:10]"
N       -1.26102290      -1.10363394       0.15684182
C        0.11838921      -0.24383548      -1.13465008
C       -1.05463932       0.19136735      -0.36498884
C       -0.25333426       0.68409109       0.82241029
N        1.01892836       0.13048489       1.07356686
C        1.13662158       0.34508489      -0.33392957
H       -0.55644356      -1.67364313       0.60557990
H        0.17852652      -0.47781892      -2.18739864
H       -1.90212749       0.73051781      -0.76742140
H       -0.54758576       1.52119844       1.44688923
H        1.04039119      -0.83449936       1.37442951
H        2.08229642       0.73068635      -0.69132908
12
Frame=9 idx=002574 GeodesicLength=0.6804418282554777 rxn_smarts="[N:1]1([H:7])[C@@:2]2([H:8])[C@:3]1([H:9])[C@@:4]1([H:10])[N:5]([H:11])[C@@:6]21[H:12]>>[N:1]1([H:7])[C@:3]2([H:9])[C:2]([H:8])=[C:6]([H:12])[N:5]([H:11])[C@:4]12[H:10]"
N       -1.24548307      -1.08232839       0.15726337
C        0.11428636      -0.25674382      -1.13204700
C       -1.05617356       0.21221271      -0.37685861
C       -0.25880545       0.67324808       0.82532473
N        1.02105082       0.13114563       1.07110205
C        1.13213003       0.34483915      -0.33386053
H       -0.55255451      -1.67011230       0.59980350
H        0.17671626      -0.49416288      -2.18376886
H       -1.90758970       0.74422210      -0.77848009
H       -0.55914128       1.49897956       1.46163314
H        1.05814446      -0.82848944       1.38555428
H        2.07741964       0.72718961      -0.69566600
12
Frame=10 idx=002574 GeodesicLength=0.7559467634744803 rxn_smarts="[N:1]1([H:7])[C@@:2]2([H:8])[C@:3]1([H:9])[C@@:4]1([H:10])[N:5]([H:11])[C@@:6]21[H:12]>>[N:1]1([H:7])[C@:3]2([H:9])[C:2]([H:8])=[C:6]([H:12])[N:5]([H:11])[C@:4]12[H:10]"
N       -1.22992365      -1.06163493       0.15725291
C        0.10996617      -0.26887179      -1.12953758
C       -1.05716210       0.23257719      -0.38831124
C       -0.26415972       0.66265931       0.82789421
N        1.02300220       0.13189497       1.06871763
C        1.12787481       0.34425885      -0.33374210
H       -0.54916317      -1.66665002       0.59407548
H        0.17448096      -0.50951746      -2.18027252
H       -1.91286790       0.75711768      -0.78879302
H       -0.57062493       1.47694703       1.47559869
H        1.07567545      -0.82184257       1.39695551
H        2.07290190       0.72306174      -0.69983797
12
Frame=11 idx=002574 GeodesicLength=0.831427625090779 rxn_smarts="[N:1]1([H:7])[C@@:2]2([H:8])[C@:3]1([H:9])[C@@:4]1([H:10])[N:5]([H:11])[C@@:6]21[H:12]>>[N:1]1([H:7])[C@:3]2([H:9])[C:2]([H:8])=[C:6]([H:12])[N:5]([H:11])[C@:4]12[H:10]"
N       -1.21440356      -1.04156359       0.15685927
C        0.10545187      -0.28026591      -1.12713232
C       -1.05767938       0.25247669      -0.39935278
C       -0.26939989       0.65232423       0.83014318
N        1.02480369       0.13270564       1.06641392
C        1.12386387       0.34338086      -0.33357442
H       -0.54623398      -1.66327665       0.58837961
H        0.17185111      -0.52392491      -2.17692462
H       -1.91799332       0.76925389      -0.79840093
H       -0.58202756       1.45512640       1.48880669
H        1.09300482      -0.81458792       1.40862741
H        2.06876233       0.71835127      -0.70384500
12
Frame=12 idx=002574 GeodesicLength=0.9069018548130839 rxn_smarts="[N:1]1([H:7])[C@@:2]2([H:8])[C@:3]1([H:9])[C@@:4]1([H:10])[N:5]([H:11])[C@@:6]21[H:12]>>[N:1]1([H:7])[C@:3]2([H:9])[C:2]([H:8])=[C:6]([H:12])[N:5]([H:11])[C@:4]12[H:10]"
N       -1.19894100      -1.02209762       0.15611345
C        0.10075912      -0.29097948      -1.12483666
C       -1.05776190       0.27192103      -0.40998674
C       -0.27452415       0.64223231       0.83210004
N        1.02645048       0.13355782       1.06418364
C        1.12007223       0.34223022      -0.33335442
H       -0.54372439      -1.65997064       0.58267776
H        0.16884801      -0.53744376      -2.17373067
H       -1.92293690       0.78066485      -0.80732907
H       -0.59333037       1.43351950       1.50129579
H        1.11012779      -0.80672278       1.42054575
H        2.06496108       0.71308853      -0.70767887
12
Frame=13 idx=002574 GeodesicLength=0.9823604928998161 rxn_smarts="[N:1]1([H:7])[C@@:2]2([H:8])[C@:3]1([H:9])[C@@:4]1([H:10])[N:5]([H:11])[C@@:6]21[H:12]>>[N:1]1([H:7])[C@:3]2([H:9])[C:2]([H:8])=[C:6]([H:12])[N:5]([H:11])[C@:4]12[H:10]"
N       -1.18355488      -1.00324569       0.15506241
C        0.09590131      -0.30106299      -1.12265438
C       -1.05744831       0.29091399      -0.42021221
C       -0.27954493       0.63236480       0.83378857
N        1.02795136       0.13441835       1.06203019
C        1.11649468       0.34082235      -0.33307658
H       -0.54159853      -1.65674103       0.57695623
H        0.16548657      -0.55007291      -2.17070967
H       -1.92771215       0.79138219      -0.81560532
H       -0.60450501       1.41217642       1.51304729
H        1.12704046      -0.79827198       1.43270109
H        2.06148943       0.70731651      -0.71132762
12
Frame=14 idx=002574 GeodesicLength=1.0578019760866546 rxn_smarts="[N:1]1([H:7])[C@@:2]2([H:8])[C@:3]1([H:9])[C@@:4]1([H:10])[N:5]([H:11])[C@@:6]21[H:12]>>[N:1]1([H:7])[C@:3]2([H:9])[C:2]([H:8])=[C:6]([H:12])[N:5]([H:11])[C@:4]12[H:10]"
N       -1.16827320      -0.98498168       0.15373567
C        0.09089447      -0.31056023      -1.12059263
C       -1.05677893       0.30948117      -0.43004804
C       -0.28446259       0.62271486       0.83523123
N        1.02931897       0.13527794       1.05994177
C        1.11311788       0.33919292      -0.33275234
H       -0.53983439      -1.65357409       0.57120108
H        0.16179505      -0.56190923      -2.16785933
H       -1.93229974       0.80147629      -0.82327614
H       -0.61557715       1.39104417       1.52414928
H        1.14376726      -0.78922777       1.44508054
H        2.05833239       0.70106563      -0.71481110
12
Frame=15 idx=002574 GeodesicLength=1.1332570149517587 rxn_smarts="[N:1]1([H:7])[C@@:2]2([H:8])[C@:3]1([H:9])[C@@:4]1([H:10])[N:5]([H:11])[C@@:6]21[H:12]>>[N:1]1([H:7])[C@:3]2([H:9])[C:2]([H:8])=[C:6]([H:12])[N:5]([H:11])[C@:4]12[H:10]"
N       -1.15310296      -0.96727462       0.15215214
C        0.08574629      -0.31951455      -1.11865166
C       -1.05577021       0.32764423      -0.43950946
C       -0.28927189       0.61327508       0.83644157
N        1.03056190       0.13613224       1.05790335
C        1.10992231       0.33736606      -0.33238722
H       -0.53840921      -1.65044121       0.56538975
H        0.15778419      -0.57304365      -2.16516623
H       -1.93666305       0.81100875      -0.83038157
H       -0.62656797       1.37005400       1.53468308
H        1.16031503      -0.77956579       1.45766657
H        2.05545556       0.69435946      -0.71814033
12
Frame=16 idx=002574 GeodesicLength=1.2087054279216443 rxn_smarts="[N:1]1([H:7])[C@@:2]2([H:8])[C@:3]1([H:9])[C@@:4]1([H:10])[N:5]([H:11])[C@@:6]21[H:12]>>[N:1]1([H:7])[C@:3]2([H:9])[C:2]([H:8])=[C:6]([H:12])[N:5]([H:11])[C@:4]12[H:10]"
N       -1.13806599      -0.95011652       0.15034778
C        0.08047113      -0.32796419      -1.11683415
C       -1.05446309       0.34541927      -0.44860578
C       -0.29398465       0.60402783       0.83744172
N        1.03168936       0.13695998       1.05591376
C        1.10690103       0.33536070      -0.33198527
H       -0.53730005      -1.64735396       0.55951826
H        0.15347920      -0.58350974      -2.16263843
H       -1.94080634       0.82003380      -0.83695503
H       -0.63747795       1.34920714       1.54466774
H        1.17670448      -0.76929182       1.47045305
H        2.05285286       0.68722752      -0.72132366
