17
Frame=0 idx=010321 GeodesicLength=0.0 rxn_smarts="[C:1]([C@@:2]1([H:11])[C@:3]([O:4][H:13])([H:12])[C:5]([H:14])([H:15])[C@:6]1([O:7][H:17])[H:16])([H:8])([H:9])[H:10]>>[C:1]([O:7][H:17])([H:8])([H:9])[H:10].[C:2]1([H:11])=[C:6]([H:16])[C:5]([H:14])([H:15])[C@@:3]1([O:4][H:13])[H:12]"
C       -1.61445017      -0.29654635      -1.07132535
C       -0.38611157       0.22678759       0.99541971
C        0.78282261      -0.70853564       1.02630908
O        0.47373902      -2.04504401       0.62587930
C        1.45756325       0.20449278      -0.03653027
C        0.27591595       1.16300508       0.11335072
O       -0.50940593       1.25681758      -1.19325177
H       -1.88813590      -0.02826978      -2.08796350
H       -2.43228602      -0.26126480      -0.36936339
H       -1.00255071      -1.18256671      -0.99180975
H       -1.06251785       0.44632752       1.81522125
H        1.35027373      -0.75240829       1.96630831
H        1.25549991      -2.58746180       0.74578391
H        2.42841408       0.61932263       0.23851470
H        1.52798897      -0.25685421      -1.02301519
H        0.47529521       2.21008314       0.35858271
H       -1.13205451       1.99211535      -1.11211043
17
Frame=1 idx=010321 GeodesicLength=0.10511559047574871 rxn_smarts="[C:1]([C@@:2]1([H:11])[C@:3]([O:4][H:13])([H:12])[C:5]([H:14])([H:15])[C@:6]1([O:7][H:17])[H:16])([H:8])([H:9])[H:10]>>[C:1]([O:7][H:17])([H:8])([H:9])[H:10].[C:2]1([H:11])=[C:6]([H:16])[C:5]([H:14])([H:15])[C@@:3]1([O:4][H:13])[H:12]"
C       -1.61505078      -0.29607547      -1.07869347
C       -0.38112642       0.24017162       0.99587293
C        0.78360550      -0.70199319       1.03132666
O        0.45714182      -2.03413185       0.63530347
C        1.46880829       0.20559623      -0.02859697
C        0.29438393       1.17205659       0.11957081
O       -0.50930834       1.25698773      -1.20905403
H       -1.95142229      -0.00655064      -2.07123681
H       -2.42249428      -0.35168694      -0.36474331
H       -0.98569333      -1.17397048      -1.06675994
H       -1.05111121       0.46832558       1.81876409
H        1.34428748      -0.74664203       1.97500319
H        1.23255222      -2.58609569       0.75243725
H        2.44472151       0.60910599       0.24508806
H        1.53103097      -0.25590252      -1.01552094
H        0.49825145       2.21685673       0.36896240
H       -1.13857653       1.98394835      -1.10772338
17
Frame=2 idx=010321 GeodesicLength=0.20960719714018305 rxn_smarts="[C:1]([C@@:2]1([H:11])[C@:3]([O:4][H:13])([H:12])[C:5]([H:14])([H:15])[C@:6]1([O:7][H:17])[H:16])([H:8])([H:9])[H:10]>>[C:1]([O:7][H:17])([H:8])([H:9])[H:10].[C:2]1([H:11])=[C:6]([H:16])[C:5]([H:14])([H:15])[C@@:3]1([O:4][H:13])[H:12]"
C       -1.61560417      -0.29652996      -1.08468563
C       -0.37609694       0.25462281       0.99677227
C        0.78364352      -0.69526290       1.03614554
O        0.43953429      -2.02254923       0.64392790
C        1.47959089       0.20663447      -0.02077397
C        0.31301368       1.18162689       0.12605364
O       -0.50961188       1.25694440      -1.22532903
H       -2.01399028       0.01322133      -2.04860939
H       -2.40611258      -0.44477434      -0.36354374
H       -0.97066386      -1.16200171      -1.14276038
H       -1.04071107       0.49074258       1.82189399
H        1.33773602      -0.74109915       1.98331530
H        1.20819067      -2.58433692       0.75840366
H        2.46069951       0.59815479       0.25147221
H        1.53334771      -0.25474416      -1.00821097
H        0.52192143       2.22400330       0.37956691
H       -1.14488695       1.97534780      -1.10363832
17
Frame=3 idx=010321 GeodesicLength=0.31356060855477985 rxn_smarts="[C:1]([C@@:2]1([H:11])[C@:3]([O:4][H:13])([H:12])[C:5]([H:14])([H:15])[C@:6]1([O:7][H:17])[H:16])([H:8])([H:9])[H:10]>>[C:1]([O:7][H:17])([H:8])([H:9])[H:10].[C:2]1([H:11])=[C:6]([H:16])[C:5]([H:14])([H:15])[C@@:3]1([O:4][H:13])[H:12]"
C       -1.61603373      -0.29803067      -1.08949265
C       -0.37109551       0.26984365       0.99803731
C        0.78306124      -0.68838291       1.04083361
O        0.42131895      -2.01046030       0.65202903
C        1.48981727       0.20752954      -0.01316574
C        0.33170730       1.19158225       0.13286778
O       -0.51043552       1.25668000      -1.24203885
H       -2.07536684       0.03073303      -2.02031372
H       -2.38324318      -0.53879006      -0.36651166
H       -0.95820579      -1.14681766      -1.21933649
H       -1.03131545       0.51327850       1.82463973
H        1.33078090      -0.73558394       1.99130925
H        1.18293624      -2.58216033       0.76399708
H        2.47625215       0.58644633       0.25740410
H        1.53473148      -0.25350200      -1.00116557
H        0.54618953       2.23134574       0.39063709
H       -1.15109903       1.96628882      -1.09973029
17
Frame=4 idx=010321 GeodesicLength=0.4170614476506661 rxn_smarts="[C:1]([C@@:2]1([H:11])[C@:3]([O:4][H:13])([H:12])[C:5]([H:14])([H:15])[C@:6]1([O:7][H:17])[H:16])([H:8])([H:9])[H:10]>>[C:1]([O:7][H:17])([H:8])([H:9])[H:10].[C:2]1([H:11])=[C:6]([H:16])[C:5]([H:14])([H:15])[C@@:3]1([O:4][H:13])[H:12]"
C       -1.61620864      -0.30068356      -1.09338723
C       -0.36618778       0.28554453       0.99957582
C        0.78199621      -0.68137502       1.04547147
O        0.40285895      -1.99802008       0.65993539
C        1.49941511       0.20820735      -0.00587378
C        0.35039126       1.20178980       0.14007923
O       -0.51189135       1.25620546      -1.25914418
H       -2.13509507       0.04571362      -1.98666715
H       -2.35431324      -0.63209384      -0.37423393
H       -0.94888885      -1.12861671      -1.29615428
H       -1.02287378       0.53567973       1.82703724
H        1.32359304      -0.72987305       1.99906673
H        1.15727081      -2.57954790       0.76955243
H        2.49130663       0.57395837       0.26262350
H        1.53500022      -0.25230085      -0.99446062
H        0.57096992       2.23869904       0.40241896
H       -1.15734344       1.95671309      -1.09583961
17
Frame=5 idx=010321 GeodesicLength=0.52016865529964 rxn_smarts="[C:1]([C@@:2]1([H:11])[C@:3]([O:4][H:13])([H:12])[C:5]([H:14])([H:15])[C@:6]1([O:7][H:17])[H:16])([H:8])([H:9])[H:10]>>[C:1]([O:7][H:17])([H:8])([H:9])[H:10].[C:2]1([H:11])=[C:6]([H:16])[C:5]([H:14])([H:15])[C@@:3]1([O:4][H:13])[H:12]"
C       -1.61594291      -0.30456361      -1.09668365
C       -0.36142988       0.30147724       1.00127907
C        0.78058516      -0.67425428       1.05014272
O        0.38445776      -1.98537178       0.66799514
C        1.50834343       0.20860473       0.00102025
C        0.36902207       1.21213918       0.14773685
O       -0.51406774       1.25556169      -1.27662030
H       -2.19279688       0.05800032      -1.94794386
H       -2.31996615      -0.72335743      -0.38715465
H       -0.94314435      -1.10762291      -1.37300620
H       -1.01532037       0.55775994       1.82908703
H        1.31633830      -0.72376034       2.00667469
H        1.13161416      -2.57650150       0.77541114
H        2.50581888       0.56067271       0.26691100
H        1.53402344      -0.25124653      -0.98814305
H        0.59620602       2.24589781       0.41512388
H       -1.16374093       1.94656476      -1.09183004
17
Frame=6 idx=010321 GeodesicLength=0.6229528835461494 rxn_smarts="[C:1]([C@@:2]1([H:11])[C@:3]([O:4][H:13])([H:12])[C:5]([H:14])([H:15])[C@:6]1([O:7][H:17])[H:16])([H:8])([H:9])[H:10]>>[C:1]([O:7][H:17])([H:8])([H:9])[H:10].[C:2]1([H:11])=[C:6]([H:16])[C:5]([H:14])([H:15])[C@@:3]1([O:4][H:13])[H:12]"
C       -1.61504963      -0.30969564      -1.09969889
C       -0.35686013       0.31748132       1.00305886
C        0.77892754      -0.66701677       1.05491604
O        0.36628895      -1.97261718       0.67651171
C        1.51657239       0.20868043       0.00745076
C        0.38759507       1.22257112       0.15588465
O       -0.51702631       1.25484033      -1.29445512
H       -2.24806275       0.06732354      -1.90445955
H       -2.28085159      -0.81169775      -0.40546695
H       -0.94131022      -1.08400776      -1.44981051
H       -1.00856765       0.57943554       1.83081010
H        1.30914047      -0.71707467       2.01420435
H        1.10622358      -2.57303885       0.78183459
H        2.51975418       0.54656208       0.27009168
H        1.53169450      -0.25040923      -0.98225007
H        0.62190489       2.25282661       0.42894378
H       -1.17037330       1.93583689      -1.08756543
17
Frame=7 idx=010321 GeodesicLength=0.7254532250284522 rxn_smarts="[C:1]([C@@:2]1([H:11])[C@:3]([O:4][H:13])([H:12])[C:5]([H:14])([H:15])[C@:6]1([O:7][H:17])[H:16])([H:8])([H:9])[H:10]>>[C:1]([O:7][H:17])([H:8])([H:9])[H:10].[C:2]1([H:11])=[C:6]([H:16])[C:5]([H:14])([H:15])[C@@:3]1([O:4][H:13])[H:12]"
C       -1.61331930      -0.31609169      -1.10272798
C       -0.35250686       0.33346829       1.00482941
C        0.77708756      -0.65964128       1.05984638
O        0.34842144      -1.95979618       0.68575001
C        1.52408886       0.20840020       0.01338421
C        0.40613256       1.23304131       0.16454984
O       -0.52081239       1.25412050      -1.31264735
H       -2.30057107       0.07344524      -1.85639197
H       -2.23752083      -0.89660248      -0.42927302
H       -0.94363567      -1.05783036      -1.52659151
H       -1.00253075       0.60070875       1.83219777
H        1.30208147      -0.70967656       2.02170731
H        1.08123029      -2.56915118       0.78901617
H        2.53309003       0.53158247       0.27205585
H        1.52795172      -0.24983632      -0.97677713
H        0.64811023       2.25937276       0.44401669
H       -1.17729729       1.92448655      -1.08294468
17
Frame=8 idx=010321 GeodesicLength=0.8277983945675642 rxn_smarts="[C:1]([C@@:2]1([H:11])[C@:3]([O:4][H:13])([H:12])[C:5]([H:14])([H:15])[C@:6]1([O:7][H:17])[H:16])([H:8])([H:9])[H:10]>>[C:1]([O:7][H:17])([H:8])([H:9])[H:10].[C:2]1([H:11])=[C:6]([H:16])[C:5]([H:14])([H:15])[C@@:3]1([O:4][H:13])[H:12]"
C       -1.61054067      -0.32379609      -1.10605573
C       -0.34838666       0.34941379       1.00654611
C        0.77509419      -0.65210733       1.06499858
O        0.33081727      -1.94694946       0.69593522
C        1.53090087       0.20776143       0.01879874
C        0.42469219       1.24355798       0.17375077
O       -0.52545157       1.25349494      -1.33124799
H       -2.35004745       0.07612443      -1.80376609
H       -2.19039957      -0.97789070      -0.45865875
H       -0.95037613      -1.02908600      -1.60346177
H       -0.99713398       0.62164535       1.83328481
H        1.29520796      -0.70146982       2.02927037
H        1.05663360      -2.56486977       0.79709572
H        2.54583058       0.51572395       0.27273893
H        1.52277384      -0.24953780      -0.97174123
H        0.67492028       2.26549956       0.46044977
H       -1.18453473       1.91248552      -1.07793747
17
Frame=9 idx=010321 GeodesicLength=0.9298317721340282 rxn_smarts="[C:1]([C@@:2]1([H:11])[C@:3]([O:4][H:13])([H:12])[C:5]([H:14])([H:15])[C@:6]1([O:7][H:17])[H:16])([H:8])([H:9])[H:10]>>[C:1]([O:7][H:17])([H:8])([H:9])[H:10].[C:2]1([H:11])=[C:6]([H:16])[C:5]([H:14])([H:15])[C@@:3]1([O:4][H:13])[H:12]"
C       -1.60636970      -0.33285829      -1.10991024
C       -0.34452505       0.36535126       1.00808859
C        0.77293810      -0.64440073       1.07038247
O        0.31343528      -1.93406874       0.70722350
C        1.53696828       0.20671717       0.02370989
C        0.44326948       1.25410027       0.18345980
O       -0.53098384       1.25298668      -1.35029618
H       -2.39617328       0.07531231      -1.74614116
H       -2.13962775      -1.05543971      -0.49380714
H       -0.96172244      -0.99770160      -1.68043219
H       -0.99233377       0.64239632       1.83393644
H        1.28849574      -0.69240471       2.03689667
H        1.03241785      -2.56020728       0.80616122
H        2.55787661       0.49890512       0.27215983
H        1.51615583      -0.24956068      -0.96707598
H        0.70230505       2.27112591       0.47824913
H       -1.19212637       1.89974668      -1.07260465
17
Frame=10 idx=010321 GeodesicLength=1.0317844203206563 rxn_smarts="[C:1]([C@@:2]1([H:11])[C@:3]([O:4][H:13])([H:12])[C:5]([H:14])([H:15])[C@:6]1([O:7][H:17])[H:16])([H:8])([H:9])[H:10]>>[C:1]([O:7][H:17])([H:8])([H:9])[H:10].[C:2]1([H:11])=[C:6]([H:16])[C:5]([H:14])([H:15])[C@@:3]1([O:4][H:13])[H:12]"
C       -1.60062721      -0.34327531      -1.11454338
C       -0.34092588       0.38136871       1.00946326
C        0.77055005      -0.63646965       1.07600641
O        0.29599843      -1.92107075       0.71967884
C        1.54231071       0.20531207       0.02812395
C        0.46198823       1.26472995       0.19370640
O       -0.53740836       1.25274157      -1.36985529
H       -2.43843059       0.07019969      -1.68357735
H       -2.08525283      -1.12934003      -0.53462191
H       -0.97815895      -0.96351641      -1.75751929
H       -0.98804997       0.66311304       1.83424480
H        1.28189687      -0.68246720       2.04459977
H        1.00827613      -2.55513278       0.81612994
H        2.56925799       0.48110917       0.27033590
H        1.50811226      -0.24980865      -0.96278607
H        0.73049976       2.27623847       0.49751155
H       -1.20003664       1.88626810      -1.06689752
17
Frame=11 idx=010321 GeodesicLength=1.1336109235096756 rxn_smarts="[C:1]([C@@:2]1([H:11])[C@:3]([O:4][H:13])([H:12])[C:5]([H:14])([H:15])[C@:6]1([O:7][H:17])[H:16])([H:8])([H:9])[H:10]>>[C:1]([O:7][H:17])([H:8])([H:9])[H:10].[C:2]1([H:11])=[C:6]([H:16])[C:5]([H:14])([H:15])[C@@:3]1([O:4][H:13])[H:12]"
C       -1.59298694      -0.35507002      -1.12016119
C       -0.33761754       0.39757895       1.01060154
C        0.76781589      -0.62827703       1.08182840
O        0.27824191      -1.90784299       0.73330717
C        1.54689733       0.20354972       0.03206417
C        0.48090106       1.27546439       0.20446792
O       -0.54473426       1.25281039      -1.38997929
H       -2.47618358       0.06019564      -1.61565249
H       -2.02702990      -1.19956898      -0.58116066
H       -1.00015251      -0.92632903      -1.83454002
H       -0.98424940       0.68399897       1.83414886
H        1.27527101      -0.67168116       2.05232408
H        0.98390340      -2.54959646       0.82687921
H        2.57989636       0.46227080       0.26733344
H        1.49868154      -0.25022215      -0.95882579
H        0.75959102       2.28076883       0.51823379
H       -1.20824538       1.87195012      -1.06086914
17
Frame=12 idx=010321 GeodesicLength=1.2357052841560892 rxn_smarts="[C:1]([C@@:2]1([H:11])[C@:3]([O:4][H:13])([H:12])[C:5]([H:14])([H:15])[C@:6]1([O:7][H:17])[H:16])([H:8])([H:9])[H:10]>>[C:1]([O:7][H:17])([H:8])([H:9])[H:10].[C:2]1([H:11])=[C:6]([H:16])[C:5]([H:14])([H:15])[C@@:3]1([O:4][H:13])[H:12]"
C       -1.58322571      -0.36826252      -1.12705201
C       -0.33459923       0.41410161       1.01156047
C        0.76461488      -0.61980323       1.08788437
O        0.25979576      -1.89429881       0.74812113
C        1.55075046       0.20150120       0.03554289
C        0.50014013       1.28638683       0.21574042
O       -0.55299056       1.25331561      -1.41085876
H       -2.50872098       0.04437788      -1.54217049
H       -1.96464115      -1.26614025      -0.63347329
H       -1.02846921      -0.88589453      -1.91133087
H       -0.98085803       0.70522320       1.83381262
H        1.26850421      -0.66013815       2.06017892
H        0.95885672      -2.54359713       0.83828037
H        2.58981331       0.44240078       0.26322489
H        1.48793250      -0.25064057      -0.95526873
H        0.78982085       2.28473052       0.54046204
H       -1.21672394       1.85673757      -1.05465398
17
Frame=13 idx=010321 GeodesicLength=1.3375584249632169 rxn_smarts="[C:1]([C@@:2]1([H:11])[C@:3]([O:4][H:13])([H:12])[C:5]([H:14])([H:15])[C@:6]1([O:7][H:17])[H:16])([H:8])([H:9])[H:10]>>[C:1]([O:7][H:17])([H:8])([H:9])[H:10].[C:2]1([H:11])=[C:6]([H:16])[C:5]([H:14])([H:15])[C@@:3]1([O:4][H:13])[H:12]"
C       -1.57069609      -0.38285156      -1.13538757
C       -0.33195852       0.43120319       1.01196156
C        0.76078492      -0.61108052       1.09394006
O        0.24059101      -1.88035532       0.76381857
C        1.55368829       0.19899364       0.03873461
C        0.51948685       1.29747345       0.22739807
O       -0.56225166       1.25411920      -1.43254401
H       -2.53480451       0.02281810      -1.46140544
H       -1.89720647      -1.32878188      -0.69196809
H       -1.06378479      -0.84224371      -1.98707065
H       -0.97794958       0.72729601       1.83260975
H        1.26129904      -0.64797732       2.06785613
H        0.93302826      -2.53722938       0.85005885
H        2.59860150       0.42120706       0.25843080
H        1.47595988      -0.25123826      -0.95179807
H        0.82071768       2.28806202       0.56397262
H       -1.22550582       1.84058528      -1.04860720
17
Frame=14 idx=010321 GeodesicLength=1.4399098491128677 rxn_smarts="[C:1]([C@@:2]1([H:11])[C@:3]([O:4][H:13])([H:12])[C:5]([H:14])([H:15])[C@:6]1([O:7][H:17])[H:16])([H:8])([H:9])[H:10]>>[C:1]([O:7][H:17])([H:8])([H:9])[H:10].[C:2]1([H:11])=[C:6]([H:16])[C:5]([H:14])([H:15])[C@@:3]1([O:4][H:13])[H:12]"
C       -1.55534061      -0.39873598      -1.14543033
C       -0.32967210       0.44892913       1.01197624
C        0.75600997      -0.60205832       1.09995872
O        0.21984681      -1.86578752       0.78016119
C        1.55578598       0.19634153       0.04160201
C        0.53926301       1.30885431       0.23945486
O       -0.57235096       1.25541251      -1.45530503
H       -2.55287227      -0.00665174      -1.37381987
H       -1.82435609      -1.38720195      -0.75618443
H       -1.10753117      -0.79518837      -2.06091718
H       -0.97538803       0.75012121       1.83094729
H        1.25329455      -0.63543117       2.07541304
H        0.90540903      -2.53031123       0.86177182
H        2.60637135       0.39898662       0.25300450
H        1.46291669      -0.25143357      -0.94863666
H        0.85286699       2.29077076       0.58884441
H       -1.23425316       1.82338380      -1.04284060
17
Frame=15 idx=010321 GeodesicLength=1.5431683400263694 rxn_smarts="[C:1]([C@@:2]1([H:11])[C@:3]([O:4][H:13])([H:12])[C:5]([H:14])([H:15])[C@:6]1([O:7][H:17])[H:16])([H:8])([H:9])[H:10]>>[C:1]([O:7][H:17])([H:8])([H:9])[H:10].[C:2]1([H:11])=[C:6]([H:16])[C:5]([H:14])([H:15])[C@@:3]1([O:4][H:13])[H:12]"
C       -1.53692262      -0.41572571      -1.15740901
C       -0.32786430       0.46753265       1.01140171
C        0.75004422      -0.59270711       1.10572773
O        0.19721065      -1.85035227       0.79661351
C        1.55709812       0.19352904       0.04432522
C        0.55945975       1.32052087       0.25186897
O       -0.58321310       1.25700096      -1.47938372
H       -2.56118728      -0.04493806      -1.27836233
H       -1.74516999      -1.44082771      -0.82643553
H       -1.16133592      -0.74497166      -2.13147900
H       -0.97338378       0.77407005       1.82851772
H        1.24408253      -0.62268100       2.08268535
H        0.87555459      -2.52274041       0.87287005
H        2.61308968       0.37562851       0.24745499
H        1.44917864      -0.25114059      -0.94564744
H        0.88615295       2.29274893       0.61505119
H       -1.24279415       1.80505351      -1.03779941
17
Frame=16 idx=010321 GeodesicLength=1.648113191795091 rxn_smarts="[C:1]([C@@:2]1([H:11])[C@:3]([O:4][H:13])([H:12])[C:5]([H:14])([H:15])[C@:6]1([O:7][H:17])[H:16])([H:8])([H:9])[H:10]>>[C:1]([O:7][H:17])([H:8])([H:9])[H:10].[C:2]1([H:11])=[C:6]([H:16])[C:5]([H:14])([H:15])[C@@:3]1([O:4][H:13])[H:12]"
C       -1.51525865      -0.43352725      -1.17148062
C       -0.32663788       0.48725420       1.01008784
C        0.74255164      -0.58304858       1.11104035
O        0.17222598      -1.83386224       0.81258304
C        1.55758356       0.19058863       0.04703143
C        0.58003931       1.33251859       0.26456880
O       -0.59476992       1.25873532      -1.50516311
H       -2.55715772      -0.09319227      -1.17433778
H       -1.65847518      -1.48885897      -0.90306762
H       -1.22722715      -0.69198027      -2.19666758
H       -0.97204867       0.79945334       1.82514739
H        1.23314012      -0.61003726       2.08955881
H        0.84283569      -2.51449536       0.88278107
H        2.61859105       0.35105731       0.24223343
H        1.43503435      -0.25018145      -0.94281847
H        0.92044325       2.29395431       0.64254862
H       -1.25086978       1.78562195      -1.03404561
