8
Frame=0 idx=000150 GeodesicLength=0.0 rxn_smarts="[c:1]1([H:7])[n:2][n:3][c:4]([H:8])[n:5][n:6]1>>[C:1](#[N:6])[H:7].[C:4](#[N:5])[H:8].[N:2]#[N:3]"
C        1.44849517      -0.17861554      -0.15127355
N        0.58930129       1.30775437       0.24845865
N       -0.55702886       1.30227817       0.33675936
C       -1.45312717      -0.19161425       0.06808311
N       -0.96119899      -1.24565576      -0.21085416
N        0.93050801      -1.23854803      -0.34861993
H        2.47839026       0.13358125      -0.15919698
H       -2.47533973       0.11081982       0.21664347
8
Frame=1 idx=000150 GeodesicLength=0.05930783308698229 rxn_smarts="[c:1]1([H:7])[n:2][n:3][c:4]([H:8])[n:5][n:6]1>>[C:1](#[N:6])[H:7].[C:4](#[N:5])[H:8].[N:2]#[N:3]"
C        1.45573669      -0.17429503      -0.16398245
N        0.59047088       1.31960740       0.25491429
N       -0.55507859       1.30369843       0.38063489
C       -1.45350759      -0.20184549       0.09550076
N       -0.96636540      -1.27609584      -0.11616725
N        0.91892684      -1.21797344      -0.40674695
H        2.48974053       0.12451914      -0.16431530
H       -2.47992337       0.12238484       0.12016201
8
Frame=2 idx=000150 GeodesicLength=0.11905918099647828 rxn_smarts="[c:1]1([H:7])[n:2][n:3][c:4]([H:8])[n:5][n:6]1>>[C:1](#[N:6])[H:7].[C:4](#[N:5])[H:8].[N:2]#[N:3]"
C        1.46037427      -0.17065974      -0.17573402
N        0.59155101       1.32997172       0.27122871
N       -0.55409913       1.30719350       0.41993784
C       -1.45492777      -0.21161543       0.12405532
N       -0.97119076      -1.29937062      -0.03316375
N        0.90266597      -1.19881566      -0.44799559
H        2.49788927       0.11594306      -0.18196778
H       -2.47226286       0.12735316       0.02363927
8
Frame=3 idx=000150 GeodesicLength=0.17956484489729582 rxn_smarts="[c:1]1([H:7])[n:2][n:3][c:4]([H:8])[n:5][n:6]1>>[C:1](#[N:6])[H:7].[C:4](#[N:5])[H:8].[N:2]#[N:3]"
C        1.46219582      -0.16549406      -0.19303179
N        0.59183861       1.34053378       0.28976147
N       -0.55370260       1.31160215       0.45901351
C       -1.45790978      -0.22065707       0.15287576
N       -0.97674466      -1.31792612       0.04068883
N        0.88352068      -1.18172426      -0.47720605
H        2.50369229       0.10643973      -0.20160215
H       -2.45289036       0.12722584      -0.07049958
8
Frame=4 idx=000150 GeodesicLength=0.24110627287784708 rxn_smarts="[c:1]1([H:7])[n:2][n:3][c:4]([H:8])[n:5][n:6]1>>[C:1](#[N:6])[H:7].[C:4](#[N:5])[H:8].[N:2]#[N:3]"
C        1.46270470      -0.16085181      -0.20775071
N        0.59203218       1.35035485       0.31249262
N       -0.55405666       1.31673251       0.49660884
C       -1.46279438      -0.22828036       0.17724014
N       -0.98435065      -1.33306213       0.10600654
N        0.86355308      -1.16724828      -0.49499460
H        2.50722835       0.09881959      -0.22959626
H       -2.42431662       0.12353563      -0.16000658
8
Frame=5 idx=000150 GeodesicLength=0.30317294294359876 rxn_smarts="[c:1]1([H:7])[n:2][n:3][c:4]([H:8])[n:5][n:6]1>>[C:1](#[N:6])[H:7].[C:4](#[N:5])[H:8].[N:2]#[N:3]"
C        1.46216846      -0.15601373      -0.22220933
N        0.59214120       1.35982753       0.33680049
N       -0.55512834       1.32271830       0.53129291
C       -1.46908761      -0.23471411       0.19779224
N       -0.99366850      -1.34554083       0.16434809
N        0.84327408      -1.15430223      -0.50662980
H        2.50933142       0.09150632      -0.25921885
H       -2.38903071       0.11651874      -0.24217576
8
Frame=6 idx=000150 GeodesicLength=0.3659038213011173 rxn_smarts="[c:1]1([H:7])[n:2][n:3][c:4]([H:8])[n:5][n:6]1>>[C:1](#[N:6])[H:7].[C:4](#[N:5])[H:8].[N:2]#[N:3]"
C        1.46109732      -0.15150873      -0.23500154
N        0.59194787       1.36922368       0.36118979
N       -0.55665331       1.32892371       0.56478160
C       -1.47658157      -0.24032027       0.21446393
N       -1.00497313      -1.35627839       0.21642524
N        0.82348951      -1.14295161      -0.51260304
H        2.51005354       0.08521995      -0.29138067
H       -2.34838023       0.10769166      -0.31787531
8
Frame=7 idx=000150 GeodesicLength=0.42912988554547193 rxn_smarts="[c:1]1([H:7])[n:2][n:3][c:4]([H:8])[n:5][n:6]1>>[C:1](#[N:6])[H:7].[C:4](#[N:5])[H:8].[N:2]#[N:3]"
C        1.45953814      -0.14649330      -0.24857255
N        0.59162324       1.37869936       0.38514093
N       -0.55863274       1.33568932       0.59585486
C       -1.48481476      -0.24528106       0.22796889
N       -1.01763812      -1.36558988       0.26336709
N        0.80424261      -1.13237312      -0.51581850
H        2.51017453       0.07847753      -0.32195278
H       -2.30449290       0.09687115      -0.38598793
8
Frame=8 idx=000150 GeodesicLength=0.4927339595555592 rxn_smarts="[c:1]1([H:7])[n:2][n:3][c:4]([H:8])[n:5][n:6]1>>[C:1](#[N:6])[H:7].[C:4](#[N:5])[H:8].[N:2]#[N:3]"
C        1.45773107      -0.14123563      -0.26238576
N        0.59100950       1.38845896       0.40778560
N       -0.56088609       1.34261046       0.62551026
C       -1.49360662      -0.24983923       0.23861170
N       -1.03166247      -1.37392070       0.30564338
N        0.78586146      -1.12249917      -0.51656120
H        2.50983617       0.07154121      -0.35129117
H       -2.25828302       0.08488410      -0.44731281
8
Frame=9 idx=000150 GeodesicLength=0.5568421575481208 rxn_smarts="[c:1]1([H:7])[n:2][n:3][c:4]([H:8])[n:5][n:6]1>>[C:1](#[N:6])[H:7].[C:4](#[N:5])[H:8].[N:2]#[N:3]"
C        1.45543660      -0.13484076      -0.27861987
N        0.59023520       1.39859881       0.42922808
N       -0.56339417       1.34993760       0.65332884
C       -1.50266326      -0.25412894       0.24699521
N       -1.04651274      -1.38149578       0.34413586
N        0.76827156      -1.11292219      -0.51624380
H        2.50973534       0.06328127      -0.37699186
H       -2.21110853       0.07157001      -0.50183246
8
Frame=10 idx=000150 GeodesicLength=0.6211086889744044 rxn_smarts="[c:1]1([H:7])[n:2][n:3][c:4]([H:8])[n:5][n:6]1>>[C:1](#[N:6])[H:7].[C:4](#[N:5])[H:8].[N:2]#[N:3]"
C        1.45493580      -0.13212947      -0.28420227
N        0.58989901       1.40694591       0.45500173
N       -0.56627210       1.35660562       0.68152188
C       -1.51275711      -0.25743242       0.25044164
N       -1.06573291      -1.38835551       0.37882926
N        0.75334992      -1.10688593      -0.50553446
H        2.50617738       0.06178401      -0.41951307
H       -2.15960000       0.05946781      -0.55654471
8
Frame=11 idx=000150 GeodesicLength=0.6859391248544893 rxn_smarts="[c:1]1([H:7])[n:2][n:3][c:4]([H:8])[n:5][n:6]1>>[C:1](#[N:6])[H:7].[C:4](#[N:5])[H:8].[N:2]#[N:3]"
C        1.45417830      -0.12863700      -0.29150975
N        0.58985013       1.41479368       0.48212392
N       -0.56941029       1.36355795       0.70852220
C       -1.52300200      -0.26028753       0.25134160
N       -1.08668640      -1.39450450       0.41093179
N        0.73996606      -1.10212418      -0.49131956
H        2.50113050       0.06062976      -0.46273570
H       -2.10602630       0.04657182      -0.60735449
8
Frame=12 idx=000150 GeodesicLength=0.7512956158552552 rxn_smarts="[c:1]1([H:7])[n:2][n:3][c:4]([H:8])[n:5][n:6]1>>[C:1](#[N:6])[H:7].[C:4](#[N:5])[H:8].[N:2]#[N:3]"
C        1.45312933      -0.12511080      -0.29873831
N        0.59030753       1.42141855       0.51224257
N       -0.57280277       1.37058325       0.73495148
C       -1.53357049      -0.26246166       0.24923824
N       -1.11023437      -1.39972095       0.44093380
N        0.72859154      -1.09944731      -0.47114636
H        2.49316354       0.06154804      -0.51106576
H       -2.04858431       0.03319089      -0.65641567
8
Frame=13 idx=000150 GeodesicLength=0.8172793801942863 rxn_smarts="[c:1]1([H:7])[n:2][n:3][c:4]([H:8])[n:5][n:6]1>>[C:1](#[N:6])[H:7].[C:4](#[N:5])[H:8].[N:2]#[N:3]"
C        1.45179511      -0.12140487      -0.30606851
N        0.59127061       1.42682332       0.54534857
N       -0.57637748       1.37763935       0.76099811
C       -1.54406585      -0.26394827       0.24375965
N       -1.13662048      -1.40408499       0.46845136
N        0.71979793      -1.09892400      -0.44397439
H        2.48155875       0.06442460      -0.56494287
H       -1.98735859       0.01947487      -0.70357193
8
Frame=14 idx=000150 GeodesicLength=0.8837814328198922 rxn_smarts="[c:1]1([H:7])[n:2][n:3][c:4]([H:8])[n:5][n:6]1>>[C:1](#[N:6])[H:7].[C:4](#[N:5])[H:8].[N:2]#[N:3]"
C        1.45050714      -0.11790180      -0.31257846
N        0.59256337       1.43149118       0.58009472
N       -0.57998746       1.38470769       0.78670079
C       -1.55411634      -0.26483786       0.23522520
N       -1.16540300      -1.40764381       0.49297402
N        0.71346158      -1.09970411      -0.41118346
H        2.46591186       0.06862685      -0.62325172
H       -1.92293714       0.00526187      -0.74798110
8
Frame=15 idx=000150 GeodesicLength=0.9506973116813224 rxn_smarts="[c:1]1([H:7])[n:2][n:3][c:4]([H:8])[n:5][n:6]1>>[C:1](#[N:6])[H:7].[C:4](#[N:5])[H:8].[N:2]#[N:3]"
C        1.44970911      -0.11478393      -0.31773688
N        0.59371117       1.43654841       0.61403237
N       -0.58349817       1.39149813       0.81257062
C       -1.56332533      -0.26549321       0.22419396
N       -1.19588508      -1.41083122       0.51377224
N        0.70932028      -1.10074465      -0.37461984
H        2.44645749       0.07291780      -0.68379310
H       -1.85648946      -0.00911133      -0.78841938
8
Frame=16 idx=000150 GeodesicLength=1.0178394734796368 rxn_smarts="[c:1]1([H:7])[n:2][n:3][c:4]([H:8])[n:5][n:6]1>>[C:1](#[N:6])[H:7].[C:4](#[N:5])[H:8].[N:2]#[N:3]"
C        1.44997423      -0.11220623      -0.32106186
N        0.59455334       1.44266436       0.64590906
N       -0.58689227       1.39808026       0.83841171
C       -1.57143929      -0.26612608       0.21135648
N       -1.22712641      -1.41384999       0.53074289
N        0.70672806      -1.10097004      -0.33692013
H        2.42384575       0.07620713      -0.74436771
H       -1.78964341      -0.02379942      -0.82407044
