11
Frame=0 idx=003527 GeodesicLength=0.0 rxn_smarts="[O:1]([C@@:2]1([H:7])[C:3]([H:8])([H:9])[C@:4]1([O:5][H:11])[H:10])[H:6]>>[C:4]([O:5][H:11])[H:10].[O:1]([C:2](=[C:3]([H:8])[H:9])[H:7])[H:6]"
O        1.02873207       1.15981619       0.64871337
C        1.13793729       0.18632008      -0.28928423
C        1.09101088      -1.12048783      -0.07151171
C       -1.84824182       0.18563501      -0.75359291
O       -1.94216914       0.75645922       0.41660429
H        0.94089452       0.75282474       1.51551627
H        1.25597626       0.61182259      -1.27766910
H        0.95930463      -1.53697032       0.92133921
H        1.18946240      -1.80575682      -0.90021644
H       -2.18129756      -0.85740398      -0.54774563
H       -1.63160954       1.66774109       0.33784687
11
Frame=1 idx=003527 GeodesicLength=0.09439064587889469 rxn_smarts="[O:1]([C@@:2]1([H:7])[C:3]([H:8])([H:9])[C@:4]1([O:5][H:11])[H:10])[H:6]>>[C:4]([O:5][H:11])[H:10].[O:1]([C:2](=[C:3]([H:8])[H:9])[H:7])[H:6]"
O        1.00745072       1.16989041       0.64157598
C        1.10369342       0.19088763      -0.29447158
C        1.05067084      -1.11869825      -0.06612508
C       -1.79383673       0.18144755      -0.75441359
O       -1.94534749       0.73948770       0.41837945
H        0.98006258       0.77100025       1.51596347
H        1.23109851       0.60589994      -1.28616572
H        0.97078305      -1.52493960       0.93648111
H        1.19297417      -1.81136103      -0.88234928
H       -2.20110047      -0.84324649      -0.60370150
H       -1.59644859       1.63963188       0.37482674
11
Frame=2 idx=003527 GeodesicLength=0.1888305473025093 rxn_smarts="[O:1]([C@@:2]1([H:7])[C:3]([H:8])([H:9])[C@:4]1([O:5][H:11])[H:10])[H:6]>>[C:4]([O:5][H:11])[H:10].[O:1]([C:2](=[C:3]([H:8])[H:9])[H:7])[H:6]"
O        0.98679736       1.17965438       0.63455046
C        1.07159045       0.19501128      -0.29910034
C        1.01285088      -1.11721251      -0.05916783
C       -1.74305349       0.17596440      -0.75309792
O       -1.94762987       0.72132392       0.42004173
H        1.02013659       0.79050524       1.51295364
H        1.20699872       0.59891559      -1.29432294
H        0.98222816      -1.51187547       0.95086422
H        1.19331999      -1.81637299      -0.86243381
H       -2.21940340      -0.82454624      -0.66394831
H       -1.56383539       1.60863240       0.41366110
11
Frame=3 idx=003527 GeodesicLength=0.28333870610150635 rxn_smarts="[O:1]([C@@:2]1([H:7])[C:3]([H:8])([H:9])[C@:4]1([O:5][H:11])[H:10])[H:6]>>[C:4]([O:5][H:11])[H:10].[O:1]([C:2](=[C:3]([H:8])[H:9])[H:7])[H:6]"
O        0.96703099       1.18937939       0.62771536
C        1.04209114       0.19911212      -0.30328379
C        0.97886591      -1.11561359      -0.05090003
C       -1.69490962       0.16820057      -0.74942379
O       -1.94857960       0.70180919       0.42190563
H        1.05983647       0.81149365       1.50663086
H        1.18388904       0.59153178      -1.30220605
H        0.99055397      -1.49782069       0.96447943
H        1.18925712      -1.82083904      -0.84180183
H       -2.23482732      -0.80188895      -0.72664312
H       -1.53320810       1.57463558       0.45352733
11
Frame=4 idx=003527 GeodesicLength=0.3777915616957195 rxn_smarts="[O:1]([C@@:2]1([H:7])[C:3]([H:8])([H:9])[C@:4]1([O:5][H:11])[H:10])[H:6]>>[C:4]([O:5][H:11])[H:10].[O:1]([C:2](=[C:3]([H:8])[H:9])[H:7])[H:6]"
O        0.94745176       1.19841479       0.62190211
C        1.01456195       0.20304932      -0.30679577
C        0.94832345      -1.11418394      -0.04187451
C       -1.64951700       0.15754000      -0.74356412
O       -1.94890287       0.68277270       0.42336926
H        1.09847446       0.83295784       1.49787088
H        1.16128662       0.58427656      -1.30934028
H        0.99801520      -1.48379306       0.97721163
H        1.18223069      -1.82483562      -0.82157543
H       -2.24759301      -0.77567003      -0.78928531
H       -1.50433127       1.53947143       0.49208154
11
Frame=5 idx=003527 GeodesicLength=0.47159998247526924 rxn_smarts="[O:1]([C@@:2]1([H:7])[C:3]([H:8])([H:9])[C@:4]1([O:5][H:11])[H:10])[H:6]>>[C:4]([O:5][H:11])[H:10].[O:1]([C:2](=[C:3]([H:8])[H:9])[H:7])[H:6]"
O        0.92747731       1.20455763       0.62006121
C        0.98845742       0.20647695      -0.30862376
C        0.92413220      -1.11400787      -0.03398761
C       -1.60671838       0.13934548      -0.73263339
O       -1.94972335       0.67164913       0.42131247
H        1.12988333       0.85039289       1.49014823
H        1.13725795       0.57923785      -1.31403249
H        1.00961890      -1.47303114       0.98669596
H        1.17759798      -1.82730658      -0.80545200
H       -2.26229321      -0.74714416      -0.84281145
H       -1.47569014       1.50982981       0.51932283
11
Frame=6 idx=003527 GeodesicLength=0.5652882000798052 rxn_smarts="[O:1]([C@@:2]1([H:7])[C:3]([H:8])([H:9])[C@:4]1([O:5][H:11])[H:10])[H:6]>>[C:4]([O:5][H:11])[H:10].[O:1]([C:2](=[C:3]([H:8])[H:9])[H:7])[H:6]"
O        0.90771432       1.21060612       0.61784770
C        0.96357536       0.20941818      -0.31034142
C        0.90184725      -1.11409237      -0.02487125
C       -1.56671795       0.11949761      -0.72003902
O       -1.94999938       0.65934320       0.42017319
H        1.16090086       0.86952930       1.47971394
H        1.11316874       0.57313322      -1.31893238
H        1.02141065      -1.46162307       0.99656010
H        1.17040133      -1.83041032      -0.78873848
H       -2.27311279      -0.71349344      -0.89984423
H       -1.44918838       1.47809156       0.54847185
11
Frame=7 idx=003527 GeodesicLength=0.6585255093038273 rxn_smarts="[O:1]([C@@:2]1([H:7])[C:3]([H:8])([H:9])[C@:4]1([O:5][H:11])[H:10])[H:6]>>[C:4]([O:5][H:11])[H:10].[O:1]([C:2](=[C:3]([H:8])[H:9])[H:7])[H:6]"
O        0.88798661       1.21533469       0.61616616
C        0.93933393       0.21148044      -0.31193202
C        0.88276433      -1.11521451      -0.01603537
C       -1.52976050       0.09569795      -0.70363070
O       -1.95044071       0.64980763       0.41894981
H        1.18855301       0.88788491       1.46792515
H        1.08727632       0.56671862      -1.32377587
H        1.03255951      -1.45114727       1.00548420
H        1.16736481      -1.83355132      -0.77251168
H       -2.28167953      -0.67479740      -0.95579761
H       -1.42395778       1.44778625       0.57515793
11
Frame=8 idx=003527 GeodesicLength=0.7512271018745253 rxn_smarts="[O:1]([C@@:2]1([H:7])[C:3]([H:8])([H:9])[C@:4]1([O:5][H:11])[H:10])[H:6]>>[C:4]([O:5][H:11])[H:10].[O:1]([C:2](=[C:3]([H:8])[H:9])[H:7])[H:6]"
O        0.86805375       1.21855095       0.61518368
C        0.91529794       0.21253467      -0.31331225
C        0.86670244      -1.11755327      -0.00766089
C       -1.49602062       0.06759268      -0.68294028
O       -1.95146712       0.64404418       0.41721286
H        1.21258088       0.90502465       1.45534426
H        1.05887921       0.56001841      -1.32847907
H        1.04416413      -1.44189957       1.01336483
H        1.16795152      -1.83668489      -0.75726049
H       -2.28608826      -0.63164185      -1.01016476
H       -1.40005386       1.42001406       0.59871210
11
Frame=9 idx=003527 GeodesicLength=0.8433532842269774 rxn_smarts="[O:1]([C@@:2]1([H:7])[C:3]([H:8])([H:9])[C@:4]1([O:5][H:11])[H:10])[H:6]>>[C:4]([O:5][H:11])[H:10].[O:1]([C:2](=[C:3]([H:8])[H:9])[H:7])[H:6]"
O        0.84744511       1.21910116       0.61633112
C        0.89080659       0.21217004      -0.31380043
C        0.85514543      -1.12185285      -0.00048021
C       -1.46590462       0.03201847      -0.65503482
O       -1.95356340       0.64583235       0.41332452
H        1.23113361       0.91873543       1.44410946
H        1.02574416       0.55375190      -1.33215089
H        1.05927834      -1.43535700       1.01912459
H        1.17396151      -1.83926156      -0.74479164
H       -2.28658303      -0.58447029      -1.06041048
H       -1.37746371       1.39933235       0.61377878
11
Frame=10 idx=003527 GeodesicLength=0.9350346851112735 rxn_smarts="[O:1]([C@@:2]1([H:7])[C:3]([H:8])([H:9])[C@:4]1([O:5][H:11])[H:10])[H:6]>>[C:4]([O:5][H:11])[H:10].[O:1]([C:2](=[C:3]([H:8])[H:9])[H:7])[H:6]"
O        0.82637751       1.21769302       0.61831124
C        0.86532664       0.21038389      -0.31402006
C        0.84632110      -1.12781814       0.00565958
C       -1.43994993      -0.00908481      -0.61981099
O       -1.95641616       0.65303012       0.40830202
H        1.24588811       0.93022781       1.43306437
H        0.98711224       0.54704300      -1.33567314
H        1.07535496      -1.43054994       1.02340854
H        1.18419142      -1.84153229      -0.73414413
H       -2.27771896      -0.53330110      -1.10894574
H       -1.35648693       1.38390845       0.62384832
11
Frame=11 idx=003527 GeodesicLength=1.026596929878302 rxn_smarts="[O:1]([C@@:2]1([H:7])[C:3]([H:8])([H:9])[C@:4]1([O:5][H:11])[H:10])[H:6]>>[C:4]([O:5][H:11])[H:10].[O:1]([C:2](=[C:3]([H:8])[H:9])[H:7])[H:6]"
O        0.80559521       1.21532092       0.61958011
C        0.83874594       0.20773140      -0.31500096
C        0.83748383      -1.13466594       0.01009768
C       -1.41809284      -0.05096710      -0.57950403
O       -1.95925073       0.66363927       0.40287813
H        1.25788195       0.94024750       1.42081054
H        0.94376828       0.53970867      -1.34004237
H        1.08623061      -1.42664727       1.02652007
H        1.19769028      -1.84315956      -0.72450797
H       -2.25326293      -0.48233348      -1.15457446
H       -1.33678959       1.37112561       0.63374326
11
Frame=12 idx=003527 GeodesicLength=1.1185029146483036 rxn_smarts="[O:1]([C@@:2]1([H:7])[C:3]([H:8])([H:9])[C@:4]1([O:5][H:11])[H:10])[H:6]>>[C:4]([O:5][H:11])[H:10].[O:1]([C:2](=[C:3]([H:8])[H:9])[H:7])[H:6]"
O        0.78482498       1.21227040       0.62185596
C        0.81160546       0.20514991      -0.31577803
C        0.82651432      -1.14158759       0.01336023
C       -1.39928654      -0.08941107      -0.53851692
O       -1.96193955       0.67791555       0.39429741
H        1.26893708       0.94937225       1.40830124
H        0.89866031       0.53306407      -1.34382346
H        1.09562514      -1.42366944       1.02755392
H        1.20614679      -1.84415051      -0.71751232
H       -2.21238197      -0.43944706      -1.19393895
H       -1.31870603       1.36049350       0.64420090
11
Frame=13 idx=003527 GeodesicLength=1.2111301684345974 rxn_smarts="[O:1]([C@@:2]1([H:7])[C:3]([H:8])([H:9])[C@:4]1([O:5][H:11])[H:10])[H:6]>>[C:4]([O:5][H:11])[H:10].[O:1]([C:2](=[C:3]([H:8])[H:9])[H:7])[H:6]"
O        0.76419654       1.21070584       0.62232363
C        0.78495953       0.20313622      -0.31725209
C        0.81156374      -1.14739692       0.01791661
C       -1.38188174      -0.12123835      -0.50444010
O       -1.96199535       0.68582151       0.38720842
H        1.28120354       0.96197536       1.39212128
H        0.85646886       0.52546122      -1.34821247
H        1.10291182      -1.41843686       1.02916756
H        1.20606699      -1.84603798      -0.70921185
H       -2.16098833      -0.39729058      -1.23187146
H       -1.30250561       1.34330054       0.66225047
11
Frame=14 idx=003527 GeodesicLength=1.3043994890808466 rxn_smarts="[O:1]([C@@:2]1([H:7])[C:3]([H:8])([H:9])[C@:4]1([O:5][H:11])[H:10])[H:6]>>[C:4]([O:5][H:11])[H:10].[O:1]([C:2](=[C:3]([H:8])[H:9])[H:7])[H:6]"
O        0.74393446       1.21033790       0.62233576
C        0.75964699       0.20203258      -0.31889501
C        0.79376023      -1.15205939       0.02340865
C       -1.36487006      -0.14652155      -0.47793132
O       -1.96017729       0.69055636       0.37985639
H        1.29333190       0.97697920       1.37419205
H        0.81887856       0.51799702      -1.35255919
H        1.10989328      -1.41183258       1.03037213
H        1.19707228      -1.84882362      -0.70107177
H       -2.10368495      -0.36007515      -1.26559500
H       -1.28778541       1.32140923       0.68588730
11
Frame=15 idx=003527 GeodesicLength=1.398340514293976 rxn_smarts="[O:1]([C@@:2]1([H:7])[C:3]([H:8])([H:9])[C@:4]1([O:5][H:11])[H:10])[H:6]>>[C:4]([O:5][H:11])[H:10].[O:1]([C:2](=[C:3]([H:8])[H:9])[H:7])[H:6]"
O        0.72429039       1.21036275       0.62267309
C        0.73568216       0.20169458      -0.32057426
C        0.77471878      -1.15605284       0.02867913
C       -1.34811635      -0.16727948      -0.45625400
O       -1.95648159       0.69521428       0.37142793
H        1.30392234       0.99233852       1.35609966
H        0.78450013       0.51145380      -1.35661209
H        1.11529980      -1.40513326       1.03057397
H        1.18422917      -1.85165668      -0.69382773
H       -2.04414953      -0.32892807      -1.29343216
H       -1.27389529       1.29798640       0.71124645
11
Frame=16 idx=003527 GeodesicLength=1.4927600843566187 rxn_smarts="[O:1]([C@@:2]1([H:7])[C:3]([H:8])([H:9])[C@:4]1([O:5][H:11])[H:10])[H:6]>>[C:4]([O:5][H:11])[H:10].[O:1]([C:2](=[C:3]([H:8])[H:9])[H:7])[H:6]"
O        0.70509440       1.21198978       0.62077887
C        0.71352994       0.20187063      -0.32331963
C        0.75402202      -1.15900577       0.03532570
C       -1.33095585      -0.18338664      -0.44302709
O       -1.95018274       0.69290270       0.36713478
H        1.31385263       1.01099615       1.33513422
H        0.75574210       0.50381163      -1.36189544
H        1.11771546      -1.39631154       1.03217001
H        1.16812969      -1.85562623      -0.68397156
H       -1.98635154      -0.29456604      -1.32007585
H       -1.26059612       1.26732533       0.74174598
