13
Frame=0 idx=005121 GeodesicLength=0.0 rxn_smarts="[C:1]([N:2]([C:3](=[O:4])[O:5][C:6]([H:11])([H:12])[H:13])[H:10])([H:7])([H:8])[H:9]>>[C:1]([N:2]([C:3](=[O:4])[H:13])[H:10])([H:7])([H:8])[H:9].[O:5]=[C:6]([H:11])[H:12]"
C       -2.01626906      -0.07969608      -0.07298718
N       -0.68538050       0.22885683      -0.59956168
C        0.28722452      -0.62886460      -0.16649251
O        0.34249226      -1.78892349       0.00421960
O        1.04690737       0.43023968       1.25056285
C        1.97311501       0.35981048       0.33124892
H       -2.72796514       0.59388623      -0.54714008
H       -2.06715693       0.03474491       1.01310255
H       -2.27527171      -1.10251984      -0.33861950
H       -0.41767596       1.18700602      -0.42936069
H        2.70911449      -0.46048356       0.38133514
H        2.41079066       1.29687843      -0.05787454
H        1.42007495      -0.07093507      -0.76843285
13
Frame=1 idx=005121 GeodesicLength=0.10616650715496552 rxn_smarts="[C:1]([N:2]([C:3](=[O:4])[O:5][C:6]([H:11])([H:12])[H:13])[H:10])([H:7])([H:8])[H:9]>>[C:1]([N:2]([C:3](=[O:4])[H:13])[H:10])([H:7])([H:8])[H:9].[O:5]=[C:6]([H:11])[H:12]"
C       -2.03240775      -0.08356136      -0.07072427
N       -0.70106147       0.23316083      -0.58745325
C        0.27879622      -0.62501233      -0.17501597
O        0.32388518      -1.78951431      -0.01608395
O        1.05378379       0.45379227       1.22878311
C        1.99997537       0.35944815       0.33249448
H       -2.74936283       0.56939526      -0.56587765
H       -2.09775059       0.05136229       1.01214695
H       -2.27491463      -1.11501488      -0.31772159
H       -0.43412812       1.19137128      -0.41654883
H        2.73646058      -0.46019612       0.37534705
H        2.46608339       1.29679147      -0.02101490
H        1.43064087      -0.08202256      -0.77833118
13
Frame=2 idx=005121 GeodesicLength=0.2122365728512654 rxn_smarts="[C:1]([N:2]([C:3](=[O:4])[O:5][C:6]([H:11])([H:12])[H:13])[H:10])([H:7])([H:8])[H:9]>>[C:1]([N:2]([C:3](=[O:4])[H:13])[H:10])([H:7])([H:8])[H:9].[O:5]=[C:6]([H:11])[H:12]"
C       -2.04887836      -0.08752889      -0.06815286
N       -0.71725047       0.23722552      -0.57527049
C        0.27008048      -0.62094078      -0.18416038
O        0.30500161      -1.78972034      -0.03714405
O        1.06110475       0.47828819       1.20502789
C        2.02725935       0.35947631       0.33343306
H       -2.77056773       0.54386354      -0.58446151
H       -2.12906790       0.06838337       1.01080648
H       -2.27485448      -1.12718640      -0.29544685
H       -0.45125954       1.19565494      -0.40431748
H        2.76446048      -0.45931509       0.36897685
H        2.52258288       1.29581056       0.01930714
H        1.44138894      -0.09401093      -0.78859779
13
Frame=3 idx=005121 GeodesicLength=0.31814915037828584 rxn_smarts="[C:1]([N:2]([C:3](=[O:4])[O:5][C:6]([H:11])([H:12])[H:13])[H:10])([H:7])([H:8])[H:9]>>[C:1]([N:2]([C:3](=[O:4])[H:13])[H:10])([H:7])([H:8])[H:9].[O:5]=[C:6]([H:11])[H:12]"
C       -2.06563335      -0.09159435      -0.06520891
N       -0.73394346       0.24102308      -0.56311623
C        0.26108092      -0.61664808      -0.19408202
O        0.28582758      -1.78952525      -0.05899257
O        1.06881267       0.50383788       1.17900902
C        2.05496060       0.36000580       0.33402191
H       -2.79155689       0.51732567      -0.60264131
H       -2.16092577       0.08575135       1.00911470
H       -2.27506965      -1.13897390      -0.27172927
H       -0.46906136       1.19984965      -0.39289358
H        2.79304970      -0.45778092       0.36230029
H        2.58007770       1.29373874       0.06348126
H        1.45238131      -0.10700968      -0.79926328
13
Frame=4 idx=005121 GeodesicLength=0.4238310573653083 rxn_smarts="[C:1]([N:2]([C:3](=[O:4])[O:5][C:6]([H:11])([H:12])[H:13])[H:10])([H:7])([H:8])[H:9]>>[C:1]([N:2]([C:3](=[O:4])[H:13])[H:10])([H:7])([H:8])[H:9].[O:5]=[C:6]([H:11])[H:12]"
C       -2.08259193      -0.09571811      -0.06179197
N       -0.75111915       0.24452581      -0.55113702
C        0.25180854      -0.61215293      -0.20502341
O        0.26636265      -1.78894062      -0.08178111
O        1.07682839       0.53043411       1.15042624
C        2.08305983       0.36113702       0.33424319
H       -2.81232105       0.48972995      -0.62022286
H       -2.19308145       0.10360593       1.00712297
H       -2.27548110      -1.15031277      -0.24630850
H       -0.48748306       1.20394205      -0.38256270
H        2.82217617      -0.45552464       0.35536422
H        2.63813646       1.29039824       0.11203268
H        1.46370569      -0.12112404      -0.81036174
13
Frame=5 idx=005121 GeodesicLength=0.5292058586081501 rxn_smarts="[C:1]([N:2]([C:3](=[O:4])[O:5][C:6]([H:11])([H:12])[H:13])[H:10])([H:7])([H:8])[H:9]>>[C:1]([N:2]([C:3](=[O:4])[H:13])[H:10])([H:7])([H:8])[H:9].[O:5]=[C:6]([H:11])[H:12]"
C       -2.09966069      -0.09986727      -0.05779378
N       -0.76874845       0.24771292      -0.53949565
C        0.24227659      -0.60746141      -0.21724147
O        0.24660007      -1.78796481      -0.10563238
O        1.08508015       0.55812570       1.11892591
C        2.11153816       0.36298809       0.33408038
H       -2.83285906       0.46106221      -0.63692632
H       -2.22525008       0.12200811       1.00490622
H       -2.27599018      -1.16111766      -0.21899101
H       -0.50647570       1.20792826      -0.37364736
H        2.85177745      -0.45247088       0.34824584
H        2.69625013       1.28553310       0.16548793
H        1.47546160      -0.13647634      -0.82191831
13
Frame=6 idx=005121 GeodesicLength=0.6341612384582713 rxn_smarts="[C:1]([N:2]([C:3](=[O:4])[O:5][C:6]([H:11])([H:12])[H:13])[H:10])([H:7])([H:8])[H:9]>>[C:1]([N:2]([C:3](=[O:4])[H:13])[H:10])([H:7])([H:8])[H:9].[O:5]=[C:6]([H:11])[H:12]"
C       -2.11671993      -0.10397872      -0.05312475
N       -0.78675032       0.25059725      -0.52831289
C        0.23250664      -0.60259180      -0.23097786
O        0.22652113      -1.78661604      -0.13068463
O        1.09354580       0.58685361       1.08422319
C        2.14039035       0.36564486       0.33359589
H       -2.85313719       0.43133510      -0.65250851
H       -2.25715560       0.14104124       1.00252494
H       -2.27644879      -1.17126399      -0.18961765
H       -0.52593423       1.21182229      -0.36636402
H        2.88187850      -0.44850643       0.34100415
H        2.75352300       1.27890641       0.22412732
H        1.48778062      -0.15324376      -0.83388520
13
Frame=7 idx=005121 GeodesicLength=0.7385983480287165 rxn_smarts="[C:1]([N:2]([C:3](=[O:4])[O:5][C:6]([H:11])([H:12])[H:13])[H:10])([H:7])([H:8])[H:9]>>[C:1]([N:2]([C:3](=[O:4])[H:13])[H:10])([H:7])([H:8])[H:9].[O:5]=[C:6]([H:11])[H:12]"
C       -2.13375216      -0.10804971      -0.04787749
N       -0.80499772       0.25329330      -0.51735613
C        0.22250351      -0.59750230      -0.24606780
O        0.20603933      -1.78484109      -0.15648679
O        1.10253089       0.61677353       1.04606152
C        2.16975467       0.36919034       0.33276965
H       -2.87305448       0.40087329      -0.66680742
H       -2.28888167       0.16018293       0.99996091
H       -2.27678328      -1.18061518      -0.15883589
H       -0.54580193       1.21572324      -0.36037328
H        2.91266090      -0.44350688       0.33357878
H        2.80907481       1.27024955       0.28751113
H        1.50070712      -0.17177102      -0.84607719
13
Frame=8 idx=005121 GeodesicLength=0.8425471221513052 rxn_smarts="[C:1]([N:2]([C:3](=[O:4])[O:5][C:6]([H:11])([H:12])[H:13])[H:10])([H:7])([H:8])[H:9]>>[C:1]([N:2]([C:3](=[O:4])[H:13])[H:10])([H:7])([H:8])[H:9].[O:5]=[C:6]([H:11])[H:12]"
C       -2.15083087      -0.11220056      -0.04219026
N       -0.82344988       0.25594187      -0.50624913
C        0.21224747      -0.59201878      -0.26216902
O        0.18507790      -1.78244355      -0.18219916
O        1.11250623       0.64860288       1.00377242
C        2.19984956       0.37380757       0.33133023
H       -2.89257549       0.37011000      -0.67963784
H       -2.32065412       0.17845246       0.99727482
H       -2.27701409      -1.18916856      -0.12772694
H       -0.56622029       1.21978405      -0.35522930
H        2.94416249      -0.43745435       0.32593896
H        2.86274568       1.25898338       0.35544680
H        1.51415542      -0.19239641      -0.85836159
13
Frame=9 idx=005121 GeodesicLength=0.9460166465020556 rxn_smarts="[C:1]([N:2]([C:3](=[O:4])[O:5][C:6]([H:11])([H:12])[H:13])[H:10])([H:7])([H:8])[H:9]>>[C:1]([N:2]([C:3](=[O:4])[H:13])[H:10])([H:7])([H:8])[H:9].[O:5]=[C:6]([H:11])[H:12]"
C       -2.16790761      -0.11638436      -0.03605368
N       -0.84199441       0.25863719      -0.49477297
C        0.20176013      -0.58611756      -0.27934187
O        0.16363093      -1.77941720      -0.20771151
O        1.12372859       0.68235665       0.95682601
C        2.23078223       0.37954283       0.32923827
H       -2.91160560       0.33905587      -0.69113484
H       -2.35255735       0.19590739       0.99448586
H       -2.27703687      -1.19689661      -0.09628001
H       -0.58710971       1.22407643      -0.35064339
H        2.97663302      -0.43016960       0.31782984
H        2.91350274       1.24479001       0.42814498
H        1.52817391      -0.21538103      -0.87058668
13
Frame=10 idx=005121 GeodesicLength=1.048984239073668 rxn_smarts="[C:1]([N:2]([C:3](=[O:4])[O:5][C:6]([H:11])([H:12])[H:13])[H:10])([H:7])([H:8])[H:9]>>[C:1]([N:2]([C:3](=[O:4])[H:13])[H:10])([H:7])([H:8])[H:9].[O:5]=[C:6]([H:11])[H:12]"
C       -2.18477749      -0.12043333      -0.02924812
N       -0.86048892       0.26140322      -0.48303234
C        0.19108132      -0.57987536      -0.29817481
O        0.14170318      -1.77586457      -0.23357138
O        1.13616630       0.71758893       0.90467172
C        2.26247423       0.38639184       0.32659559
H       -2.93004298       0.30737394      -0.70133083
H       -2.38432193       0.21335138       0.99165209
H       -2.27656777      -1.20367342      -0.06354796
H       -0.60823392       1.22859538      -0.34679769
H        3.01040846      -0.42125401       0.30892067
H        2.95964947       1.22736388       0.50652269
H        1.54295006      -0.24096788      -0.88265964
13
Frame=11 idx=005121 GeodesicLength=1.1513034017419073 rxn_smarts="[C:1]([N:2]([C:3](=[O:4])[O:5][C:6]([H:11])([H:12])[H:13])[H:10])([H:7])([H:8])[H:9]>>[C:1]([N:2]([C:3](=[O:4])[H:13])[H:10])([H:7])([H:8])[H:9].[O:5]=[C:6]([H:11])[H:12]"
C       -2.20105923      -0.12410527      -0.02140147
N       -0.87874263       0.26419008      -0.47146561
C        0.18025438      -0.57342980      -0.31962494
O        0.11926987      -1.77192824      -0.26067452
O        1.14955606       0.75367463       0.84672401
C        2.29463866       0.39429482       0.32374755
H       -2.94779594       0.27482396      -0.70977884
H       -2.41515080       0.23168610       0.98898258
H       -2.27519223      -1.20920533      -0.02837787
H       -0.62924341       1.23325510      -0.34439183
H        3.04592029      -0.41003268       0.29902556
H        2.99875640       1.20628127       0.59162507
H        1.55878860      -0.26950462      -0.89438967
13
Frame=12 idx=005121 GeodesicLength=1.2533695592430019 rxn_smarts="[C:1]([N:2]([C:3](=[O:4])[O:5][C:6]([H:11])([H:12])[H:13])[H:10])([H:7])([H:8])[H:9]>>[C:1]([N:2]([C:3](=[O:4])[H:13])[H:10])([H:7])([H:8])[H:9].[O:5]=[C:6]([H:11])[H:12]"
C       -2.21777576      -0.12799168      -0.01397256
N       -0.89650262       0.26759055      -0.45669259
C        0.16919300      -0.56625280      -0.34022505
O        0.09625552      -1.76700517      -0.28338320
O        1.16672744       0.79327181       0.78107917
C        2.32866700       0.40407272       0.31864191
H       -2.96403325       0.24332015      -0.71847083
H       -2.44848098       0.24688982       0.98571089
H       -2.27408561      -1.21403994       0.00382244
H       -0.65068399       1.23864188      -0.33883012
H        3.08407011      -0.39611316       0.28593037
H        3.03205789       1.17977385       0.68147792
H        1.57459123      -0.30215803      -0.90508836
13
Frame=13 idx=005121 GeodesicLength=1.3547240804954859 rxn_smarts="[C:1]([N:2]([C:3](=[O:4])[O:5][C:6]([H:11])([H:12])[H:13])[H:10])([H:7])([H:8])[H:9]>>[C:1]([N:2]([C:3](=[O:4])[H:13])[H:10])([H:7])([H:8])[H:9].[O:5]=[C:6]([H:11])[H:12]"
C       -2.23399527      -0.13132143      -0.00604661
N       -0.91328420       0.27122613      -0.44003509
C        0.15800532      -0.55908955      -0.36240169
O        0.07263880      -1.76184410      -0.30431387
O        1.18636470       0.83360666       0.70765022
C        2.36360850       0.41551422       0.31225561
H       -2.97850330       0.21264841      -0.72642818
H       -2.48206712       0.26164220       0.98238383
H       -2.27268999      -1.21747521       0.03608155
H       -0.67133911       1.24425355      -0.33191729
H        3.12617148      -0.37733255       0.26926585
H        3.05393253       1.14774371       0.77772463
H        1.59115767      -0.33957203      -0.91421897
13
Frame=14 idx=005121 GeodesicLength=1.4554988133153104 rxn_smarts="[C:1]([N:2]([C:3](=[O:4])[O:5][C:6]([H:11])([H:12])[H:13])[H:10])([H:7])([H:8])[H:9]>>[C:1]([N:2]([C:3](=[O:4])[H:13])[H:10])([H:7])([H:8])[H:9].[O:5]=[C:6]([H:11])[H:12]"
C       -2.24995870      -0.13410264       0.00184716
N       -0.92859837       0.27518242      -0.41967756
C        0.14675703      -0.55200121      -0.38490200
O        0.04863484      -1.75642281      -0.32031747
O        1.20966535       0.87548861       0.62438105
C        2.39991800       0.42936978       0.30345835
H       -2.99045986       0.18433338      -0.73455228
H       -2.51707859       0.27449520       0.97881374
H       -2.27179437      -1.21966730       0.06605851
H       -0.69088641       1.25016830      -0.32152185
H        3.17387668      -0.35139456       0.24678509
H        3.06172972       1.10744566       0.88033508
H        1.60819469      -0.38289482      -0.92070782
13
Frame=15 idx=005121 GeodesicLength=1.5556033653142098 rxn_smarts="[C:1]([N:2]([C:3](=[O:4])[O:5][C:6]([H:11])([H:12])[H:13])[H:10])([H:7])([H:8])[H:9]>>[C:1]([N:2]([C:3](=[O:4])[H:13])[H:10])([H:7])([H:8])[H:9].[O:5]=[C:6]([H:11])[H:12]"
C       -2.26630073      -0.13640754       0.00817334
N       -0.94151922       0.27973631      -0.39117489
C        0.13551608      -0.54510989      -0.40450560
O        0.02451120      -1.75062176      -0.32588065
O        1.23858132       0.91934146       0.52933937
C        2.43831347       0.44623902       0.29057732
H       -2.99783832       0.16134990      -0.74591294
H       -2.55679950       0.28249340       0.97394246
H       -2.27324651      -1.22109709       0.08879048
H       -0.70850991       1.25647682      -0.30149546
H        3.22965179      -0.31513503       0.21606696
H        3.05273006       1.05647273       0.98450943
H        1.62491028      -0.43373835      -0.92242981
13
Frame=16 idx=005121 GeodesicLength=1.6547488454091632 rxn_smarts="[C:1]([N:2]([C:3](=[O:4])[O:5][C:6]([H:11])([H:12])[H:13])[H:10])([H:7])([H:8])[H:9]>>[C:1]([N:2]([C:3](=[O:4])[H:13])[H:10])([H:7])([H:8])[H:9].[O:5]=[C:6]([H:11])[H:12]"
C       -2.28190704      -0.13728089       0.01357508
N       -0.95099674       0.28418839      -0.35450045
C        0.12430125      -0.53957774      -0.42396923
O        0.00031303      -1.74547189      -0.32454444
O        1.27115774       0.95995099       0.42497255
C        2.47764280       0.46719507       0.27306732
H       -2.99960212       0.14513381      -0.75974887
H       -2.59908749       0.28756142       0.96818060
H       -2.27690097      -1.22110018       0.10571273
H       -0.72189194       1.26219655      -0.27098076
H        3.29377856      -0.26510660       0.18140276
H        3.02109119       0.99498905       1.08418493
H        1.64210173      -0.49267797      -0.91735222
