17
Frame=0 idx=006909 GeodesicLength=0.0 rxn_smarts="[C:1]([C@@:2]1([H:11])[O:3][C:4]([H:12])([H:13])[C@@:5]2([H:14])[C:6]([H:15])([H:16])[C@@:7]12[H:17])([H:8])([H:9])[H:10]>>[C:1]([C:2]([O:3]/[C:4](=[C:5](\[C:7](=[C:6]([H:15])[H:16])[H:17])[H:14])[H:13])([H:11])[H:12])([H:8])([H:9])[H:10]"
C       -2.03002347      -0.43113493       0.05628914
C       -1.04547746       0.52594344      -0.56491750
O       -0.37834113       1.39839708       0.33446060
C        0.82750291       1.37120515      -0.33801251
C        1.60557400       0.12505518      -0.16500419
C        1.17476382      -0.72871308       1.10330765
C        0.80735097      -1.07414530      -0.24646922
H       -2.91204741       0.11660064       0.40630734
H       -1.59755871      -0.97585045       0.89221860
H       -2.35680811      -1.15009141      -0.69557239
H       -1.57094518       1.15493997      -1.29209531
H        0.04379148       0.63537296      -1.32127655
H        1.34510170       2.33203903      -0.32721109
H        2.62837725       0.17017856      -0.52106539
H        0.50729764      -0.10233470       1.69270540
H        1.83764629      -1.35986240       1.69171077
H        1.11379549      -2.00759974      -0.70537536
17
Frame=1 idx=006909 GeodesicLength=0.09745306076915888 rxn_smarts="[C:1]([C@@:2]1([H:11])[O:3][C:4]([H:12])([H:13])[C@@:5]2([H:14])[C:6]([H:15])([H:16])[C@@:7]12[H:17])([H:8])([H:9])[H:10]>>[C:1]([C:2]([O:3]/[C:4](=[C:5](\[C:7](=[C:6]([H:15])[H:16])[H:17])[H:14])[H:13])([H:11])[H:12])([H:8])([H:9])[H:10]"
C       -2.04407688      -0.42185908       0.06458548
C       -1.04247229       0.51169555      -0.56612188
O       -0.37909082       1.39123149       0.32933676
C        0.83027997       1.37644394      -0.33932820
C        1.61546436       0.13815399      -0.16471466
C        1.18515962      -0.74371879       1.10533902
C        0.81703228      -1.06403877      -0.24762235
H       -2.94663178       0.12932640       0.35035118
H       -1.64476636      -0.91785184       0.94655560
H       -2.33388649      -1.18888742      -0.65466046
H       -1.56345347       1.13434592      -1.30282318
H        0.04825684       0.63465603      -1.34175308
H        1.34191022       2.33997619      -0.30366886
H        2.63544000       0.18520356      -0.52937619
H        0.52451719      -0.12106101       1.70671327
H        1.84090283      -1.39612601       1.67895729
H        1.11541479      -1.98749015      -0.73176976
17
Frame=2 idx=006909 GeodesicLength=0.1943390369510971 rxn_smarts="[C:1]([C@@:2]1([H:11])[O:3][C:4]([H:12])([H:13])[C@@:5]2([H:14])[C:6]([H:15])([H:16])[C@@:7]12[H:17])([H:8])([H:9])[H:10]>>[C:1]([C:2]([O:3]/[C:4](=[C:5](\[C:7](=[C:6]([H:15])[H:16])[H:17])[H:14])[H:13])([H:11])[H:12])([H:8])([H:9])[H:10]"
C       -2.05749110      -0.41219775       0.07358435
C       -1.03914182       0.49694737      -0.56706445
O       -0.37982580       1.38430064       0.32391035
C        0.83304993       1.38187507      -0.34063805
C        1.62540590       0.15166960      -0.16389898
C        1.19440799      -0.75991829       1.10633417
C        0.82759116      -1.05387189      -0.25015338
H       -2.97880487       0.13840101       0.29194235
H       -1.69399937      -0.85359347       0.99941210
H       -2.30991643      -1.22714534      -0.60641857
H       -1.55578813       1.11262059      -1.31347652
H        0.05279397       0.63385862      -1.36234504
H        1.33819168       2.34770861      -0.28051225
H        2.64290869       0.20122684      -0.53589547
H        0.54012698      -0.14192112       1.71977162
H        1.84215946      -1.43357190       1.66486001
H        1.11833177      -1.96638859      -0.75941226
17
Frame=3 idx=006909 GeodesicLength=0.2908564805024042 rxn_smarts="[C:1]([C@@:2]1([H:11])[O:3][C:4]([H:12])([H:13])[C@@:5]2([H:14])[C:6]([H:15])([H:16])[C@@:7]12[H:17])([H:8])([H:9])[H:10]>>[C:1]([C:2]([O:3]/[C:4](=[C:5](\[C:7](=[C:6]([H:15])[H:16])[H:17])[H:14])[H:13])([H:11])[H:12])([H:8])([H:9])[H:10]"
C       -2.07033317      -0.40215371       0.08327302
C       -1.03549785       0.48165522      -0.56774680
O       -0.38053924       1.37763069       0.31812374
C        0.83584259       1.38753596      -0.34199908
C        1.63544264       0.16563590      -0.16246864
C        1.20251124      -0.77733724       1.10629830
C        0.83910539      -1.04366455      -0.25402482
H       -3.00823148       0.14335038       0.23178503
H       -1.74531515      -0.78331797       1.04973320
H       -2.28543250      -1.26411119      -0.55050777
H       -1.54799121       1.08972090      -1.32407820
H        0.05738820       0.63294779      -1.38309556
H        1.33398814       2.35533590      -0.25787512
H        2.65089916       0.21832090      -0.54047987
H        0.55391011      -0.16511243       1.73182071
H        1.84151703      -1.47212572       1.64944430
H        1.12273608      -1.94431084      -0.78820242
17
Frame=4 idx=006909 GeodesicLength=0.3868360182946424 rxn_smarts="[C:1]([C@@:2]1([H:11])[O:3][C:4]([H:12])([H:13])[C@@:5]2([H:14])[C:6]([H:15])([H:16])[C@@:7]12[H:17])([H:8])([H:9])[H:10]>>[C:1]([C:2]([O:3]/[C:4](=[C:5](\[C:7](=[C:6]([H:15])[H:16])[H:17])[H:14])[H:13])([H:11])[H:12])([H:8])([H:9])[H:10]"
C       -2.08251276      -0.39172303       0.09370676
C       -1.03150458       0.46577535      -0.56806709
O       -0.38123570       1.37120157       0.31200012
C        0.83861296       1.39337687      -0.34340854
C        1.64550760       0.18003849      -0.16036723
C        1.20946888      -0.79594529       1.10518231
C        0.85158863      -1.03340185      -0.25917697
H       -3.03466635       0.14348880       0.17026542
H       -1.79861541      -0.70692106       1.09663719
H       -2.26062460      -1.29886891      -0.48672795
H       -1.54002630       1.06555329      -1.33448866
H        0.06201115       0.63182454      -1.40394986
H        1.32921955       2.36282839      -0.23582328
H        2.65934012       0.23646217      -0.54306803
H        0.56572120      -0.19074198       1.74278056
H        1.83900378      -1.51172486       1.63256415
H        1.12871182      -1.92122248      -0.81805889
17
Frame=5 idx=006909 GeodesicLength=0.48247428924475744 rxn_smarts="[C:1]([C@@:2]1([H:11])[O:3][C:4]([H:12])([H:13])[C@@:5]2([H:14])[C:6]([H:15])([H:16])[C@@:7]12[H:17])([H:8])([H:9])[H:10]>>[C:1]([C:2]([O:3]/[C:4](=[C:5](\[C:7](=[C:6]([H:15])[H:16])[H:17])[H:14])[H:13])([H:11])[H:12])([H:8])([H:9])[H:10]"
C       -2.09413724      -0.38089922       0.10483397
C       -1.02717585       0.44925175      -0.56799469
O       -0.38192685       1.36497033       0.30554244
C        0.84136698       1.39940778      -0.34489334
C        1.65563251       0.19489127      -0.15753576
C        1.21540375      -0.81572299       1.10302260
C        0.86510292      -1.02309022      -0.26546747
H       -3.05789920       0.13848097       0.10817257
H       -1.85388832      -0.62490383       1.13898283
H       -2.23613792      -1.33051591      -0.41503720
H       -1.53191084       1.04008501      -1.34468732
H        0.06665224       0.63043220      -1.42492378
H        1.32388399       2.37025521      -0.21442902
H        2.66829149       0.25567999      -0.54364469
H        0.57549517      -0.21893251       1.75263371
H        1.83487789      -1.55225492       1.61422224
H        1.13636927      -1.89713491      -0.84879710
17
Frame=6 idx=006909 GeodesicLength=0.5776407645029185 rxn_smarts="[C:1]([C@@:2]1([H:11])[O:3][C:4]([H:12])([H:13])[C@@:5]2([H:14])[C:6]([H:15])([H:16])[C@@:7]12[H:17])([H:8])([H:9])[H:10]>>[C:1]([C:2]([O:3]/[C:4](=[C:5](\[C:7](=[C:6]([H:15])[H:16])[H:17])[H:14])[H:13])([H:11])[H:12])([H:8])([H:9])[H:10]"
C       -2.10516601      -0.36967847       0.11664211
C       -1.02250078       0.43207005      -0.56740451
O       -0.38259049       1.35890172       0.29883166
C        0.84405821       1.40558245      -0.34641298
C        1.66571816       0.21016580      -0.15393453
C        1.22042982      -0.83660376       1.09981728
C        0.87957338      -1.01270804      -0.27273198
H       -3.07773924       0.12768549       0.04600694
H       -1.91100093      -0.53743321       1.17579766
H       -2.21210989      -1.35804468      -0.33560367
H       -1.52361991       1.01327672      -1.35450217
H        0.07123879       0.62866908      -1.44593367
H        1.31793272       2.37759786      -0.19371194
H        2.67758825       0.27590211      -0.54225679
H        0.58331084      -0.24969336       1.76135139
H        1.82929852      -1.59364267       1.59427276
H        1.14557856      -1.87204710      -0.88022757
17
Frame=7 idx=006909 GeodesicLength=0.672565913809594 rxn_smarts="[C:1]([C@@:2]1([H:11])[O:3][C:4]([H:12])([H:13])[C@@:5]2([H:14])[C:6]([H:15])([H:16])[C@@:7]12[H:17])([H:8])([H:9])[H:10]>>[C:1]([C:2]([O:3]/[C:4](=[C:5](\[C:7](=[C:6]([H:15])[H:16])[H:17])[H:14])[H:13])([H:11])[H:12])([H:8])([H:9])[H:10]"
C       -2.11579624      -0.35803266       0.12901759
C       -1.01749697       0.41414914      -0.56624382
O       -0.38329120       1.35287242       0.29193526
C        0.84665469       1.41188923      -0.34796159
C        1.67580881       0.22585716      -0.14955167
C        1.22482576      -0.85853374       1.09565153
C        0.89508273      -1.00226982      -0.28071926
H       -3.09411053       0.11111203      -0.01530196
H       -1.96991825      -0.44540780       1.20592089
H       -2.18945500      -1.38045866      -0.24880168
H       -1.51512731       0.98511094      -1.36389305
H        0.07579428       0.62645240      -1.46697273
H        1.31128579       2.38490302      -0.17367555
H        2.68726633       0.29712713      -0.53905043
H        0.58932488      -0.28304172       1.76898534
H        1.82273220      -1.63572969       1.57272818
H        1.15642003      -1.84599936      -0.91206703
17
Frame=8 idx=006909 GeodesicLength=0.7671157129500015 rxn_smarts="[C:1]([C@@:2]1([H:11])[O:3][C:4]([H:12])([H:13])[C@@:5]2([H:14])[C:6]([H:15])([H:16])[C@@:7]12[H:17])([H:8])([H:9])[H:10]>>[C:1]([C:2]([O:3]/[C:4](=[C:5](\[C:7](=[C:6]([H:15])[H:16])[H:17])[H:14])[H:13])([H:11])[H:12])([H:8])([H:9])[H:10]"
C       -2.12604428      -0.34595607       0.14187444
C       -1.01218045       0.39548718      -0.56436885
O       -0.38397488       1.34680978       0.28499443
C        0.84911017       1.41827531      -0.34944506
C        1.68578384       0.24193001      -0.14437108
C        1.22881653      -0.88142207       1.09056405
C        0.91146428      -0.99174641      -0.28918931
H       -3.10688266       0.08826923      -0.07522415
H       -2.03047290      -0.34924303       1.22838910
H       -2.16830939      -1.39674829      -0.15517874
H       -1.50641925       0.95558052      -1.37266549
H        0.08019933       0.62368124      -1.48791957
H        1.30393254       2.39213800      -0.15425479
H        2.69708205       0.31926057      -0.53417435
H        0.59391285      -0.31887506       1.77556907
H        1.81544714      -1.67842976       1.54944775
H        1.16853508      -1.81901117      -0.94404746
17
Frame=9 idx=006909 GeodesicLength=0.8613842224151564 rxn_smarts="[C:1]([C@@:2]1([H:11])[O:3][C:4]([H:12])([H:13])[C@@:5]2([H:14])[C:6]([H:15])([H:16])[C@@:7]12[H:17])([H:8])([H:9])[H:10]>>[C:1]([C:2]([O:3]/[C:4](=[C:5](\[C:7](=[C:6]([H:15])[H:16])[H:17])[H:14])[H:13])([H:11])[H:12])([H:8])([H:9])[H:10]"
C       -2.13618184      -0.33338651       0.15503889
C       -1.00658037       0.37598871      -0.56167342
O       -0.38472659       1.34050761       0.27814478
C        0.85136222       1.42467499      -0.35079520
C        1.69568214       0.25835744      -0.13842814
C        1.23281285      -0.90517393       1.08464894
C        0.92876968      -0.98113680      -0.29781709
H       -3.11612595       0.05948568      -0.13283799
H       -2.09262160      -0.25007440       1.24214946
H       -2.14969032      -1.40593355      -0.05554000
H       -1.49743307       0.92466056      -1.38071017
H        0.08448135       0.62023918      -1.50868208
H        1.29575639       2.39925973      -0.13537855
H        2.70702010       0.34226572      -0.52790939
H        0.59752152      -0.35708684       1.78118662
H        1.80806316      -1.72152895       1.52440012
H        1.18189033      -1.79111864      -0.97579677
17
Frame=10 idx=006909 GeodesicLength=0.9553726654811561 rxn_smarts="[C:1]([C@@:2]1([H:11])[O:3][C:4]([H:12])([H:13])[C@@:5]2([H:14])[C:6]([H:15])([H:16])[C@@:7]12[H:17])([H:8])([H:9])[H:10]>>[C:1]([C:2]([O:3]/[C:4](=[C:5](\[C:7](=[C:6]([H:15])[H:16])[H:17])[H:14])[H:13])([H:11])[H:12])([H:8])([H:9])[H:10]"
C       -2.14626503      -0.32029779       0.16840508
C       -1.00072837       0.35565586      -0.55801633
O       -0.38550702       1.33388877       0.27158215
C        0.85334804       1.43106068      -0.35187981
C        1.70539393       0.27510403      -0.13173711
C        1.23709113      -0.92975465       1.07796747
C        0.94681952      -0.97043903      -0.30640010
H       -3.12176407       0.02445546      -0.18767370
H       -2.15623309      -0.14835607       1.24636421
H       -2.13373865      -1.40712322       0.04946781
H       -1.48816071       0.89236649      -1.38787179
H        0.08850573       0.61607040      -1.52916252
H        1.28673471       2.40626035      -0.11688541
H        2.71683920       0.36606798      -0.52046739
H        0.60071609      -0.39755986       1.78596768
H        1.80087444      -1.76502535       1.49746851
H        1.19607413      -1.76237404      -1.00712874
17
Frame=11 idx=006909 GeodesicLength=1.0492669216798272 rxn_smarts="[C:1]([C@@:2]1([H:11])[O:3][C:4]([H:12])([H:13])[C@@:5]2([H:14])[C:6]([H:15])([H:16])[C@@:7]12[H:17])([H:8])([H:9])[H:10]>>[C:1]([C:2]([O:3]/[C:4](=[C:5](\[C:7](=[C:6]([H:15])[H:16])[H:17])[H:14])[H:13])([H:11])[H:12])([H:8])([H:9])[H:10]"
C       -2.15664484      -0.30659222       0.18177339
C       -0.99466263       0.33436443      -0.55327395
O       -0.38644643       1.32675093       0.26548591
C        0.85496141       1.43740291      -0.35260657
C        1.71498235       0.29215117      -0.12437462
C        1.24217350      -0.95512581       1.07063753
C        0.96571441      -0.95971010      -0.31463597
H       -3.12401105      -0.01606370      -0.23884097
H       -2.22120111      -0.04535515       1.24019535
H       -2.12173158      -1.39950817       0.15881903
H       -1.47851691       0.85866621      -1.39407039
H        0.09230834       0.61106857      -1.54927547
H        1.27667518       2.41315121      -0.09865035
H        2.72653998       0.39067055      -0.51220762
H        0.60414338      -0.44018020       1.79008309
H        1.79460923      -1.80879206       1.46865569
H        1.21110678      -1.73289857      -1.03771410
17
Frame=12 idx=006909 GeodesicLength=1.142922880753371 rxn_smarts="[C:1]([C@@:2]1([H:11])[O:3][C:4]([H:12])([H:13])[C@@:5]2([H:14])[C:6]([H:15])([H:16])[C@@:7]12[H:17])([H:8])([H:9])[H:10]>>[C:1]([C:2]([O:3]/[C:4](=[C:5](\[C:7](=[C:6]([H:15])[H:16])[H:17])[H:14])[H:13])([H:11])[H:12])([H:8])([H:9])[H:10]"
C       -2.16729181      -0.29221586       0.19508613
C       -0.98840517       0.31213749      -0.54725875
O       -0.38746990       1.31901499       0.26009070
C        0.85614776       1.44363611      -0.35278580
C        1.72429315       0.30945511      -0.11635307
C        1.24822513      -0.98127002       1.06264163
C        0.98518431      -0.94890564      -0.32242334
H       -3.12270637      -0.06256564      -0.28589988
H       -2.28737067       0.05865079       1.22279736
H       -2.11349955      -1.38216210       0.27189482
H       -1.46847758       0.82353682      -1.39908833
H        0.09573139       0.60520026      -1.56886939
H        1.26560980       2.41982506      -0.08041812
H        2.73583362       0.41599219      -0.50329420
H        0.60837711      -0.48484248       1.79363223
H        1.78938248      -1.85281952       1.43773475
H        1.22643631      -1.70266755      -1.06748675
17
Frame=13 idx=006909 GeodesicLength=1.2366351048420312 rxn_smarts="[C:1]([C@@:2]1([H:11])[O:3][C:4]([H:12])([H:13])[C@@:5]2([H:14])[C:6]([H:15])([H:16])[C@@:7]12[H:17])([H:8])([H:9])[H:10]>>[C:1]([C:2]([O:3]/[C:4](=[C:5](\[C:7](=[C:6]([H:15])[H:16])[H:17])[H:14])[H:13])([H:11])[H:12])([H:8])([H:9])[H:10]"
C       -2.17864723      -0.27704419       0.20812174
C       -0.98202806       0.28881546      -0.53982038
O       -0.38871499       1.31048891       0.25556559
C        0.85679809       1.44976443      -0.35233475
C        1.73343805       0.32703048      -0.10776169
C        1.25585904      -1.00818318       1.05411873
C        1.00536429      -0.93810381      -0.32947298
H       -3.11827977      -0.11380912      -0.32786523
H       -2.35435546       0.16209522       1.19353676
H       -2.11066104      -1.35442267       0.38734180
H       -1.45798256       0.78689804      -1.40287085
H        0.09878518       0.59836725      -1.58784944
H        1.25336022       2.42633712      -0.06210167
H        2.74478167       0.44211359      -0.49409180
H        0.61419208      -0.53148669       1.79682411
H        1.78597853      -1.89703158       1.40477002
H        1.24211195      -1.67182927      -1.09610995
17
Frame=14 idx=006909 GeodesicLength=1.330134713672398 rxn_smarts="[C:1]([C@@:2]1([H:11])[O:3][C:4]([H:12])([H:13])[C@@:5]2([H:14])[C:6]([H:15])([H:16])[C@@:7]12[H:17])([H:8])([H:9])[H:10]>>[C:1]([C:2]([O:3]/[C:4](=[C:5](\[C:7](=[C:6]([H:15])[H:16])[H:17])[H:14])[H:13])([H:11])[H:12])([H:8])([H:9])[H:10]"
C       -2.19056309      -0.26096234       0.22088147
C       -0.97552027       0.26441232      -0.53073205
O       -0.39013545       1.30110409       0.25216244
C        0.85681604       1.45567518      -0.35103064
C        1.74220579       0.34481831      -0.09858794
C        1.26509704      -1.03584029       1.04496020
C        1.02597738      -0.92723617      -0.33579578
H       -3.11048294      -0.17019590      -0.36404925
H       -2.42178309       0.26461083       1.15155959
H       -2.11289113      -1.31525342       0.50440130
H       -1.44695274       0.74861962      -1.40516913
H        0.10132980       0.59050779      -1.60603881
H        1.23989552       2.43248250      -0.04336558
H        2.75305009       0.46893434      -0.48466684
H        0.62200900      -0.58001176       1.79969195
H        1.78432125      -1.94135442       1.36942973
H        1.25762681      -1.64031067      -1.12365066
17
Frame=15 idx=006909 GeodesicLength=1.423913233331091 rxn_smarts="[C:1]([C@@:2]1([H:11])[O:3][C:4]([H:12])([H:13])[C@@:5]2([H:14])[C:6]([H:15])([H:16])[C@@:7]12[H:17])([H:8])([H:9])[H:10]>>[C:1]([C:2]([O:3]/[C:4](=[C:5](\[C:7](=[C:6]([H:15])[H:16])[H:17])[H:14])[H:13])([H:11])[H:12])([H:8])([H:9])[H:10]"
C       -2.20352627      -0.24384540       0.23309513
C       -0.96899852       0.23874390      -0.51980811
O       -0.39186250       1.29070928       0.24998793
C        0.85609031       1.46140921      -0.34886038
C        1.75073946       0.36287941      -0.08892703
C        1.27662216      -1.06421486       1.03537879
C        1.04716399      -0.91638601      -0.34106597
H       -3.10015057      -0.22961642      -0.39336065
H       -2.48862970       0.36405550       1.09686198
H       -2.12211042      -1.26439259       0.62092178
H       -1.43536355       0.70854947      -1.40595333
H        0.10332277       0.58149612      -1.62334460
H        1.22507295       2.43837761      -0.02429054
H        2.76073820       0.49660812      -0.47538088
H        0.63267840      -0.63037648       1.80249749
H        1.78519871      -1.98570507       1.33193141
H        1.27301458      -1.60829178      -1.14968302
17
Frame=16 idx=006909 GeodesicLength=1.5177590344194154 rxn_smarts="[C:1]([C@@:2]1([H:11])[O:3][C:4]([H:12])([H:13])[C@@:5]2([H:14])[C:6]([H:15])([H:16])[C@@:7]12[H:17])([H:8])([H:9])[H:10]>>[C:1]([C:2]([O:3]/[C:4](=[C:5](\[C:7](=[C:6]([H:15])[H:16])[H:17])[H:14])[H:13])([H:11])[H:12])([H:8])([H:9])[H:10]"
C       -2.21729847      -0.22554543       0.24476093
C       -0.96243773       0.21182140      -0.50680285
O       -0.39388147       1.27929515       0.24923902
C        0.85449921       1.46684541      -0.34563264
C        1.75878420       0.38116154      -0.07872753
C        1.29033376      -1.09323878       1.02522386
C        1.06865263      -0.90547859      -0.34533631
H       -3.08727455      -0.29188020      -0.41491537
H       -2.55405983       0.45966854       1.02904819
H       -2.13785765      -1.20107908       0.73564402
H       -1.42308689       0.66643889      -1.40498597
H        0.10465159       0.57121061      -1.63959285
H        1.20881584       2.44380097      -0.00456331
H        2.76749112       0.52502616      -0.46617668
H        0.64644559      -0.68242734       1.80520167
H        1.78838297      -2.02990985       1.29191700
H        1.28783968      -1.57570938      -1.17430117
