11
Frame=0 idx=000083 GeodesicLength=0.0 rxn_smarts="[N:1]([c:2]1[c:3]([H:9])[n:4]([H:10])[c:5]([H:11])[n:6]1)([H:7])[H:8]>>[C:5](#[N:6])[H:11].[N:1]([C:2]/[C:3](=[N:4]/[H:10])[H:9])([H:7])[H:8]"
N        1.99628330      -0.00769777      -0.01085947
C        0.77904611      -0.13377807      -0.47946562
C       -0.24267346       0.81207073      -0.49354495
N       -1.44276178       0.71456896      -0.01974663
C       -1.35700101      -1.32583330       0.63297645
N       -0.23504181      -1.62288844       0.55781640
H        2.70837930      -0.65631762      -0.30153364
H        2.21841709       0.54227240       0.80746686
H        0.04804714       1.65184214      -1.13234505
H       -2.06984080       1.41587269      -0.39841230
H       -2.40285413      -1.39011168       0.83764790
11
Frame=1 idx=000083 GeodesicLength=0.04342749518280608 rxn_smarts="[N:1]([c:2]1[c:3]([H:9])[n:4]([H:10])[c:5]([H:11])[n:6]1)([H:7])[H:8]>>[C:5](#[N:6])[H:11].[N:1]([C:2]/[C:3](=[N:4]/[H:10])[H:9])([H:7])[H:8]"
N        1.99466997      -0.00497762      -0.01383143
C        0.77717379      -0.13702321      -0.48555270
C       -0.23807387       0.81749753      -0.50198501
N       -1.43324435       0.70741092      -0.01295396
C       -1.34480624      -1.30905571       0.65798894
N       -0.23072101      -1.63791598       0.54813977
H        2.70269530      -0.66636192      -0.28537322
H        2.20699574       0.54536054       0.80698215
H        0.03956013       1.65652824      -1.14638029
H       -2.07387398       1.40416614      -0.37624657
H       -2.40037547      -1.37562893       0.80921233
11
Frame=2 idx=000083 GeodesicLength=0.08705373589571674 rxn_smarts="[N:1]([c:2]1[c:3]([H:9])[n:4]([H:10])[c:5]([H:11])[n:6]1)([H:7])[H:8]>>[C:5](#[N:6])[H:11].[N:1]([C:2]/[C:3](=[N:4]/[H:10])[H:9])([H:7])[H:8]"
N        1.99262669      -0.00272581      -0.01644369
C        0.77496487      -0.14069446      -0.49141207
C       -0.23382199       0.82238912      -0.51111591
N       -1.42350652       0.70044073      -0.00610734
C       -1.33308168      -1.29372616       0.67969195
N       -0.22739985      -1.65208808       0.54012379
H        2.69624554      -0.67671066      -0.26803572
H        2.19546689       0.54990557       0.80534863
H        0.03078870       1.66071734      -1.16071919
H       -2.07683832       1.39366871      -0.35230917
H       -2.39544433      -1.36117630       0.78097872
11
Frame=3 idx=000083 GeodesicLength=0.13090790841355388 rxn_smarts="[N:1]([c:2]1[c:3]([H:9])[n:4]([H:10])[c:5]([H:11])[n:6]1)([H:7])[H:8]>>[C:5](#[N:6])[H:11].[N:1]([C:2]/[C:3](=[N:4]/[H:10])[H:9])([H:7])[H:8]"
N        1.99031236      -0.00071272      -0.01859830
C        0.77268571      -0.14465728      -0.49723796
C       -0.22979447       0.82675414      -0.52105289
N       -1.41359409       0.69336084       0.00025649
C       -1.32225527      -1.28050612       0.69644002
N       -0.22474238      -1.66587470       0.53288849
H        2.68933436      -0.68695473      -0.24938540
H        2.18366614       0.55574640       0.80303107
H        0.02191740       1.66466537      -1.17517365
H       -2.07863686       1.38426368      -0.32691509
H       -2.38889290      -1.34608488       0.75574723
11
Frame=4 idx=000083 GeodesicLength=0.17486618348947336 rxn_smarts="[N:1]([c:2]1[c:3]([H:9])[n:4]([H:10])[c:5]([H:11])[n:6]1)([H:7])[H:8]>>[C:5](#[N:6])[H:11].[N:1]([C:2]/[C:3](=[N:4]/[H:10])[H:9])([H:7])[H:8]"
N        1.98789585       0.00118166      -0.02064757
C        0.77027716      -0.14914327      -0.50268197
C       -0.22602850       0.83036314      -0.53169721
N       -1.40329424       0.68642685       0.00688369
C       -1.31258664      -1.26906578       0.70922206
N       -0.22227269      -1.67878560       0.52832797
H        2.68202096      -0.69704887      -0.22964312
H        2.17209991       0.56334887       0.79932904
H        0.01258991       1.66756289      -1.19050379
H       -2.07880877       1.37661438      -0.29872375
H       -2.38189295      -1.33145428       0.73013465
11
Frame=5 idx=000083 GeodesicLength=0.2187770240827584 rxn_smarts="[N:1]([c:2]1[c:3]([H:9])[n:4]([H:10])[c:5]([H:11])[n:6]1)([H:7])[H:8]>>[C:5](#[N:6])[H:11].[N:1]([C:2]/[C:3](=[N:4]/[H:10])[H:9])([H:7])[H:8]"
N        1.98540729       0.00290790      -0.02283754
C        0.76762334      -0.15410299      -0.50766250
C       -0.22253585       0.83337122      -0.54269308
N       -1.39281314       0.67964094       0.01362696
C       -1.30397058      -1.25883051       0.71942907
N       -0.21988404      -1.69073935       0.52678700
H        2.67427892      -0.70691759      -0.20943404
H        2.16093911       0.57214267       0.79429989
H        0.00290251       1.66973660      -1.20609763
H       -2.07755163       1.37030046      -0.26851624
H       -2.37439592      -1.31750934       0.70309812
11
Frame=6 idx=000083 GeodesicLength=0.26287486012105477 rxn_smarts="[N:1]([c:2]1[c:3]([H:9])[n:4]([H:10])[c:5]([H:11])[n:6]1)([H:7])[H:8]>>[C:5](#[N:6])[H:11].[N:1]([C:2]/[C:3](=[N:4]/[H:10])[H:9])([H:7])[H:8]"
N        1.98279606       0.00453671      -0.02497646
C        0.76485963      -0.15944335      -0.51244465
C       -0.21930984       0.83574305      -0.55429093
N       -1.38209572       0.67291713       0.02026669
C       -1.29615577      -1.24961106       0.72752645
N       -0.21754701      -1.70235663       0.52675202
H        2.66618679      -0.71635555      -0.18843777
H        2.14980232       0.58197702       0.78831983
H       -0.00715058       1.67130807      -1.22201536
H       -2.07472690       1.36520769      -0.23643227
H       -2.36665898      -1.30392309       0.67573244
11
Frame=7 idx=000083 GeodesicLength=0.3070949432497432 rxn_smarts="[N:1]([c:2]1[c:3]([H:9])[n:4]([H:10])[c:5]([H:11])[n:6]1)([H:7])[H:8]>>[C:5](#[N:6])[H:11].[N:1]([C:2]/[C:3](=[N:4]/[H:10])[H:9])([H:7])[H:8]"
N        1.97995090       0.00606331      -0.02693146
C        0.76204449      -0.16502743      -0.51737373
C       -0.21633743       0.83756715      -0.56664895
N       -1.37118681       0.66622736       0.02652710
C       -1.28870717      -1.24104042       0.73423776
N       -0.21553011      -1.71408938       0.52670848
H        2.65770155      -0.72526176      -0.16650280
H        2.13823298       0.59239544       0.78189421
H       -0.01738396       1.67267755      -1.23797363
H       -2.07049073       1.36086305      -0.20319118
H       -2.35829371      -1.29037487       0.64925421
11
Frame=8 idx=000083 GeodesicLength=0.3514652624023391 rxn_smarts="[N:1]([c:2]1[c:3]([H:9])[n:4]([H:10])[c:5]([H:11])[n:6]1)([H:7])[H:8]>>[C:5](#[N:6])[H:11].[N:1]([C:2]/[C:3](=[N:4]/[H:10])[H:9])([H:7])[H:8]"
N        1.97701459       0.00747336      -0.02910471
C        0.75894422      -0.17109787      -0.52175931
C       -0.21370771       0.83869505      -0.57923887
N       -1.35999857       0.65977763       0.03322397
C       -1.28231521      -1.23323569       0.73951559
N       -0.21338628      -1.72504824       0.52955571
H        2.64873871      -0.73376906      -0.14403045
H        2.12714119       0.60403590       0.77390897
H       -0.02829674       1.67301308      -1.25440783
H       -2.06431523       1.35788436      -0.16751493
H       -2.34981897      -1.27772851       0.61985185
11
Frame=9 idx=000083 GeodesicLength=0.39597888908871576 rxn_smarts="[N:1]([c:2]1[c:3]([H:9])[n:4]([H:10])[c:5]([H:11])[n:6]1)([H:7])[H:8]>>[C:5](#[N:6])[H:11].[N:1]([C:2]/[C:3](=[N:4]/[H:10])[H:9])([H:7])[H:8]"
N        1.97393272       0.00877091      -0.03138309
C        0.75564063      -0.17749956      -0.52596893
C       -0.21139873       0.83928214      -0.59219490
N       -1.34862589       0.65356203       0.04003947
C       -1.27661990      -1.22592783       0.74383804
N       -0.21137970      -1.73565752       0.53384011
H        2.63936455      -0.74173853      -0.12099864
H        2.11606070       0.61624676       0.76503675
H       -0.03966959       1.67282146      -1.27096525
H       -2.05651669       1.35567569      -0.13038582
H       -2.34078812      -1.26553555       0.58914226
11
Frame=10 idx=000083 GeodesicLength=0.44064091452359017 rxn_smarts="[N:1]([c:2]1[c:3]([H:9])[n:4]([H:10])[c:5]([H:11])[n:6]1)([H:7])[H:8]>>[C:5](#[N:6])[H:11].[N:1]([C:2]/[C:3](=[N:4]/[H:10])[H:9])([H:7])[H:8]"
N        1.97064594       0.00990673      -0.03355914
C        0.75220316      -0.18401672      -0.53011209
C       -0.20929967       0.83954247      -0.60534678
N       -1.33719889       0.64737212       0.04648216
C       -1.27131519      -1.21901536       0.74733671
N       -0.20960707      -1.74624528       0.53836859
H        2.62951191      -0.74911292      -0.09749335
H        2.10487844       0.62872372       0.75561121
H       -0.05131999       1.67251494      -1.28720325
H       -2.04728431       1.35370028      -0.09282341
H       -2.33121433      -1.25336997       0.55873935
11
Frame=11 idx=000083 GeodesicLength=0.4854678767831694 rxn_smarts="[N:1]([c:2]1[c:3]([H:9])[n:4]([H:10])[c:5]([H:11])[n:6]1)([H:7])[H:8]>>[C:5](#[N:6])[H:11].[N:1]([C:2]/[C:3](=[N:4]/[H:10])[H:9])([H:7])[H:8]"
N        1.96717590       0.01089002      -0.03566035
C        0.74865444      -0.19061487      -0.53430119
C       -0.20740740       0.83954153      -0.61871564
N       -1.32572315       0.64127080       0.05257758
C       -1.26629760      -1.21238146       0.75021249
N       -0.20811883      -1.75686630       0.54289821
H        2.61920146      -0.75589414      -0.07351278
H        2.09352111       0.64126304       0.74578283
H       -0.06320069       1.67224882      -1.30303806
H       -2.03675898       1.35173563      -0.05512429
H       -2.32104625      -1.24119305       0.52888118
11
Frame=12 idx=000083 GeodesicLength=0.5305790533972232 rxn_smarts="[N:1]([c:2]1[c:3]([H:9])[n:4]([H:10])[c:5]([H:11])[n:6]1)([H:7])[H:8]>>[C:5](#[N:6])[H:11].[N:1]([C:2]/[C:3](=[N:4]/[H:10])[H:9])([H:7])[H:8]"
N        1.96360057       0.01172581      -0.03800067
C        0.74479217      -0.19759858      -0.53803938
C       -0.20590740       0.83896917      -0.63209140
N       -1.31393089       0.63559916       0.05946538
C       -1.26228902      -1.20625743       0.75221019
N       -0.20671200      -1.76691174       0.54961956
H        2.60834472      -0.76219636      -0.04886042
H        2.08260288       0.65469526       0.73444771
H       -0.07595544       1.67102065      -1.31918475
H       -2.02427009       1.35054286      -0.01550486
H       -2.31027550      -1.22958878       0.49593866
11
Frame=13 idx=000083 GeodesicLength=0.5759106821812923 rxn_smarts="[N:1]([c:2]1[c:3]([H:9])[n:4]([H:10])[c:5]([H:11])[n:6]1)([H:7])[H:8]>>[C:5](#[N:6])[H:11].[N:1]([C:2]/[C:3](=[N:4]/[H:10])[H:9])([H:7])[H:8]"
N        1.95985552       0.01235410      -0.04028282
C        0.74076939      -0.20463615      -0.54167104
C       -0.20460749       0.83819804      -0.64539218
N       -1.30203472       0.63009431       0.06631476
C       -1.25866808      -1.20039149       0.75365818
N       -0.20561958      -1.77691651       0.55650805
H        2.59692466      -0.76794418      -0.02371784
H        2.07177778       0.66829708       0.72241498
H       -0.08912591       1.66966634      -1.33492291
H       -2.01046840       1.34919409       0.02412947
H       -2.29880316      -1.21791563       0.46296134
11
Frame=14 idx=000083 GeodesicLength=0.6214295802592558 rxn_smarts="[N:1]([c:2]1[c:3]([H:9])[n:4]([H:10])[c:5]([H:11])[n:6]1)([H:7])[H:8]>>[C:5](#[N:6])[H:11].[N:1]([C:2]/[C:3](=[N:4]/[H:10])[H:9])([H:7])[H:8]"
N        1.95596670       0.01276900      -0.04246870
C        0.73664312      -0.21164888      -0.54532647
C       -0.20344423       0.83735398      -0.65862895
N       -1.29018274       0.62464933       0.07276166
C       -1.25523983      -1.19467341       0.75474258
N       -0.20488800      -1.78700586       0.56309393
H        2.58498756      -0.77311679       0.00178434
H        2.06096462       0.68178045       0.70996328
H       -0.10247194       1.66854835      -1.34995364
H       -1.99565079       1.34743431       0.06316945
H       -2.28668449      -1.20609047       0.43086251
11
Frame=15 idx=000083 GeodesicLength=0.6670867957323663 rxn_smarts="[N:1]([c:2]1[c:3]([H:9])[n:4]([H:10])[c:5]([H:11])[n:6]1)([H:7])[H:8]>>[C:5](#[N:6])[H:11].[N:1]([C:2]/[C:3](=[N:4]/[H:10])[H:9])([H:7])[H:8]"
N        1.95195204       0.01295362      -0.04454563
C        0.73243626      -0.21856221      -0.54903636
C       -0.20234051       0.83656431      -0.67171127
N       -1.27844567       0.61922838       0.07866022
C       -1.25187168      -1.18900083       0.75560858
N       -0.20451332      -1.79718543       0.56920123
H        2.57255285      -0.77772100       0.02741792
H        2.05017761       0.69490762       0.69728064
H       -0.11582849       1.66788420      -1.36406757
H       -1.98012693       1.34502287       0.10106718
H       -2.27399216      -1.19409152       0.40012507
11
Frame=16 idx=000083 GeodesicLength=0.7128514944918662 rxn_smarts="[N:1]([c:2]1[c:3]([H:9])[n:4]([H:10])[c:5]([H:11])[n:6]1)([H:7])[H:8]>>[C:5](#[N:6])[H:11].[N:1]([C:2]/[C:3](=[N:4]/[H:10])[H:9])([H:7])[H:8]"
N        1.94785444       0.01289519      -0.04652478
C        0.72815894      -0.22534274      -0.55276876
C       -0.20124427       0.83591275      -0.68453755
N       -1.26685284       0.61384898       0.08403440
C       -1.24853208      -1.18332637       0.75633620
N       -0.20447071      -1.80741682       0.57488313
H        2.55966097      -0.78179365       0.05300299
H        2.03952006       0.70758237       0.68442337
H       -0.12912803       1.66774145      -1.37718852
H       -1.96415110       1.34186324       0.13753571
H       -2.26081537      -1.18196438       0.37080380
