17
Frame=0 idx=010086 GeodesicLength=0.0 rxn_smarts="[C:1]([C:2]([O:3][C@@:4]([C:5]([H:14])([H:15])[H:16])([C:6](=[O:7])[H:17])[H:13])([H:11])[H:12])([H:8])([H:9])[H:10]>>[C:1]([C:2](=[O:3])[H:12])([H:8])([H:9])[H:10].[C:4](=[C:5]([H:14])[H:16])([C:6](=[O:7])[H:17])[H:13].[H:11][H:15]"
C        2.17339359      -0.93302631       0.44682117
C        1.40669110       0.15265583      -0.28160722
O        0.49906498      -0.16753766      -1.08971312
C       -1.48815833      -0.25099986      -0.26736557
C       -1.47354471       0.43633747       0.91964823
C       -1.90262218       0.41962952      -1.52002683
O       -2.36461551      -0.16144654      -2.46265172
H        2.80449085      -1.45616748      -0.27458246
H        2.80607313      -0.52736527       1.23718668
H        1.47900118      -1.66003593       0.87055331
H        0.80194026       0.78424240       0.87150155
H        1.95712119       1.08835518      -0.47766225
H       -1.45883773      -1.33156900      -0.30079918
H       -1.56813189      -0.10353616       1.85487232
H       -0.07448400       0.71819149       1.05945023
H       -1.81004973       1.46965345       0.93211989
H       -1.78733221       1.52261887      -1.51774496
17
Frame=1 idx=010086 GeodesicLength=0.13284238645578014 rxn_smarts="[C:1]([C:2]([O:3][C@@:4]([C:5]([H:14])([H:15])[H:16])([C:6](=[O:7])[H:17])[H:13])([H:11])[H:12])([H:8])([H:9])[H:10]>>[C:1]([C:2](=[O:3])[H:12])([H:8])([H:9])[H:10].[C:4](=[C:5]([H:14])[H:16])([C:6](=[O:7])[H:17])[H:13].[H:11][H:15]"
C        2.18366638      -0.96720146       0.39001209
C        1.42721841       0.18465871      -0.23853047
O        0.51190348      -0.05854115      -1.06859624
C       -1.46608063      -0.22874942      -0.24895710
C       -1.50193246       0.49616563       0.91729951
C       -1.91948412       0.36341666      -1.52686502
O       -2.34169545      -0.28543672      -2.44400728
H        2.81992278      -1.42277293      -0.37172065
H        2.81409355      -0.63798964       1.21698592
H        1.48297618      -1.72600729       0.74129546
H        0.82466792       0.74041742       0.96601651
H        1.99423475       1.12185160      -0.37072010
H       -1.40691895      -1.30937236      -0.23233519
H       -1.67645479      -0.01142312       1.85925950
H       -0.08394271       0.74026175       1.11921188
H       -1.82560869       1.53301350       0.87619358
H       -1.83656565       1.46770883      -1.58454241
17
Frame=2 idx=010086 GeodesicLength=0.2609215088643265 rxn_smarts="[C:1]([C:2]([O:3][C@@:4]([C:5]([H:14])([H:15])[H:16])([C:6](=[O:7])[H:17])[H:13])([H:11])[H:12])([H:8])([H:9])[H:10]>>[C:1]([C:2](=[O:3])[H:12])([H:8])([H:9])[H:10].[C:4](=[C:5]([H:14])[H:16])([C:6](=[O:7])[H:17])[H:13].[H:11][H:15]"
C        2.19511864      -0.99531033       0.33050830
C        1.44436085       0.21002266      -0.19337709
O        0.52329972       0.04059873      -1.03941664
C       -1.44715334      -0.20531274      -0.22962368
C       -1.53030603       0.55632639       0.91307785
C       -1.92420579       0.30731105      -1.53256958
O       -2.32298575      -0.40297861      -2.41439274
H        2.83875231      -1.37812412      -0.46447145
H        2.82108408      -0.74276725       1.18736961
H        1.49141188      -1.78175212       0.60671950
H        0.83862157       0.68311753       1.05664822
H        2.02326102       1.14692867      -0.26198354
H       -1.36514841      -1.28333047      -0.16170793
H       -1.78420902       0.08225147       1.85461859
H       -0.09594184       0.75976526       1.18043154
H       -1.83769459       1.59480531       0.81821208
H       -1.86826530       1.40844858      -1.65004304
17
Frame=3 idx=010086 GeodesicLength=0.38496977960760176 rxn_smarts="[C:1]([C:2]([O:3][C@@:4]([C:5]([H:14])([H:15])[H:16])([C:6](=[O:7])[H:17])[H:13])([H:11])[H:12])([H:8])([H:9])[H:10]>>[C:1]([C:2](=[O:3])[H:12])([H:8])([H:9])[H:10].[C:4](=[C:5]([H:14])[H:16])([C:6](=[O:7])[H:17])[H:13].[H:11][H:15]"
C        2.20628693      -1.01753177       0.26871013
C        1.45704372       0.22820563      -0.14914370
O        0.53099306       0.12805725      -1.00496846
C       -1.43291987      -0.18144231      -0.20749020
C       -1.55776406       0.61642896       0.90914815
C       -1.92204454       0.25277786      -1.53375278
O       -2.29067558      -0.51437313      -2.38083273
H        2.85971946      -1.32412257      -0.55105916
H        2.82519707      -0.84056147       1.14938054
H        1.50257555      -1.82684957       0.46781442
H        0.84383766       0.61602151       1.13899629
H        2.04410399       1.16267805      -0.15660740
H       -1.33631210      -1.25460401      -0.08741474
H       -1.88792690       0.17717634       1.84407310
H       -0.10941623       0.77707869       1.24195252
H       -1.84650909       1.65432600       0.76152321
H       -1.88618906       1.34673454      -1.71032918
17
Frame=4 idx=010086 GeodesicLength=0.506438053506423 rxn_smarts="[C:1]([C:2]([O:3][C@@:4]([C:5]([H:14])([H:15])[H:16])([C:6](=[O:7])[H:17])[H:13])([H:11])[H:12])([H:8])([H:9])[H:10]>>[C:1]([C:2](=[O:3])[H:12])([H:8])([H:9])[H:10].[C:4](=[C:5]([H:14])[H:16])([C:6](=[O:7])[H:17])[H:13].[H:11][H:15]"
C        2.21822321      -1.03398791       0.20625784
C        1.46603443       0.23928732      -0.10636337
O        0.53578849       0.20302343      -0.96705873
C       -1.42314777      -0.15764951      -0.18357179
C       -1.58379955       0.67605177       0.90494305
C       -1.91474302       0.20053434      -1.53100403
O       -2.25134182      -0.61830951      -2.34254752
H        2.88361473      -1.26203358      -0.62946066
H        2.82768129      -0.93071664       1.10511884
H        1.51780676      -1.86141246       0.32665452
H        0.84103750       0.54115968       1.21207051
H        2.05760208       1.16971985      -0.05539945
H       -1.32105204      -1.22408972      -0.01113802
H       -1.98709743       0.27301300       1.82759498
H       -0.12394030       0.79037329       1.30359268
H       -1.85147922       1.71124984       0.70585290
H       -1.89118733       1.28378683      -1.76554175
17
Frame=5 idx=010086 GeodesicLength=0.6263448247259534 rxn_smarts="[C:1]([C:2]([O:3][C@@:4]([C:5]([H:14])([H:15])[H:16])([C:6](=[O:7])[H:17])[H:13])([H:11])[H:12])([H:8])([H:9])[H:10]>>[C:1]([C:2](=[O:3])[H:12])([H:8])([H:9])[H:10].[C:4](=[C:5]([H:14])[H:16])([C:6](=[O:7])[H:17])[H:13].[H:11][H:15]"
C        2.23112353      -1.04505069       0.14467525
C        1.47268874       0.24429572      -0.06527681
O        0.53920514       0.26707988      -0.92736130
C       -1.41649529      -0.13446112      -0.15917206
C       -1.60767500       0.73430474       0.89981177
C       -1.90306310       0.15073144      -1.52527500
O       -2.21459019      -0.71458864      -2.29807958
H        2.91067494      -1.19359552      -0.69764060
H        2.82842367      -1.01393667       1.05704430
H        1.53667551      -1.88512921       0.18457714
H        0.83177578       0.46151591       1.27564065
H        2.06604560       1.16901974       0.04157073
H       -1.31750307      -1.19254825       0.06487296
H       -2.08080309       0.36838612       1.80480046
H       -0.13917261       0.79910595       1.36492342
H       -1.85269348       1.76462919       0.65098635
H       -1.88461709       1.22024141      -1.81609766
17
Frame=6 idx=010086 GeodesicLength=0.7454759350863548 rxn_smarts="[C:1]([C:2]([O:3][C@@:4]([C:5]([H:14])([H:15])[H:16])([C:6](=[O:7])[H:17])[H:13])([H:11])[H:12])([H:8])([H:9])[H:10]>>[C:1]([C:2](=[O:3])[H:12])([H:8])([H:9])[H:10].[C:4](=[C:5]([H:14])[H:16])([C:6](=[O:7])[H:17])[H:13].[H:11][H:15]"
C        2.24495077      -1.05130418       0.08449285
C        1.47733507       0.24377780      -0.02621583
O        0.54133919       0.32114471      -0.88691865
C       -1.41274004      -0.11202556      -0.13451130
C       -1.62928540       0.79107570       0.89388479
C       -1.88886031       0.10340573      -1.51655642
O       -2.17969712      -0.80367955      -2.24894367
H        2.93973932      -1.12087775      -0.75571511
H        2.82840108      -1.09061293       1.00551476
H        1.55897131      -1.89818084       0.04343768
H        0.81736563       0.37887262       1.33014144
H        2.07024226       1.16130563       0.13377865
H       -1.32484477      -1.16020288       0.13992593
H       -2.16839596       0.46308150       1.77646565
H       -0.15521184       0.80331577       1.42574399
H       -1.85051187       1.81440343       0.59717277
H       -1.86879732       1.15650080      -1.86169754
17
Frame=7 idx=010086 GeodesicLength=0.8642281285304123 rxn_smarts="[C:1]([C:2]([O:3][C@@:4]([C:5]([H:14])([H:15])[H:16])([C:6](=[O:7])[H:17])[H:13])([H:11])[H:12])([H:8])([H:9])[H:10]>>[C:1]([C:2](=[O:3])[H:12])([H:8])([H:9])[H:10].[C:4](=[C:5]([H:14])[H:16])([C:6](=[O:7])[H:17])[H:13].[H:11][H:15]"
C        2.25904628      -1.05334476       0.02596766
C        1.48070498       0.23884874       0.01087656
O        0.54294231       0.36774673      -0.84632194
C       -1.41080524      -0.09051118      -0.10996872
C       -1.64850599       0.84604459       0.88706256
C       -1.87258353       0.05798702      -1.50522291
O       -2.14863808      -0.88655069      -2.19526652
H        2.96966707      -1.04567945      -0.80387650
H        2.82724701      -1.16209386       0.95097849
H        1.58317629      -1.90046435      -0.09613497
H        0.79916976       0.29505397       1.37643795
H        2.07193453       1.14737324       0.22173259
H       -1.34050693      -1.12713454       0.21321219
H       -2.24940915       0.55626137       1.74297195
H       -0.17208933       0.80402369       1.48580229
H       -1.84581435       1.86019046       0.54428330
H       -1.84553562       1.09224901      -1.90253398
17
Frame=8 idx=010086 GeodesicLength=0.9829219758326102 rxn_smarts="[C:1]([C:2]([O:3][C@@:4]([C:5]([H:14])([H:15])[H:16])([C:6](=[O:7])[H:17])[H:13])([H:11])[H:12])([H:8])([H:9])[H:10]>>[C:1]([C:2](=[O:3])[H:12])([H:8])([H:9])[H:10].[C:4](=[C:5]([H:14])[H:16])([C:6](=[O:7])[H:17])[H:13].[H:11][H:15]"
C        2.27336959      -1.05170221      -0.03106097
C        1.48271468       0.22967123       0.04592252
O        0.54375897       0.40749120      -0.80589578
C       -1.41079590      -0.06972891      -0.08532925
C       -1.66554541       0.89967300       0.87953569
C       -1.85558031       0.01426719      -1.49106767
O       -2.11815144      -0.96414092      -2.13840459
H        2.99965127      -0.96905213      -0.84317567
H        2.82571612      -1.22878332       0.89304498
H        1.60927932      -1.89267868      -0.23339229
H        0.77779682       0.21011561       1.41534247
H        2.07113263       1.12761114       0.30553319
H       -1.36390945      -1.09299191       0.28488144
H       -2.32388397       0.64846605       1.70515884
H       -0.18999558       0.80186390       1.54505941
H       -1.83885836       1.90252082       0.49223855
H       -1.81669899       1.02739795      -1.93839088
17
Frame=9 idx=010086 GeodesicLength=1.1016079392315612 rxn_smarts="[C:1]([C:2]([O:3][C@@:4]([C:5]([H:14])([H:15])[H:16])([C:6](=[O:7])[H:17])[H:13])([H:11])[H:12])([H:8])([H:9])[H:10]>>[C:1]([C:2](=[O:3])[H:12])([H:8])([H:9])[H:10].[C:4](=[C:5]([H:14])[H:16])([C:6](=[O:7])[H:17])[H:13].[H:11][H:15]"
C        2.28699624      -1.04671578      -0.08687196
C        1.48402704       0.21738590       0.07905303
O        0.54457870       0.44319225      -0.76560926
C       -1.41147564      -0.04980890      -0.06065505
C       -1.68043075       0.95172608       0.87120165
C       -1.83723662      -0.02874876      -1.47426042
O       -2.09024949      -1.03775098      -2.07752237
H        3.02968397      -0.89183003      -0.87326205
H        2.82160722      -1.29281355       0.83188080
H        1.63552130      -1.87405702      -0.36994248
H        0.75424443       0.12529849       1.44764326
H        2.06951020       1.10249624       0.38605250
H       -1.39230454      -1.05768750       0.35475271
H       -2.39221253       0.73894168       1.66293711
H       -0.20884527       0.79831471       1.60347529
H       -1.83033559       1.94107902       0.44066552
H       -1.78307867       0.96097817      -1.96953830
17
Frame=10 idx=010086 GeodesicLength=1.2203032409482932 rxn_smarts="[C:1]([C:2]([O:3][C@@:4]([C:5]([H:14])([H:15])[H:16])([C:6](=[O:7])[H:17])[H:13])([H:11])[H:12])([H:8])([H:9])[H:10]>>[C:1]([C:2](=[O:3])[H:12])([H:8])([H:9])[H:10].[C:4](=[C:5]([H:14])[H:16])([C:6](=[O:7])[H:17])[H:13].[H:11][H:15]"
C        2.30066257      -1.03861694      -0.14141606
C        1.48432733       0.20148306       0.11036034
O        0.54506249       0.47408738      -0.72555394
C       -1.41339347      -0.03040828      -0.03594591
C       -1.69347491       1.00276756       0.86197550
C       -1.81859024      -0.07077587      -1.45484621
O       -2.06352615      -1.10745100      -2.01351269
H        3.05905205      -0.81463071      -0.89560414
H        2.81740432      -1.35302733       0.76670364
H        1.66312332      -1.84563471      -0.50357628
H        0.72830769       0.03925295       1.47381060
H        2.06614252       1.07200724       0.46354434
H       -1.42610725      -1.02073981       0.42268718
H       -2.45437880       0.82830419       1.61695519
H       -0.22889308       0.79355963       1.66102041
H       -1.82016627       1.97652873       0.38933988
H       -1.74555214       0.89329390      -1.99594185
17
Frame=11 idx=010086 GeodesicLength=1.3389939617194675 rxn_smarts="[C:1]([C:2]([O:3][C@@:4]([C:5]([H:14])([H:15])[H:16])([C:6](=[O:7])[H:17])[H:13])([H:11])[H:12])([H:8])([H:9])[H:10]>>[C:1]([C:2](=[O:3])[H:12])([H:8])([H:9])[H:10].[C:4](=[C:5]([H:14])[H:16])([C:6](=[O:7])[H:17])[H:13].[H:11][H:15]"
C        2.31375863      -1.02757326      -0.19498602
C        1.48389387       0.18253868       0.13990197
O        0.54560863       0.50188343      -0.68552176
C       -1.41589185      -0.01149392      -0.01114097
C       -1.70487852       1.05277081       0.85176056
C       -1.79918497      -0.11243624      -1.43281197
O       -2.03824533      -1.17409535      -1.94593779
H        3.08758554      -0.73813444      -0.91029794
H        2.81189105      -1.41044085       0.69715669
H        1.69094730      -1.80687195      -0.63492115
H        0.70038239      -0.04769399       1.49418802
H        2.06187037       1.03617073       0.53861498
H       -1.46360097      -0.98194065       0.48866939
H       -2.51077766       0.91605073       1.56727020
H       -0.25008233       0.78881925       1.71772766
H       -1.80883790       2.00877874       0.33798418
H       -1.70443824       0.82366829      -2.01765606
17
Frame=12 idx=010086 GeodesicLength=1.45773833150923 rxn_smarts="[C:1]([C:2]([O:3][C@@:4]([C:5]([H:14])([H:15])[H:16])([C:6](=[O:7])[H:17])[H:13])([H:11])[H:12])([H:8])([H:9])[H:10]>>[C:1]([C:2](=[O:3])[H:12])([H:8])([H:9])[H:10].[C:4](=[C:5]([H:14])[H:16])([C:6](=[O:7])[H:17])[H:13].[H:11][H:15]"
C        2.32681817      -1.01363826      -0.24763295
C        1.48236005       0.15999885       0.16755874
O        0.54588323       0.52589609      -0.64566335
C       -1.41944890       0.00730946       0.01387776
C       -1.71473846       1.10234616       0.84047162
C       -1.78000959      -0.15358899      -1.40795476
O       -2.01261925      -1.23806283      -1.87505906
H        3.11509595      -0.66235278      -0.91814879
H        2.80651285      -1.46416156       0.62279652
H        1.72000429      -1.75848589      -0.76295827
H        0.67000754      -0.13705241       1.50856500
H        2.05574540       0.99462528       0.61148102
H       -1.50505864      -0.94072503       0.55277829
H       -2.56152184       1.00299754       1.51425261
H       -0.27247569       0.78427496       1.77365968
H       -1.79587398       2.03844888       0.28639144
H       -1.66068113       0.75217054      -2.03441550
17
Frame=13 idx=010086 GeodesicLength=1.576555927397227 rxn_smarts="[C:1]([C:2]([O:3][C@@:4]([C:5]([H:14])([H:15])[H:16])([C:6](=[O:7])[H:17])[H:13])([H:11])[H:12])([H:8])([H:9])[H:10]>>[C:1]([C:2](=[O:3])[H:12])([H:8])([H:9])[H:10].[C:4](=[C:5]([H:14])[H:16])([C:6](=[O:7])[H:17])[H:13].[H:11][H:15]"
C        2.33901943      -0.99683894      -0.29957225
C        1.48006214       0.13449818       0.19348466
O        0.54646776       0.54810836      -0.60537614
C       -1.42325633       0.02600873       0.03907711
C       -1.72338052       1.15127407       0.82787099
C       -1.75991137      -0.19479791      -1.38032233
O       -1.98736815      -1.29984402      -1.80023139
H        3.14086650      -0.58827780      -0.91972967
H        2.80027680      -1.51473195       0.54294951
H        1.74850838      -1.69975527      -0.88747106
H        0.63745233      -0.22847358       1.51697187
H        2.04884347       0.94705717       0.68281734
H       -1.54856259      -0.89703830       0.61484773
H       -2.60709772       1.08814777       1.45777314
H       -0.29605278       0.78130366       1.82891987
H       -1.78210935       2.06520094       0.23424809
H       -1.61375798       0.67815891      -2.04625748
17
Frame=14 idx=010086 GeodesicLength=1.6957059018137393 rxn_smarts="[C:1]([C:2]([O:3][C@@:4]([C:5]([H:14])([H:15])[H:16])([C:6](=[O:7])[H:17])[H:13])([H:11])[H:12])([H:8])([H:9])[H:10]>>[C:1]([C:2](=[O:3])[H:12])([H:8])([H:9])[H:10].[C:4](=[C:5]([H:14])[H:16])([C:6](=[O:7])[H:17])[H:13].[H:11][H:15]"
C        2.35118266      -0.97695460      -0.35082895
C        1.47655881       0.10529368       0.21727207
O        0.54700597       0.56749929      -0.56498225
C       -1.42782099       0.04497419       0.06466351
C       -1.73065945       1.20023749       0.81379612
C       -1.73997617      -0.23611367      -1.34943524
O       -1.96214753      -1.35982894      -1.72081228
H        3.16589603      -0.51516906      -0.91435977
H        2.79377796      -1.56158016       0.45739852
H        1.77839250      -1.63058669      -1.00880541
H        0.60200773      -0.32389946       1.51832069
H        2.03983669       0.89272666       0.75273015
H       -1.59451827      -0.85025536       0.67521378
H       -2.64762318       1.17267843       1.39776151
H       -0.32068908       0.78003075       1.88355929
H       -1.76657539       2.08960279       0.18123845
H       -1.56464828       0.60134466      -2.05273020
17
Frame=15 idx=010086 GeodesicLength=1.8154638394861617 rxn_smarts="[C:1]([C:2]([O:3][C@@:4]([C:5]([H:14])([H:15])[H:16])([C:6](=[O:7])[H:17])[H:13])([H:11])[H:12])([H:8])([H:9])[H:10]>>[C:1]([C:2](=[O:3])[H:12])([H:8])([H:9])[H:10].[C:4](=[C:5]([H:14])[H:16])([C:6](=[O:7])[H:17])[H:13].[H:11][H:15]"
C        2.36383310      -0.95366324      -0.40132727
C        1.47157113       0.07193676       0.23845909
O        0.54738824       0.58372733      -0.52473643
C       -1.43327944       0.06448143       0.09074187
C       -1.73641035       1.24962366       0.79800817
C       -1.72084552      -0.27773200      -1.31485633
O       -1.93758119      -1.41829370      -1.63581780
H        3.19083449      -0.44277716      -0.90104356
H        2.78724303      -1.60424158       0.36580420
H        1.81099382      -1.55021439      -1.12697875
H        0.56302326      -0.42490253       1.51104580
H        2.02780667       0.83073993       0.82135465
H       -1.64258813      -0.79986877       0.73408231
H       -2.68306424       1.25715866       1.33402661
H       -0.34615872       0.78093721       1.93756797
H       -1.74866640       2.11184687       0.12706775
H       -1.51409974       0.52124152      -2.05339829
17
Frame=16 idx=010086 GeodesicLength=1.9361545074316793 rxn_smarts="[C:1]([C:2]([O:3][C@@:4]([C:5]([H:14])([H:15])[H:16])([C:6](=[O:7])[H:17])[H:13])([H:11])[H:12])([H:8])([H:9])[H:10]>>[C:1]([C:2](=[O:3])[H:12])([H:8])([H:9])[H:10].[C:4](=[C:5]([H:14])[H:16])([C:6](=[O:7])[H:17])[H:13].[H:11][H:15]"
C        2.37756048      -0.92665863      -0.45063355
C        1.46477434       0.03378902       0.25666010
O        0.54758726       0.59634032      -0.48483854
C       -1.43974891       0.08491284       0.11719410
C       -1.74037791       1.29977852       0.78018066
C       -1.70317002      -0.31948948      -1.27636066
O       -1.91427371      -1.47501771      -1.54460368
H        3.21493068      -0.37089006      -0.88034520
H        2.78299247      -1.64077674       0.26824403
H        1.84705736      -1.45922624      -1.23981858
H        0.51948770      -0.53341026       1.49286552
H        2.01168841       0.75981186       0.88886404
H       -1.69214531      -0.74538706       0.79136728
H       -2.71302140       1.34188479       1.26668977
H       -0.37226802       0.78442650       1.99092563
H       -1.72805775       2.13207528       0.07147180
H       -1.46301568       0.43783703      -2.04786273
