10
Frame=0 idx=000603 GeodesicLength=0.0 rxn_smarts="[N:1]([c:2]1[c:3]([H:9])[n:4]([H:10])[n:5][n:6]1)([H:7])[H:8]>>[N:1]([C:2]1=[N:6][C@:3]1([N+:4](=[N-:5])[H:10])[H:9])([H:7])[H:8]"
N        1.88793539       0.05292690       0.43911129
C        0.67361230       0.14237314      -0.17677022
C       -0.06700896       0.87517444      -0.89204476
N       -2.11860731      -0.04734524       0.24510439
N       -1.33247152      -0.98602546       0.46141801
N       -0.19302806      -1.02435365      -0.11859509
H        2.63311040       0.58431477       0.02107519
H        2.13165624      -0.89700915       0.67364223
H       -0.68872543       1.47754501      -1.50982775
H       -2.92647304      -0.17760075       0.85688671
10
Frame=1 idx=000603 GeodesicLength=0.16003000922416954 rxn_smarts="[N:1]([c:2]1[c:3]([H:9])[n:4]([H:10])[n:5][n:6]1)([H:7])[H:8]>>[N:1]([C:2]1=[N:6][C@:3]1([N+:4](=[N-:5])[H:10])[H:9])([H:7])[H:8]"
N        1.88938732       0.04917615       0.43402958
C        0.66829018       0.11903363      -0.16923875
C       -0.12139868       0.86659100      -0.82719992
N       -2.08261297      -0.03592622       0.23079917
N       -1.34484966      -1.01258668       0.45977722
N       -0.18027609      -1.04876413      -0.12970221
H        2.61356473       0.61807673       0.02894550
H        2.15960994      -0.89704621       0.65407371
H       -0.69299897       1.45168987      -1.50827738
H       -2.90871580      -0.11024413       0.82679308
10
Frame=2 idx=000603 GeodesicLength=0.3206731013587908 rxn_smarts="[N:1]([c:2]1[c:3]([H:9])[n:4]([H:10])[n:5][n:6]1)([H:7])[H:8]>>[N:1]([C:2]1=[N:6][C@:3]1([N+:4](=[N-:5])[H:10])[H:9])([H:7])[H:8]"
N        1.88922439       0.04582937       0.42740216
C        0.66302727       0.09494995      -0.16558092
C       -0.16975213       0.84878257      -0.77558130
N       -2.04589040      -0.02181627       0.22575940
N       -1.35812493      -1.03446638       0.46174611
N       -0.16922576      -1.07199843      -0.14051563
H        2.59121631       0.65351961       0.04092850
H        2.18654540      -0.89528405       0.63216570
H       -0.69273817       1.43000362      -1.49899962
H       -2.89428198      -0.04951999       0.79267560
10
Frame=3 idx=000603 GeodesicLength=0.48127634238629247 rxn_smarts="[N:1]([c:2]1[c:3]([H:9])[n:4]([H:10])[n:5][n:6]1)([H:7])[H:8]>>[N:1]([C:2]1=[N:6][C@:3]1([N+:4](=[N-:5])[H:10])[H:9])([H:7])[H:8]"
N        1.88858524       0.04337905       0.42027479
C        0.65737757       0.07219941      -0.16189676
C       -0.21330398       0.82632786      -0.73337395
N       -2.01119300      -0.00997793       0.22191527
N       -1.37164240      -1.05390103       0.46529004
N       -0.15867443      -1.09391486      -0.15233766
H        2.56815721       0.68648896       0.05215265
H        2.21108854      -0.89174758       0.61300795
H       -0.69203853       1.41278673      -1.48424217
H       -2.87835623       0.00835938       0.75920984
10
Frame=4 idx=000603 GeodesicLength=0.6419376552349823 rxn_smarts="[N:1]([c:2]1[c:3]([H:9])[n:4]([H:10])[n:5][n:6]1)([H:7])[H:8]>>[N:1]([C:2]1=[N:6][C@:3]1([N+:4](=[N-:5])[H:10])[H:9])([H:7])[H:8]"
N        1.88760464       0.04114115       0.41295193
C        0.65162156       0.05021068      -0.15798689
C       -0.25276552       0.80066534      -0.69860465
N       -1.97790965       0.00069349       0.22031588
N       -1.38549470      -1.07092527       0.47063530
N       -0.14871441      -1.11461491      -0.16501183
H        2.54396405       0.71837167       0.06510505
H        2.23457800      -0.88743154       0.59364472
H       -0.69140852       1.39799746      -1.46680250
H       -2.86147545       0.06389192       0.72575300
10
Frame=5 idx=000603 GeodesicLength=0.8025325085567392 rxn_smarts="[N:1]([c:2]1[c:3]([H:9])[n:4]([H:10])[n:5][n:6]1)([H:7])[H:8]>>[N:1]([C:2]1=[N:6][C@:3]1([N+:4](=[N-:5])[H:10])[H:9])([H:7])[H:8]"
N        1.88794599       0.03864993       0.40432846
C        0.64587546       0.02979301      -0.15139986
C       -0.28873472       0.77418397      -0.66703983
N       -1.94642631       0.01032729       0.22127353
N       -1.39884610      -1.08405416       0.48165141
N       -0.13937689      -1.13305846      -0.17648344
H        2.52020046       0.74766769       0.07651509
H        2.25825848      -0.88311772       0.57192975
H       -0.69069666       1.38500072      -1.44613131
H       -2.84819971       0.11460772       0.68535620
10
Frame=6 idx=000603 GeodesicLength=0.9631885615582355 rxn_smarts="[N:1]([c:2]1[c:3]([H:9])[n:4]([H:10])[n:5][n:6]1)([H:7])[H:8]>>[N:1]([C:2]1=[N:6][C@:3]1([N+:4](=[N-:5])[H:10])[H:9])([H:7])[H:8]"
N        1.88771761       0.03638983       0.39553071
C        0.64035084       0.00952941      -0.14568176
C       -0.32188640       0.74622348      -0.64092026
N       -1.91523292       0.01991754       0.22588280
N       -1.41242372      -1.09569435       0.49312325
N       -0.13051825      -1.15055739      -0.19014298
H        2.49556629       0.77571828       0.09011431
H        2.28027829      -0.87793707       0.55149570
H       -0.69099047       1.37309090      -1.42495118
H       -2.83286125       0.16331937       0.64554939
10
Frame=7 idx=000603 GeodesicLength=1.1237833554640646 rxn_smarts="[N:1]([c:2]1[c:3]([H:9])[n:4]([H:10])[n:5][n:6]1)([H:7])[H:8]>>[N:1]([C:2]1=[N:6][C@:3]1([N+:4](=[N-:5])[H:10])[H:9])([H:7])[H:8]"
N        1.88788941       0.03394967       0.38584260
C        0.63499165      -0.01014417      -0.13928789
C       -0.35269679       0.71802279      -0.61762436
N       -1.88472760       0.02937540       0.23410631
N       -1.42571141      -1.10492522       0.50786814
N       -0.12228050      -1.16662548      -0.20447524
H        2.47068221       0.80215259       0.10467085
H        2.30176767      -0.87265963       0.53000191
H       -0.69197580       1.36200017      -1.40271730
H       -2.81793883       0.20885388       0.60161497
10
Frame=8 idx=000603 GeodesicLength=1.2843782952172804 rxn_smarts="[N:1]([c:2]1[c:3]([H:9])[n:4]([H:10])[n:5][n:6]1)([H:7])[H:8]>>[N:1]([C:2]1=[N:6][C@:3]1([N+:4](=[N-:5])[H:10])[H:9])([H:7])[H:8]"
N        1.88858180       0.03126166       0.37491863
C        0.62982712      -0.02935503      -0.13226059
C       -0.38159051       0.68999290      -0.59607540
N       -1.85461399       0.03930353       0.24685204
N       -1.43853191      -1.11156997       0.52666720
N       -0.11482903      -1.18121829      -0.21920006
H        2.44578393       0.82677489       0.11987298
H        2.32281773      -0.86741649       0.50706721
H       -0.69383031       1.35172534      -1.37906630
H       -2.80361483       0.25050145       0.55122429
10
Frame=9 idx=000603 GeodesicLength=1.4448282979542997 rxn_smarts="[N:1]([c:2]1[c:3]([H:9])[n:4]([H:10])[n:5][n:6]1)([H:7])[H:8]>>[N:1]([C:2]1=[N:6][C@:3]1([N+:4](=[N-:5])[H:10])[H:9])([H:7])[H:8]"
N        1.89045247       0.02826328       0.36177814
C        0.62481971      -0.04761056      -0.12367315
C       -0.40899701       0.66338199      -0.57360021
N       -1.82479618       0.05014321       0.26603872
N       -1.45028964      -1.11483440       0.55171166
N       -0.10850413      -1.19356698      -0.23358641
H        2.42242393       0.84807374       0.13219633
H        2.34310099      -0.86258636       0.48316348
H       -0.69673041       1.34332793      -1.35179836
H       -2.79147972       0.28540815       0.48776980
10
Frame=10 idx=000603 GeodesicLength=1.6055650850296057 rxn_smarts="[N:1]([c:2]1[c:3]([H:9])[n:4]([H:10])[n:5][n:6]1)([H:7])[H:8]>>[N:1]([C:2]1=[N:6][C@:3]1([N+:4](=[N-:5])[H:10])[H:9])([H:7])[H:8]"
N        1.89157573       0.02543449       0.34774440
C        0.61933735      -0.06594097      -0.11509288
C       -0.43553840       0.63635520      -0.55355756
N       -1.79672865       0.06036588       0.28564058
N       -1.46210360      -1.11633761       0.57894588
N       -0.10315496      -1.20515080      -0.24918520
H        2.39762403       0.86862134       0.14722982
H        2.36212895      -0.85721011       0.45881102
H       -0.69996819       1.33523232      -1.32463348
H       -2.77317226       0.31863026       0.42409742
10
Frame=11 idx=000603 GeodesicLength=1.7665929484787668 rxn_smarts="[N:1]([c:2]1[c:3]([H:9])[n:4]([H:10])[n:5][n:6]1)([H:7])[H:8]>>[N:1]([C:2]1=[N:6][C@:3]1([N+:4](=[N-:5])[H:10])[H:9])([H:7])[H:8]"
N        1.89180748       0.02326901       0.33317057
C        0.61325331      -0.08420277      -0.10601238
C       -0.46122419       0.60897349      -0.53615518
N       -1.77130772       0.06894431       0.30215761
N       -1.47411757      -1.11631094       0.60725586
N       -0.09837489      -1.21599445      -0.26624493
H        2.37180702       0.88787845       0.16347212
H        2.37952220      -0.85082131       0.43565971
H       -0.70239778       1.32780524      -1.29787172
H       -2.74896785       0.35045896       0.36456834
10
Frame=12 idx=000603 GeodesicLength=1.9277484568751047 rxn_smarts="[N:1]([c:2]1[c:3]([H:9])[n:4]([H:10])[n:5][n:6]1)([H:7])[H:8]>>[N:1]([C:2]1=[N:6][C@:3]1([N+:4](=[N-:5])[H:10])[H:9])([H:7])[H:8]"
N        1.89144468       0.02132032       0.31791049
C        0.60681082      -0.10277908      -0.09628643
C       -0.48569839       0.58097565      -0.52181262
N       -1.74819842       0.07692760       0.31518658
N       -1.48635655      -1.11353642       0.63784342
N       -0.09419547      -1.22635785      -0.28350247
H        2.34397098       0.90663182       0.18474213
H        2.39687882      -0.84366527       0.40935689
H       -0.70310555       1.31995720      -1.27278701
H       -2.72155091       0.38052601       0.30934901
10
Frame=13 idx=000603 GeodesicLength=2.0889507244502914 rxn_smarts="[N:1]([c:2]1[c:3]([H:9])[n:4]([H:10])[n:5][n:6]1)([H:7])[H:8]>>[N:1]([C:2]1=[N:6][C@:3]1([N+:4](=[N-:5])[H:10])[H:9])([H:7])[H:8]"
N        1.89050711       0.01959281       0.30203744
C        0.60016875      -0.12192360      -0.08599874
C       -0.50883604       0.55215537      -0.51087688
N       -1.72696511       0.08498952       0.32462472
N       -1.49876836      -1.10724276       0.67112889
N       -0.09049519      -1.23652707      -0.30029284
H        2.31340416       0.92466507       0.21375757
H        2.41498665      -0.83536316       0.37720502
H       -0.70175350       1.31077410      -1.25040155
H       -2.69224847       0.40887972       0.25881636
10
Frame=14 idx=000603 GeodesicLength=2.250337537969971 rxn_smarts="[N:1]([c:2]1[c:3]([H:9])[n:4]([H:10])[n:5][n:6]1)([H:7])[H:8]>>[N:1]([C:2]1=[N:6][C@:3]1([N+:4](=[N-:5])[H:10])[H:9])([H:7])[H:8]"
N        1.88881059       0.01911965       0.28470334
C        0.59344282      -0.14133089      -0.07637419
C       -0.53113842       0.52292709      -0.50298754
N       -1.70688736       0.09203818       0.33112218
N       -1.51099874      -1.09947069       0.70425392
N       -0.08649308      -1.24628564      -0.31922416
H        2.28250307       0.94032943       0.24313687
H        2.43097122      -0.82543659       0.34902603
H       -0.69916073       1.30227663      -1.22847155
H       -2.66104939       0.43583282       0.21481509
10
Frame=15 idx=000603 GeodesicLength=2.4116945571371673 rxn_smarts="[N:1]([c:2]1[c:3]([H:9])[n:4]([H:10])[n:5][n:6]1)([H:7])[H:8]>>[N:1]([C:2]1=[N:6][C@:3]1([N+:4](=[N-:5])[H:10])[H:9])([H:7])[H:8]"
N        1.88670649       0.01978266       0.26458960
C        0.58688189      -0.16078253      -0.06832650
C       -0.55273189       0.49410605      -0.49738702
N       -1.68743271       0.09816837       0.33564210
N       -1.52208852      -1.09015077       0.73753477
N       -0.08217892      -1.25507083      -0.34153799
H        2.25201351       0.95330935       0.27107042
H        2.44400587      -0.81471697       0.32831263
H       -0.69594726       1.29503857      -1.20620724
H       -2.62922846       0.46031608       0.17630924
10
Frame=16 idx=000603 GeodesicLength=2.5730202643999824 rxn_smarts="[N:1]([c:2]1[c:3]([H:9])[n:4]([H:10])[n:5][n:6]1)([H:7])[H:8]>>[N:1]([C:2]1=[N:6][C@:3]1([N+:4](=[N-:5])[H:10])[H:9])([H:7])[H:8]"
N        1.88454521       0.02144369       0.23951393
C        0.58076477      -0.18009325      -0.06351958
C       -0.57381868       0.46636396      -0.49373368
N       -1.66786552       0.10331746       0.33906883
N       -1.53080322      -1.07958697       0.77076832
N       -0.07749397      -1.26224758      -0.36914987
H        2.22209078       0.96347843       0.29662190
H        2.45285244      -0.80397796       0.32003713
H       -0.69318265       1.28910583      -1.18357121
H       -2.59708918       0.48219639       0.14396424
