14
Frame=0 idx=003567 GeodesicLength=0.0 rxn_smarts="[C:1]([C@@:2]1([H:10])[O:3][C:4]([H:11])([H:12])[C@:5]1([O:6][H:14])[H:13])([H:7])([H:8])[H:9]>>[C:1]([C@:2]1([H:10])[C@:5]([C:4]([O:3][H:14])([H:11])[H:12])([H:13])[O:6]1)([H:7])([H:8])[H:9]"
C        1.86659088       0.37803004      -0.54759048
C        0.67132206      -0.24219267       0.01896293
O       -1.13326922      -0.17498531       1.69520696
C       -1.57574998      -0.71961127       0.52296015
C       -0.68739735      -0.00588353      -0.49252266
O       -0.69296708       1.37339199      -0.11438458
H        1.64918105       1.07447427      -1.35266651
H        2.44065279       0.87769999       0.23724198
H        2.51002276      -0.44051053      -0.89905667
H        0.77435551      -0.88180329       0.88844073
H       -2.64477315      -0.53022437       0.31906648
H       -1.41586688      -1.81209865       0.42874498
H       -0.83888612      -0.11401765      -1.56781669
H       -0.92321521       1.21773098       0.86341335
14
Frame=1 idx=003567 GeodesicLength=0.08447351209896051 rxn_smarts="[C:1]([C@@:2]1([H:10])[O:3][C:4]([H:11])([H:12])[C@:5]1([O:6][H:14])[H:13])([H:7])([H:8])[H:9]>>[C:1]([C@:2]1([H:10])[C@:5]([C:4]([O:3][H:14])([H:11])[H:12])([H:13])[O:6]1)([H:7])([H:8])[H:9]"
C        1.86674753       0.38569782      -0.53636888
C        0.66485646      -0.23163332       0.02495084
O       -1.10766271      -0.16779077       1.68809423
C       -1.57651591      -0.72006736       0.52519272
C       -0.69238959      -0.01675818      -0.50137534
O       -0.69274319       1.36630247      -0.14219266
H        1.65875896       1.10695921      -1.32210559
H        2.45200567       0.86056298       0.25542025
H        2.49680854      -0.42951940      -0.91722406
H        0.78393775      -0.90293789       0.86839140
H       -2.64550004      -0.51573027       0.33908391
H       -1.43415950      -1.81432691       0.43858853
H       -0.83848096      -0.14663237      -1.57422014
H       -0.93566301       1.22587401       0.85376478
14
Frame=2 idx=003567 GeodesicLength=0.16897810687761658 rxn_smarts="[C:1]([C@@:2]1([H:10])[O:3][C:4]([H:11])([H:12])[C@:5]1([O:6][H:14])[H:13])([H:7])([H:8])[H:9]>>[C:1]([C@:2]1([H:10])[C@:5]([C:4]([O:3][H:14])([H:11])[H:12])([H:13])[O:6]1)([H:7])([H:8])[H:9]"
C        1.86669625       0.39323012      -0.52522400
C        0.65840011      -0.22171096       0.03084310
O       -1.08282877      -0.16043044       1.68051707
C       -1.57736014      -0.72039431       0.52736471
C       -0.69707457      -0.02795431      -0.51005144
O       -0.69215672       1.35865547      -0.16998717
H        1.66809528       1.13928287      -1.29022114
H        2.46312032       0.84243054       0.27302761
H        2.48326093      -0.41715758      -0.93607068
H        0.79342568      -0.92271958       0.84772005
H       -2.64567660      -0.50102027       0.35834163
H       -1.45263784      -1.81617095       0.44927235
H       -0.83762368      -0.17968449      -1.57997772
H       -0.94764026       1.23364389       0.84444560
14
Frame=3 idx=003567 GeodesicLength=0.2534997269501744 rxn_smarts="[C:1]([C@@:2]1([H:10])[O:3][C:4]([H:11])([H:12])[C@:5]1([O:6][H:14])[H:13])([H:7])([H:8])[H:9]>>[C:1]([C@:2]1([H:10])[C@:5]([C:4]([O:3][H:14])([H:11])[H:12])([H:13])[O:6]1)([H:7])([H:8])[H:9]"
C        1.86642976       0.40060380      -0.51420381
C        0.65195728      -0.21249839       0.03655115
O       -1.05874206      -0.15309245       1.67253870
C       -1.57829714      -0.72059730       0.52943108
C       -0.70147196      -0.03940052      -0.51853493
O       -0.69106911       1.35046102      -0.19760490
H        1.67714453       1.17094862      -1.25743350
H        2.47370906       0.82384869       0.28988591
H        2.46958143      -0.40346841      -0.95511833
H        0.80280315      -0.94118812       0.82652932
H       -2.64532568      -0.48603681       0.37678594
H       -1.47133283      -1.81759558       0.46058337
H       -0.83641574      -0.21295029      -1.58508214
H       -0.95897069       1.24096576       0.83567213
14
Frame=4 idx=003567 GeodesicLength=0.3380625386961124 rxn_smarts="[C:1]([C@@:2]1([H:10])[O:3][C:4]([H:11])([H:12])[C@:5]1([O:6][H:14])[H:13])([H:7])([H:8])[H:9]>>[C:1]([C@:2]1([H:10])[C@:5]([C:4]([O:3][H:14])([H:11])[H:12])([H:13])[O:6]1)([H:7])([H:8])[H:9]"
C        1.86599220       0.40784800      -0.50331822
C        0.64554734      -0.20403140       0.04199721
O       -1.03541540      -0.14573816       1.66418260
C       -1.57936025      -0.72068893       0.53141153
C       -0.70562269      -0.05116525      -0.52686873
O       -0.68950184       1.34169691      -0.22523169
H        1.68592585       1.20224578      -1.22343641
H        2.48395408       0.80449485       0.30603349
H        2.45575012      -0.38829811      -0.97462355
H        0.81211002      -0.95829721       0.80503062
H       -2.64452749      -0.47079986       0.39444520
H       -1.49028145      -1.81860691       0.47260193
H       -0.83492363      -0.24658008      -1.58955621
H       -0.96964685       1.24792037       0.82733222
14
Frame=5 idx=003567 GeodesicLength=0.4226405297670813 rxn_smarts="[C:1]([C@@:2]1([H:10])[O:3][C:4]([H:11])([H:12])[C@:5]1([O:6][H:14])[H:13])([H:7])([H:8])[H:9]>>[C:1]([C@:2]1([H:10])[C@:5]([C:4]([O:3][H:14])([H:11])[H:12])([H:13])[O:6]1)([H:7])([H:8])[H:9]"
C        1.86538590       0.41494706      -0.49260127
C        0.63917969      -0.19632943       0.04713577
O       -1.01282752      -0.13848881       1.65549297
C       -1.58055379      -0.72067566       0.53327530
C       -0.70954381      -0.06320078      -0.53504475
O       -0.68738202       1.33237630      -0.25278575
H        1.69439760       1.23287953      -1.18847761
H        2.49372438       0.78469707       0.32134649
H        2.44187675      -0.37169562      -0.99429847
H        0.82134734      -0.97409746       0.78332735
H       -2.64329721      -0.45528789       0.41128776
H       -1.50948618      -1.81917830       0.48518109
H       -0.83321836      -0.28043460      -1.59339685
H       -0.97960277       1.25448860       0.81955797
14
Frame=6 idx=003567 GeodesicLength=0.5072672065652868 rxn_smarts="[C:1]([C@@:2]1([H:10])[O:3][C:4]([H:11])([H:12])[C@:5]1([O:6][H:14])[H:13])([H:7])([H:8])[H:9]>>[C:1]([C@:2]1([H:10])[C@:5]([C:4]([O:3][H:14])([H:11])[H:12])([H:13])[O:6]1)([H:7])([H:8])[H:9]"
C        1.86461733       0.42194077      -0.48202903
C        0.63285708      -0.18939163       0.05191485
O       -0.99091829      -0.13130022       1.64647871
C       -1.58187763      -0.72053983       0.53504033
C       -0.71325988      -0.07556980      -0.54309965
O       -0.68472371       1.32244982      -0.28042884
H        1.70253636       1.26301091      -1.15230765
H        2.50310975       0.76428455       0.33586193
H        2.42789931      -0.35351414      -1.01427636
H        0.83053825      -0.98869554       0.76148476
H       -2.64164772      -0.43946746       0.42735479
H       -1.52897733      -1.81926613       0.49836397
H       -0.83132950      -0.31467360      -1.59661583
H       -0.98882400       1.26073229       0.81225802
14
Frame=7 idx=003567 GeodesicLength=0.5919159803196803 rxn_smarts="[C:1]([C@@:2]1([H:10])[O:3][C:4]([H:11])([H:12])[C@:5]1([O:6][H:14])[H:13])([H:7])([H:8])[H:9]>>[C:1]([C@:2]1([H:10])[C@:5]([C:4]([O:3][H:14])([H:11])[H:12])([H:13])[O:6]1)([H:7])([H:8])[H:9]"
C        1.86369567       0.42881282      -0.47163549
C        0.62659189      -0.18321606       0.05632831
O       -0.96967832      -0.12426353       1.63718108
C       -1.58333597      -0.72029331       0.53667819
C       -0.71678468      -0.08823278      -0.55102678
O       -0.68148222       1.31193870      -0.30811170
H        1.71029533       1.29242504      -1.11508761
H        2.51206653       0.74346295       0.34946130
H        2.41388288      -0.33380034      -1.03436026
H        0.83970784      -1.00210602       0.73961459
H       -2.63959850      -0.42334487       0.44260917
H       -1.54874438      -1.81885644       0.51203312
H       -0.82931498      -0.34918632      -1.59921344
H       -0.99730109       1.26666017       0.80552950
14
Frame=8 idx=003567 GeodesicLength=0.676617367636767 rxn_smarts="[C:1]([C@@:2]1([H:10])[O:3][C:4]([H:11])([H:12])[C@:5]1([O:6][H:14])[H:13])([H:7])([H:8])[H:9]>>[C:1]([C@:2]1([H:10])[C@:5]([C:4]([O:3][H:14])([H:11])[H:12])([H:13])[O:6]1)([H:7])([H:8])[H:9]"
C        1.86263019       0.43560976      -0.46138567
C        0.62038971      -0.17778825       0.06032920
O       -0.94903191      -0.11734960       1.62759261
C       -1.58493156      -0.71990835       0.53821302
C       -0.72013803      -0.10124607      -0.55885391
O       -0.67766752       1.30077925      -0.33598259
H        1.71763831       1.32122567      -1.07662964
H        2.52065954       0.72215904       0.36218074
H        2.39978294      -0.31241340      -1.05461168
H        0.84886867      -1.01451531       0.71770252
H       -2.63715424      -0.40686760       0.45710545
H       -1.56883638      -1.81788263       0.52622761
H       -0.82719082      -0.38411874      -1.60118181
H       -1.00501888       1.27231623       0.79929416
14
Frame=9 idx=003567 GeodesicLength=0.7614675442206675 rxn_smarts="[C:1]([C@@:2]1([H:10])[O:3][C:4]([H:11])([H:12])[C@:5]1([O:6][H:14])[H:13])([H:7])([H:8])[H:9]>>[C:1]([C@:2]1([H:10])[C@:5]([C:4]([O:3][H:14])([H:11])[H:12])([H:13])[O:6]1)([H:7])([H:8])[H:9]"
C        1.86144035       0.44232220      -0.45128148
C        0.61428890      -0.17312171       0.06394935
O       -0.92893125      -0.11053114       1.61782923
C       -1.58666257      -0.71940164       0.53962493
C       -0.72336216      -0.11462334      -0.56663731
O       -0.67333903       1.28904997      -0.36410524
H        1.72449321       1.34941032      -1.03684737
H        2.52901700       0.70031889       0.37398010
H        2.38556455      -0.28934778      -1.07505805
H        0.85812850      -1.02597338       0.69589709
H       -2.63436855      -0.39001467       0.47077346
H       -1.58919508      -1.81641744       0.54090612
H       -0.82503676      -0.41952677      -1.60263878
H       -1.01203711       1.27785649       0.79360796
14
Frame=10 idx=003567 GeodesicLength=0.8462202469235817 rxn_smarts="[C:1]([C@@:2]1([H:10])[O:3][C:4]([H:11])([H:12])[C@:5]1([O:6][H:14])[H:13])([H:7])([H:8])[H:9]>>[C:1]([C@:2]1([H:10])[C@:5]([C:4]([O:3][H:14])([H:11])[H:12])([H:13])[O:6]1)([H:7])([H:8])[H:9]"
C        1.86008285       0.44901515      -0.44130925
C        0.60820931      -0.16909070       0.06715451
O       -0.90944403      -0.10386843       1.60761122
C       -1.58852807      -0.71870695       0.54094698
C       -0.72634392      -0.12840454      -0.57423483
O       -0.66826667       1.27641329      -0.39257445
H        1.73087968       1.37695920      -0.99547700
H        2.53711246       0.67784219       0.38466062
H        2.37100248      -0.26426527      -1.09572641
H        0.86727846      -1.03648424       0.67405571
H       -2.63110643      -0.37283541       0.48369921
H       -1.60997375      -1.81412844       0.55614530
H       -0.82263544      -0.45544606      -1.60317599
H       -1.01826693       1.28300021       0.78822438
14
Frame=11 idx=003567 GeodesicLength=0.9312444263316783 rxn_smarts="[C:1]([C@@:2]1([H:10])[O:3][C:4]([H:11])([H:12])[C@:5]1([O:6][H:14])[H:13])([H:7])([H:8])[H:9]>>[C:1]([C@:2]1([H:10])[C@:5]([C:4]([O:3][H:14])([H:11])[H:12])([H:13])[O:6]1)([H:7])([H:8])[H:9]"
C        1.85863336       0.45565626      -0.43143920
C        0.60227721      -0.16584672       0.06994519
O       -0.89033041      -0.09731060       1.59730315
C       -1.59053644      -0.71786381       0.54214511
C       -0.72926302      -0.14260115      -0.58186039
O       -0.66270743       1.26321017      -0.42144477
H        1.73656800       1.40383600      -0.95274696
H        2.54507883       0.65502835       0.39447696
H        2.35635526      -0.23745930      -1.11646181
H        0.87667494      -1.04640102       0.65233182
H       -2.62754696      -0.35515716       0.49580321
H       -1.63106845      -1.81131949       0.57179305
H       -0.82035244      -0.49196961      -1.60328549
H       -1.02378245       1.28819808       0.78344013
14
Frame=12 idx=003567 GeodesicLength=1.0161728102043328 rxn_smarts="[C:1]([C@@:2]1([H:10])[O:3][C:4]([H:11])([H:12])[C@:5]1([O:6][H:14])[H:13])([H:7])([H:8])[H:9]>>[C:1]([C@:2]1([H:10])[C@:5]([C:4]([O:3][H:14])([H:11])[H:12])([H:13])[O:6]1)([H:7])([H:8])[H:9]"
C        1.85699118       0.46228437      -0.42172315
C        0.59640210      -0.16336063       0.07221668
O       -0.87167251      -0.09109831       1.58660229
C       -1.59267897      -0.71680926       0.54322302
C       -0.73198378      -0.15718067      -0.58933913
O       -0.65632323       1.24906223      -0.45062842
H        1.74168816       1.42950335      -0.90872752
H        2.55240243       0.63209763       0.40295254
H        2.34164570      -0.20849809      -1.13676675
H        0.88597528      -1.05550093       0.63047498
H       -2.62348513      -0.33701035       0.50720992
H       -1.65264260      -1.80760313       0.58786645
H       -0.81796695      -0.52887168      -1.60253045
H       -1.02835169       1.29298548       0.77916954
14
Frame=13 idx=003567 GeodesicLength=1.101297643916837 rxn_smarts="[C:1]([C@@:2]1([H:10])[O:3][C:4]([H:11])([H:12])[C@:5]1([O:6][H:14])[H:13])([H:7])([H:8])[H:9]>>[C:1]([C@:2]1([H:10])[C@:5]([C:4]([O:3][H:14])([H:11])[H:12])([H:13])[O:6]1)([H:7])([H:8])[H:9]"
C        1.85523869       0.46889104      -0.41209851
C        0.59066663      -0.16162057       0.07404740
O       -0.85331048      -0.08512069       1.57574362
C       -1.59495903      -0.71556246       0.54416474
C       -0.73462000      -0.17217559      -0.59680533
O       -0.64931926       1.23420053      -0.48025409
H        1.74594602       1.45423668      -0.86347543
H        2.55953835       0.60916265       0.41046687
H        2.32681325      -0.17774794      -1.15682603
H        0.89550526      -1.06418913       0.60863421
H       -2.61905192      -0.31831536       0.51781928
H       -1.67462789      -1.80317611       0.60424244
H       -0.81570421      -0.56634103      -1.60119931
H       -1.03211541       1.29775798       0.77554013
14
Frame=14 idx=003567 GeodesicLength=1.1865899802084334 rxn_smarts="[C:1]([C@@:2]1([H:10])[O:3][C:4]([H:11])([H:12])[C@:5]1([O:6][H:14])[H:13])([H:7])([H:8])[H:9]>>[C:1]([C@:2]1([H:10])[C@:5]([C:4]([O:3][H:14])([H:11])[H:12])([H:13])[O:6]1)([H:7])([H:8])[H:9]"
C        1.85336371       0.47552720      -0.40254659
C        0.58506222      -0.16064121       0.07541877
O       -0.83525293      -0.07932692       1.56461399
C       -1.59740156      -0.71408781       0.54497680
C       -0.73715637      -0.18768915      -0.60424047
O       -0.64163140       1.21842418      -0.51051075
H        1.74935284       1.47806297      -0.81642881
H        2.56661063       0.58584921       0.41671626
H        2.31166465      -0.14469590      -1.17673761
H        0.90522970      -1.07237216       0.58680877
H       -2.61422169      -0.29903663       0.52759934
H       -1.69710229      -1.79790174       0.62109031
H       -0.81350291      -0.60457436      -1.59913656
H       -1.03501459       1.30246233       0.77237657
14
Frame=15 idx=003567 GeodesicLength=1.2720178376079712 rxn_smarts="[C:1]([C@@:2]1([H:10])[O:3][C:4]([H:11])([H:12])[C@:5]1([O:6][H:14])[H:13])([H:7])([H:8])[H:9]>>[C:1]([C@:2]1([H:10])[C@:5]([C:4]([O:3][H:14])([H:11])[H:12])([H:13])[O:6]1)([H:7])([H:8])[H:9]"
C        1.85129020       0.48214662      -0.39308841
C        0.57959135      -0.16038971       0.07634746
O       -0.81748304      -0.07391043       1.55324361
C       -1.59993485      -0.71234017       0.54563518
C       -0.73950128      -0.20362484      -0.61159583
O       -0.63313214       1.20167527      -0.54122498
H        1.75173340       1.50055350      -0.76821300
H        2.57326580       0.56275787       0.42179063
H        2.29624073      -0.10964359      -1.19611309
H        0.91508306      -1.08014470       0.56485394
H       -2.60885268      -0.27915312       0.53658361
H       -1.72002793      -1.79160257       0.63814979
H       -0.81125727      -0.64332549      -1.59628912
H       -1.03701534       1.30700137       0.76992020
14
Frame=16 idx=003567 GeodesicLength=1.3576429216174288 rxn_smarts="[C:1]([C@@:2]1([H:10])[O:3][C:4]([H:11])([H:12])[C@:5]1([O:6][H:14])[H:13])([H:7])([H:8])[H:9]>>[C:1]([C@:2]1([H:10])[C@:5]([C:4]([O:3][H:14])([H:11])[H:12])([H:13])[O:6]1)([H:7])([H:8])[H:9]"
C        1.84908221       0.48878294      -0.38371864
C        0.57427753      -0.16089156       0.07683199
O       -0.79992342      -0.06888991       1.54164790
C       -1.60262107      -0.71033920       0.54611393
C       -0.74174241      -0.22001432      -0.61890292
O       -0.62384995       1.18397723      -0.57248069
H        1.75301657       1.52171012      -0.71879778
H        2.57972283       0.53996011       0.42562015
H        2.28058632      -0.07253261      -1.21481534
H        0.92519333      -1.08759495       0.54282713
H       -2.60302452      -0.25862304       0.54471404
H       -1.74349539      -1.78434039       0.65542594
H       -0.80914946      -0.68266157      -1.59267624
H       -1.03807255       1.31145717       0.76821054
