13
Frame=0 idx=011290 GeodesicLength=0.0 rxn_smarts="[C:1]([C:2]([O:3]/[C:4](=[N:5]/[H:13])[C:6]#[N:7])([H:11])[H:12])([H:8])([H:9])[H:10]>>[C:1]([C:2](=[O+:3][C:4]([N:5]([H:11])[H:13])=[C:6]=[N-:7])[H:12])([H:8])([H:9])[H:10]"
C       -2.19483782       0.30217331      -0.13042875
C       -0.86921312      -0.36827087       0.05231933
O        0.14212643       0.61748415       0.24555881
C        1.34200486       0.17457867       0.14496439
N        1.47836278      -1.12603986      -0.05163678
C        2.41525880       1.11467144       0.14456162
N        3.31020344       1.83481002       0.15692613
H       -2.20988577       0.91654712      -1.03274718
H       -2.95569245      -0.47026276      -0.25326157
H       -2.49401706       0.93329353       0.71577263
H        0.49737512      -1.40387271      -0.45890271
H       -0.81900153      -1.07021034       0.89022433
H        2.35731636      -1.45490176      -0.42335030
13
Frame=1 idx=011290 GeodesicLength=0.06643110284301672 rxn_smarts="[C:1]([C:2]([O:3]/[C:4](=[N:5]/[H:13])[C:6]#[N:7])([H:11])[H:12])([H:8])([H:9])[H:10]>>[C:1]([C:2](=[O+:3][C:4]([N:5]([H:11])[H:13])=[C:6]=[N-:7])[H:12])([H:8])([H:9])[H:10]"
C       -2.19230465       0.30455253      -0.13109358
C       -0.86855932      -0.36758302       0.05767555
O        0.14168406       0.61181582       0.25953276
C        1.34561805       0.16840018       0.16229818
N        1.48091734      -1.12934281      -0.05476660
C        2.40952913       1.11853773       0.12905028
N        3.30203306       1.84212337       0.13063184
H       -2.19392674       0.93920573      -1.01921873
H       -2.95137231      -0.46501891      -0.28052799
H       -2.50286911       0.91645186       0.72471176
H        0.48302810      -1.40740954      -0.46928941
H       -0.82458808      -1.07481886       0.89121790
H        2.37081048      -1.45691408      -0.40022197
13
Frame=2 idx=011290 GeodesicLength=0.13284566482467008 rxn_smarts="[C:1]([C:2]([O:3]/[C:4](=[N:5]/[H:13])[C:6]#[N:7])([H:11])[H:12])([H:8])([H:9])[H:10]>>[C:1]([C:2](=[O+:3][C:4]([N:5]([H:11])[H:13])=[C:6]=[N-:7])[H:12])([H:8])([H:9])[H:10]"
C       -2.18972330       0.30696787      -0.13150077
C       -0.86780465      -0.36687622       0.06269130
O        0.14137642       0.60619084       0.27250079
C        1.34937596       0.16244018       0.17765441
N        1.48365471      -1.13234677      -0.05881708
C        2.40368305       1.12191498       0.11499522
N        3.29305522       1.84956168       0.10447094
H       -2.17864539       0.96142082      -1.00489465
H       -2.94668060      -0.45926193      -0.30691714
H       -2.51141289       0.89957073       0.73337348
H        0.46835080      -1.41062210      -0.48081835
H       -0.82961161      -1.07921519       0.89191145
H        2.38438228      -1.45974490      -0.37464960
13
Frame=3 idx=011290 GeodesicLength=0.1992408416906653 rxn_smarts="[C:1]([C:2]([O:3]/[C:4](=[N:5]/[H:13])[C:6]#[N:7])([H:11])[H:12])([H:8])([H:9])[H:10]>>[C:1]([C:2](=[O+:3][C:4]([N:5]([H:11])[H:13])=[C:6]=[N-:7])[H:12])([H:8])([H:9])[H:10]"
C       -2.18707603       0.30943440      -0.13169227
C       -0.86694156      -0.36616843       0.06733957
O        0.14118891       0.60055572       0.28478149
C        1.35326806       0.15661393       0.19159752
N        1.48663504      -1.13506344      -0.06375706
C        2.39786720       1.12482516       0.10286882
N        3.28327093       1.85723307       0.07747200
H       -2.16392240       0.98334383      -0.98974574
H       -2.94163035      -0.45295236      -0.33265895
H       -2.51969558       0.88253391       0.74180022
H        0.45338506      -1.41338848      -0.49358091
H       -0.83417595      -1.08363882       0.89210434
H        2.39782666      -1.46332848      -0.34652903
13
Frame=4 idx=011290 GeodesicLength=0.26560288027471207 rxn_smarts="[C:1]([C:2]([O:3]/[C:4](=[N:5]/[H:13])[C:6]#[N:7])([H:11])[H:12])([H:8])([H:9])[H:10]>>[C:1]([C:2](=[O+:3][C:4]([N:5]([H:11])[H:13])=[C:6]=[N-:7])[H:12])([H:8])([H:9])[H:10]"
C       -2.18439378       0.31188207      -0.13166141
C       -0.86595648      -0.36544692       0.07164739
O        0.14113422       0.59499901       0.29611676
C        1.35729848       0.15095426       0.20409032
N        1.48992137      -1.13745318      -0.06970466
C        2.39223865       1.12736420       0.09232030
N        3.27286192       1.86505524       0.05038957
H       -2.14988957       1.00464728      -0.97399829
H       -2.93630696      -0.44623908      -0.35741568
H       -2.52762845       0.86553897       0.74988277
H        0.43808926      -1.41572784      -0.50748678
H       -0.83818281      -1.08795334       0.89193230
H        2.41081414      -1.46762067      -0.31611260
13
Frame=5 idx=011290 GeodesicLength=0.33194425942954237 rxn_smarts="[C:1]([C:2]([O:3]/[C:4](=[N:5]/[H:13])[C:6]#[N:7])([H:11])[H:12])([H:8])([H:9])[H:10]>>[C:1]([C:2](=[O+:3][C:4]([N:5]([H:11])[H:13])=[C:6]=[N-:7])[H:12])([H:8])([H:9])[H:10]"
C       -2.18161286       0.31435728      -0.13144595
C       -0.86481460      -0.36473791       0.07558498
O        0.14121803       0.58942408       0.30695931
C        1.36148576       0.14538078       0.21567340
N        1.49359829      -1.13952514      -0.07648759
C        2.38685388       1.12957207       0.08350478
N        3.26163425       1.87315301       0.02216851
H       -2.13630541       1.02571761      -0.95744166
H       -2.93063268      -0.43900365      -0.38168476
H       -2.53531743       0.84827452       0.75776587
H        0.42256887      -1.41750460      -0.52260262
H       -0.84175094      -1.09244818       0.89114970
H        2.42307485      -1.47265988      -0.28314396
13
Frame=6 idx=011290 GeodesicLength=0.3982365212554423 rxn_smarts="[C:1]([C:2]([O:3]/[C:4](=[N:5]/[H:13])[C:6]#[N:7])([H:11])[H:12])([H:8])([H:9])[H:10]>>[C:1]([C:2](=[O+:3][C:4]([N:5]([H:11])[H:13])=[C:6]=[N-:7])[H:12])([H:8])([H:9])[H:10]"
C       -2.17881035       0.31669658      -0.13101244
C       -0.86349970      -0.36400212       0.07921446
O        0.14147655       0.58406276       0.31648221
C        1.36583439       0.14004720       0.22574740
N        1.49770759      -1.14122002      -0.08425160
C        2.38184546       1.13157195       0.07540305
N        3.25004531       1.88130443      -0.00484787
H       -2.12354968       1.04578914      -0.94059300
H       -2.92478244      -0.43161877      -0.40462060
H       -2.54251375       0.83123486       0.76522216
H        0.40669333      -1.41891708      -0.53859698
H       -0.84459878      -1.09659630       0.89023601
H        2.43415207      -1.47835262      -0.24838281
13
Frame=7 idx=011290 GeodesicLength=0.4645067570048108 rxn_smarts="[C:1]([C:2]([O:3]/[C:4](=[N:5]/[H:13])[C:6]#[N:7])([H:11])[H:12])([H:8])([H:9])[H:10]>>[C:1]([C:2](=[O+:3][C:4]([N:5]([H:11])[H:13])=[C:6]=[N-:7])[H:12])([H:8])([H:9])[H:10]"
C       -2.17587451       0.31898702      -0.13046405
C       -0.86197031      -0.36328152       0.08254158
O        0.14190361       0.57875532       0.32545551
C        1.37036541       0.13482436       0.23517234
N        1.50235136      -1.14259644      -0.09248419
C        2.37726920       1.13333492       0.06893058
N        3.23771782       1.88967572      -0.03276418
H       -2.11117883       1.06546121      -0.92314685
H       -2.91857878      -0.42386659      -0.42707378
H       -2.54944469       0.81395611       0.77237200
H        0.39065704      -1.41980480      -0.55544027
H       -0.84697378      -1.10081299       0.88889408
H        2.44375649      -1.48463232      -0.21199277
13
Frame=8 idx=011290 GeodesicLength=0.5307661849590716 rxn_smarts="[C:1]([C:2]([O:3]/[C:4](=[N:5]/[H:13])[C:6]#[N:7])([H:11])[H:12])([H:8])([H:9])[H:10]>>[C:1]([C:2](=[O+:3][C:4]([N:5]([H:11])[H:13])=[C:6]=[N-:7])[H:12])([H:8])([H:9])[H:10]"
C       -2.17284701       0.32113498      -0.12982704
C       -0.86022601      -0.36256546       0.08564974
O        0.14251244       0.57363420       0.33349975
C        1.37508610       0.12979832       0.24373677
N        1.50756086      -1.14369495      -0.10094295
C        2.37319405       1.13494878       0.06346726
N        3.22494163       1.89811882      -0.06022344
H       -2.09934395       1.08428586      -0.90549453
H       -2.91213354      -0.41599229      -0.44862131
H       -2.55600361       0.79677681       0.77902943
H        0.37441585      -1.42034823      -0.57276593
H       -0.84879107      -1.10478210       0.88748467
H        2.45163427      -1.49131476      -0.17499242
13
Frame=9 idx=011290 GeodesicLength=0.5970274951992325 rxn_smarts="[C:1]([C:2]([O:3]/[C:4](=[N:5]/[H:13])[C:6]#[N:7])([H:11])[H:12])([H:8])([H:9])[H:10]>>[C:1]([C:2](=[O+:3][C:4]([N:5]([H:11])[H:13])=[C:6]=[N-:7])[H:12])([H:8])([H:9])[H:10]"
C       -2.16965205       0.32319338      -0.12919424
C       -0.85825034      -0.36187676       0.08857984
O        0.14328706       0.56860496       0.34108056
C        1.37999320       0.12489538       0.25200167
N        1.51336599      -1.14461146      -0.10902512
C        2.36961448       1.13641240       0.05952926
N        3.21143236       1.90658375      -0.08834419
H       -2.08776942       1.10254123      -0.88753656
H       -2.90533050      -0.40786903      -0.46973586
H       -2.56230982       0.77950228       0.78517316
H        0.35809120      -1.42048304      -0.59042232
H       -0.85023597      -1.10867940       0.88592087
H        2.45776379      -1.49821368      -0.13802708
13
Frame=10 idx=011290 GeodesicLength=0.6632864087745458 rxn_smarts="[C:1]([C:2]([O:3]/[C:4](=[N:5]/[H:13])[C:6]#[N:7])([H:11])[H:12])([H:8])([H:9])[H:10]>>[C:1]([C:2](=[O+:3][C:4]([N:5]([H:11])[H:13])=[C:6]=[N-:7])[H:12])([H:8])([H:9])[H:10]"
C       -2.16636556       0.32508093      -0.12857816
C       -0.85608458      -0.36119997       0.09141904
O        0.14420563       0.56379699       0.34782253
C        1.38506071       0.12021488       0.25968744
N        1.51971318      -1.14542414      -0.11647371
C        2.36646143       1.13782245       0.05617009
N        3.19766598       1.91486062      -0.11554123
H       -2.07663029       1.11983243      -0.86965682
H       -2.89831429      -0.39974663      -0.49000902
H       -2.56829735       0.76245951       0.79067233
H        0.34157295      -1.42041881      -0.60807592
H       -0.85126534      -1.11218499       0.88458038
H        2.46227754      -1.50509326      -0.10201696
13
Frame=11 idx=011290 GeodesicLength=0.7295389116813189 rxn_smarts="[C:1]([C:2]([O:3]/[C:4](=[N:5]/[H:13])[C:6]#[N:7])([H:11])[H:12])([H:8])([H:9])[H:10]>>[C:1]([C:2](=[O+:3][C:4]([N:5]([H:11])[H:13])=[C:6]=[N-:7])[H:12])([H:8])([H:9])[H:10]"
C       -2.16303899       0.32677421      -0.12800220
C       -0.85377477      -0.36053190       0.09421329
O        0.14522676       0.55925172       0.35366569
C        1.39025139       0.11579195       0.26681214
N        1.52654085      -1.14620735      -0.12303040
C        2.36362704       1.13924511       0.05300158
N        3.18397605       1.92278456      -0.14130569
H       -2.06597585       1.13606363      -0.85203292
H       -2.89117475      -0.39173461      -0.50935888
H       -2.57398542       0.74575901       0.79549730
H        0.32478683      -1.42024554      -0.62557047
H       -0.85193016      -1.11520398       0.88361316
H        2.46547101      -1.51174681      -0.06750259
13
Frame=12 idx=011290 GeodesicLength=0.7957894074576625 rxn_smarts="[C:1]([C:2]([O:3]/[C:4](=[N:5]/[H:13])[C:6]#[N:7])([H:11])[H:12])([H:8])([H:9])[H:10]>>[C:1]([C:2](=[O+:3][C:4]([N:5]([H:11])[H:13])=[C:6]=[N-:7])[H:12])([H:8])([H:9])[H:10]"
C       -2.15967606       0.32831436      -0.12748452
C       -0.85135369      -0.35988694       0.09696623
O        0.14631823       0.55490674       0.35883103
C        1.39554271       0.11158487       0.27358743
N        1.53380718      -1.14704779      -0.12847664
C        2.36102773       1.14068213       0.05002358
N        3.17034993       1.93031612      -0.16598772
H       -2.05571887       1.15138576      -0.83462697
H       -2.88392853      -0.38377365      -0.52795378
H       -2.57942984       0.72936095       0.79969067
H        0.30770952      -1.41993660      -0.64294280
H       -0.85235020      -1.11784834       0.88294351
H        2.46770190      -1.51805761      -0.03457003
13
Frame=13 idx=011290 GeodesicLength=0.8620108336691011 rxn_smarts="[C:1]([C:2]([O:3]/[C:4](=[N:5]/[H:13])[C:6]#[N:7])([H:11])[H:12])([H:8])([H:9])[H:10]>>[C:1]([C:2](=[O+:3][C:4]([N:5]([H:11])[H:13])=[C:6]=[N-:7])[H:12])([H:8])([H:9])[H:10]"
C       -2.15636297       0.32965358      -0.12699245
C       -0.84887339      -0.35925415       0.09966970
O        0.14744766       0.55083796       0.36301990
C        1.40089188       0.10764339       0.27977808
N        1.54143907      -1.14797654      -0.13291036
C        2.35857435       1.14216243       0.04665030
N        3.15727623       1.93740759      -0.18861743
H       -2.04604174       1.16559252      -0.81768360
H       -2.87675252      -0.37605437      -0.54546066
H       -2.58455265       0.71347829       0.80329187
H        0.29018219      -1.41959164      -0.66018368
H       -0.85248173      -1.11997231       0.88270564
H        2.46925363      -1.52392677      -0.00326733
13
Frame=14 idx=011290 GeodesicLength=0.9281952556713533 rxn_smarts="[C:1]([C:2]([O:3]/[C:4](=[N:5]/[H:13])[C:6]#[N:7])([H:11])[H:12])([H:8])([H:9])[H:10]>>[C:1]([C:2](=[O+:3][C:4]([N:5]([H:11])[H:13])=[C:6]=[N-:7])[H:12])([H:8])([H:9])[H:10]"
C       -2.15320518       0.33073600      -0.12649349
C       -0.84638351      -0.35861710       0.10228207
O        0.14857557       0.54713358       0.36594033
C        1.40625573       0.10401582       0.28524845
N        1.54939355      -1.14896205      -0.13651522
C        2.35623855       1.14371941       0.04275153
N        3.14528543       1.94397319      -0.20864382
H       -2.03714985       1.17849734      -0.80144879
H       -2.86986305      -0.36879065      -0.56155628
H       -2.58928895       0.69828631       0.80637576
H        0.27205967      -1.41924784      -0.67736769
H       -0.85226516      -1.12147277       0.88295471
H        2.47034719      -1.52927124       0.02647245
13
Frame=15 idx=011290 GeodesicLength=0.9943548222979317 rxn_smarts="[C:1]([C:2]([O:3]/[C:4](=[N:5]/[H:13])[C:6]#[N:7])([H:11])[H:12])([H:8])([H:9])[H:10]>>[C:1]([C:2](=[O+:3][C:4]([N:5]([H:11])[H:13])=[C:6]=[N-:7])[H:12])([H:8])([H:9])[H:10]"
C       -2.15014464       0.33165308      -0.12598017
C       -0.84387440      -0.35800501       0.10473721
O        0.14970270       0.54364724       0.36799265
C        1.41164571       0.10062046       0.29026375
N        1.55768816      -1.15007913      -0.13914718
C        2.35397022       1.14531153       0.03844734
N        3.13401346       1.95014163      -0.22705118
H       -2.02883963       1.19053460      -0.78556755
H       -2.86316603      -0.36173966      -0.57669076
H       -2.59372224       0.68348447       0.80909917
H        0.25338456      -1.41877303      -0.69470907
H       -0.85182381      -1.12263283       0.88338936
H        2.47116593      -1.53416334       0.05521641
13
Frame=16 idx=011290 GeodesicLength=1.0605035930838589 rxn_smarts="[C:1]([C:2]([O:3]/[C:4](=[N:5]/[H:13])[C:6]#[N:7])([H:11])[H:12])([H:8])([H:9])[H:10]>>[C:1]([C:2](=[O+:3][C:4]([N:5]([H:11])[H:13])=[C:6]=[N-:7])[H:12])([H:8])([H:9])[H:10]"
C       -2.14711435       0.33249099      -0.12544444
C       -0.84132337      -0.35744162       0.10697739
O        0.15083665       0.54024296       0.36956226
C        1.41708102       0.09738812       0.29508140
N        1.56635488      -1.15138402      -0.14065456
C        2.35173354       1.14689864       0.03388896
N        3.12303929       1.95597696      -0.24485899
H       -2.02091239       1.20212428      -0.76963087
H       -2.85652584      -0.35462806      -0.59133538
H       -2.59795340       0.66872566       0.81158572
H        0.23421374      -1.41800166      -0.71242569
H       -0.85125357      -1.12371762       0.88372053
H        2.47182380      -1.53867463       0.08353367
