10
Frame=0 idx=006121 GeodesicLength=0.0 rxn_smarts="[C:1]1([H:6])([H:7])[C:2]([H:8])([H:9])[N:3]=[C:4]([H:10])[O:5]1>>[C:1]1([H:6])([H:7])[C-:2]([H:8])[N:3]([H:9])[C:4]([H:10])=[O+:5]1"
C       -0.74733016      -0.83335598      -0.10158681
C       -0.76252766       0.65743280       0.19905018
N        0.62494637       1.06518478       0.03535430
C        1.35738338       0.02020774      -0.10137682
O        0.67972026      -1.11881654      -0.27147274
H       -1.11055340      -1.47210437       0.70825212
H       -1.26021438      -1.12452468      -1.02663889
H       -1.44529294       1.31546770      -0.32610974
H        0.22920094       1.51672679       0.96576532
H        2.43466759      -0.02621824      -0.08123690
10
Frame=1 idx=006121 GeodesicLength=0.04533464371165216 rxn_smarts="[C:1]1([H:6])([H:7])[C:2]([H:8])([H:9])[N:3]=[C:4]([H:10])[O:5]1>>[C:1]1([H:6])([H:7])[C-:2]([H:8])[N:3]([H:9])[C:4]([H:10])=[O+:5]1"
C       -0.74546477      -0.83250581      -0.10056459
C       -0.75894010       0.65804427       0.20086652
N        0.62574230       1.06369386       0.02939350
C        1.35779965       0.01915184      -0.10918264
O        0.68040075      -1.12271519      -0.26424322
H       -1.11487652      -1.47046715       0.70681867
H       -1.25454107      -1.12089341      -1.02890285
H       -1.44656052       1.31361579      -0.32127963
H        0.22141437       1.51971255       0.96932540
H        2.43502590      -0.02763674      -0.08223117
10
Frame=2 idx=006121 GeodesicLength=0.09055792044197011 rxn_smarts="[C:1]1([H:6])([H:7])[C:2]([H:8])([H:9])[N:3]=[C:4]([H:10])[O:5]1>>[C:1]1([H:6])([H:7])[C-:2]([H:8])[N:3]([H:9])[C:4]([H:10])=[O+:5]1"
C       -0.74358396      -0.83160762      -0.09952309
C       -0.75531812       0.65868422       0.20258349
N        0.62655893       1.06212824       0.02340767
C        1.35818994       0.01799349      -0.11694260
O        0.68107509      -1.12648291      -0.25702210
H       -1.11911926      -1.46870064       0.70539407
H       -1.24885883      -1.11728729      -1.03105582
H       -1.44772163       1.31176400      -0.31658069
H        0.21345953       1.52252190       0.97309729
H        2.43531830      -0.02901338      -0.08335821
10
Frame=3 idx=006121 GeodesicLength=0.1358316244695389 rxn_smarts="[C:1]1([H:6])([H:7])[C:2]([H:8])([H:9])[N:3]=[C:4]([H:10])[O:5]1>>[C:1]1([H:6])([H:7])[C-:2]([H:8])[N:3]([H:9])[C:4]([H:10])=[O+:5]1"
C       -0.74169755      -0.83070992      -0.09847138
C       -0.75165612       0.65937081       0.20422659
N        0.62740875       1.06055469       0.01736869
C        1.35856367       0.01675106      -0.12460425
O        0.68173261      -1.13015554      -0.24990182
H       -1.12327740      -1.46690893       0.70400718
H       -1.24320384      -1.11375448      -1.03314007
H       -1.44878414       1.30994623      -0.31199274
H        0.20534087       1.52532061       0.97709386
H        2.43557315      -0.03041452      -0.08458606
10
Frame=4 idx=006121 GeodesicLength=0.18110226600738155 rxn_smarts="[C:1]1([H:6])([H:7])[C:2]([H:8])([H:9])[N:3]=[C:4]([H:10])[O:5]1>>[C:1]1([H:6])([H:7])[C-:2]([H:8])[N:3]([H:9])[C:4]([H:10])=[O+:5]1"
C       -0.73980205      -0.82979490      -0.09740630
C       -0.74795362       0.66009855       0.20578837
N        0.62828837       1.05895280       0.01127864
C        1.35892037       0.01542159      -0.13218714
O        0.68238038      -1.13373145      -0.24281466
H       -1.12737597      -1.46505083       0.70264238
H       -1.23754686      -1.11027620      -1.03515255
H       -1.44975090       1.30815057      -0.30751413
H        0.19704673       1.52804622       0.98131932
H        2.43579356      -0.03181635      -0.08595393
10
Frame=5 idx=006121 GeodesicLength=0.2263754742488718 rxn_smarts="[C:1]1([H:6])([H:7])[C:2]([H:8])([H:9])[N:3]=[C:4]([H:10])[O:5]1>>[C:1]1([H:6])([H:7])[C-:2]([H:8])[N:3]([H:9])[C:4]([H:10])=[O+:5]1"
C       -0.73789708      -0.82886205      -0.09632651
C       -0.74420941       0.66086931       0.20726846
N        0.62920076       1.05732046       0.00514176
C        1.35926512       0.01399947      -0.13966255
O        0.68301983      -1.13721642      -0.23573663
H       -1.13143175      -1.46312466       0.70129523
H       -1.23187412      -1.10684970      -1.03710119
H       -1.45062085       1.30637896      -0.30314856
H        0.18855948       1.53070044       0.98578231
H        2.43598801      -0.03321580      -0.08751233
10
Frame=6 idx=006121 GeodesicLength=0.27164618533548557 rxn_smarts="[C:1]1([H:6])([H:7])[C:2]([H:8])([H:9])[N:3]=[C:4]([H:10])[O:5]1>>[C:1]1([H:6])([H:7])[C-:2]([H:8])[N:3]([H:9])[C:4]([H:10])=[O+:5]1"
C       -0.73598222      -0.82791015      -0.09523310
C       -0.74041944       0.66168184       0.20867381
N        0.63014342       1.05566034      -0.00106297
C        1.35959579       0.01249045      -0.14704240
O        0.68365503      -1.14061735      -0.22864275
H       -1.13546029      -1.46112919       0.69995712
H       -1.22617300      -1.10347009      -1.03899614
H       -1.45140238       1.30462765      -0.29887200
H        0.17987946       1.53328367       0.99047535
H        2.43616363      -0.03461717      -0.08925692
10
Frame=7 idx=006121 GeodesicLength=0.31692535139259725 rxn_smarts="[C:1]1([H:6])([H:7])[C:2]([H:8])([H:9])[N:3]=[C:4]([H:10])[O:5]1>>[C:1]1([H:6])([H:7])[C-:2]([H:8])[N:3]([H:9])[C:4]([H:10])=[O+:5]1"
C       -0.73405663      -0.82693900      -0.09412726
C       -0.73658111       0.66253616       0.21000861
N        0.63112025       1.05396831      -0.00734263
C        1.35992150       0.01088558      -0.15431092
O        0.68428359      -1.14393525      -0.22151930
H       -1.13946941      -1.45906489       0.69862095
H       -1.22043508      -1.10013322      -1.04084244
H       -1.45210113       1.30289697      -0.29467540
H        0.17099341       1.53580562       0.99539665
H        2.43632461      -0.03602028      -0.09120824
10
Frame=8 idx=006121 GeodesicLength=0.36220213690934894 rxn_smarts="[C:1]1([H:6])([H:7])[C:2]([H:8])([H:9])[N:3]=[C:4]([H:10])[O:5]1>>[C:1]1([H:6])([H:7])[C-:2]([H:8])[N:3]([H:9])[C:4]([H:10])=[O+:5]1"
C       -0.73212229      -0.82594808      -0.09300877
C       -0.73269174       0.66343297       0.21127345
N        0.63213374       1.05225147      -0.01370838
C        1.36024687       0.00919759      -0.16147912
O        0.68490814      -1.14717696      -0.21434832
H       -1.14347175      -1.45692642       0.69728927
H       -1.21465563      -1.09683917      -1.04264831
H       -1.45271913       1.30118465      -0.29055264
H        0.16189470       1.53825255       1.00055265
H        2.43647709      -0.03742861      -0.09336984
10
Frame=9 idx=006121 GeodesicLength=0.4074877957304971 rxn_smarts="[C:1]1([H:6])([H:7])[C:2]([H:8])([H:9])[N:3]=[C:4]([H:10])[O:5]1>>[C:1]1([H:6])([H:7])[C-:2]([H:8])[N:3]([H:9])[C:4]([H:10])=[O+:5]1"
C       -0.73017226      -0.82493388      -0.09187882
C       -0.72874447       0.66437343       0.21246964
N        0.63316747       1.05050289      -0.02019698
C        1.36055113       0.00741451      -0.16858147
O        0.68553675      -1.15033439      -0.20714848
H       -1.14744946      -1.45471241       0.69596107
H       -1.20883651      -1.09358074      -1.04440727
H       -1.45326474       1.29949466      -0.28647261
H        0.15258837       1.54062704       1.00592999
H        2.43662370      -0.03885110      -0.09567507
10
Frame=10 idx=006121 GeodesicLength=0.45277640050502416 rxn_smarts="[C:1]1([H:6])([H:7])[C:2]([H:8])([H:9])[N:3]=[C:4]([H:10])[O:5]1>>[C:1]1([H:6])([H:7])[C-:2]([H:8])[N:3]([H:9])[C:4]([H:10])=[O+:5]1"
C       -0.72820800      -0.82389382      -0.09073090
C       -0.72474236       0.66536584       0.21357602
N        0.63424125       1.04873135      -0.02678712
C        1.36086538       0.00555184      -0.17558974
O        0.68614890      -1.15340303      -0.20002207
H       -1.15134277      -1.45241888       0.69466880
H       -1.20303795      -1.09036763      -1.04607675
H       -1.45372259       1.29783044      -0.28249737
H        0.14303697       1.54290644       1.01155679
H        2.43676119      -0.04030254      -0.09809766
10
Frame=11 idx=006121 GeodesicLength=0.4980651302549776 rxn_smarts="[C:1]1([H:6])([H:7])[C:2]([H:8])([H:9])[N:3]=[C:4]([H:10])[O:5]1>>[C:1]1([H:6])([H:7])[C-:2]([H:8])[N:3]([H:9])[C:4]([H:10])=[O+:5]1"
C       -0.72623083      -0.82282710      -0.08956697
C       -0.72067909       0.66641003       0.21459773
N        0.63535184       1.04693644      -0.03350588
C        1.36118535       0.00360854      -0.18251486
O        0.68675435      -1.15638388      -0.19295864
H       -1.15516697      -1.45004762       0.69341418
H       -1.19726067      -1.08719674      -1.04766916
H       -1.45409988       1.29618960      -0.27860355
H        0.13324281       1.54509070       1.01742689
H        2.43690308      -0.04177998      -0.10061973
10
Frame=12 idx=006121 GeodesicLength=0.5433520579753659 rxn_smarts="[C:1]1([H:6])([H:7])[C:2]([H:8])([H:9])[N:3]=[C:4]([H:10])[O:5]1>>[C:1]1([H:6])([H:7])[C-:2]([H:8])[N:3]([H:9])[C:4]([H:10])=[O+:5]1"
C       -0.72423823      -0.82173193      -0.08838721
C       -0.71655089       0.66750847       0.21553585
N        0.63649583       1.04511739      -0.04036295
C        1.36150591       0.00158223      -0.18936588
O        0.68735873      -1.15927956      -0.18592620
H       -1.15893658      -1.44759037       0.69219103
H       -1.19148576      -1.08406765      -1.04919219
H       -1.45439664       1.29457441      -0.27478157
H        0.12319599       1.54717159       1.02354884
H        2.43705163      -0.04328459      -0.10325973
10
Frame=13 idx=006121 GeodesicLength=0.5886322660373453 rxn_smarts="[C:1]1([H:6])([H:7])[C:2]([H:8])([H:9])[N:3]=[C:4]([H:10])[O:5]1>>[C:1]1([H:6])([H:7])[C-:2]([H:8])[N:3]([H:9])[C:4]([H:10])=[O+:5]1"
C       -0.72223088      -0.82060564      -0.08718905
C       -0.71235797       0.66866958       0.21638859
N        0.63767936       1.04328101      -0.04735156
C        1.36183723      -0.00052253      -0.19614511
O        0.68795890      -1.16209796      -0.17888159
H       -1.16267311      -1.44503937       0.69099915
H       -1.18569019      -1.08098510      -1.05065450
H       -1.45461106       1.29299131      -0.27104205
H        0.11287094       1.54912660       1.02994553
H        2.43721679      -0.04481790      -0.10606941
10
Frame=14 idx=006121 GeodesicLength=0.6339287506436413 rxn_smarts="[C:1]1([H:6])([H:7])[C:2]([H:8])([H:9])[N:3]=[C:4]([H:10])[O:5]1>>[C:1]1([H:6])([H:7])[C-:2]([H:8])[N:3]([H:9])[C:4]([H:10])=[O+:5]1"
C       -0.72022232      -0.81947380      -0.08597327
C       -0.70808782       0.66991293       0.21716891
N        0.63892541       1.04146284      -0.05447588
C        1.36218336      -0.00269918      -0.20287047
O        0.68854797      -1.16486569      -0.17177024
H       -1.16643998      -1.44242616       0.68985223
H       -1.17985886      -1.07799445      -1.05210186
H       -1.45472182       1.29147208      -0.26738405
H        0.10225660       1.55096183       1.03665148
H        2.43741746      -0.04635040      -0.10909684
10
Frame=15 idx=006121 GeodesicLength=0.6792971747143935 rxn_smarts="[C:1]1([H:6])([H:7])[C:2]([H:8])([H:9])[N:3]=[C:4]([H:10])[O:5]1>>[C:1]1([H:6])([H:7])[C-:2]([H:8])[N:3]([H:9])[C:4]([H:10])=[O+:5]1"
C       -0.71816310      -0.81824227      -0.08473454
C       -0.70374352       0.67117115       0.21783725
N        0.64016865       1.03952824      -0.06179110
C        1.36252688      -0.00497205      -0.20949021
O        0.68916164      -1.16749697      -0.16464473
H       -1.17009717      -1.43961012       0.68867589
H       -1.17398529      -1.07493757      -1.05340909
H       -1.45478695       1.28990624      -0.26377280
H        0.09130971       1.55262879       1.04360680
H        2.43760914      -0.04797543      -0.11227747
10
Frame=16 idx=006121 GeodesicLength=0.7246268549988354 rxn_smarts="[C:1]1([H:6])([H:7])[C:2]([H:8])([H:9])[N:3]=[C:4]([H:10])[O:5]1>>[C:1]1([H:6])([H:7])[C-:2]([H:8])[N:3]([H:9])[C:4]([H:10])=[O+:5]1"
C       -0.71609793      -0.81699614      -0.08347627
C       -0.69931708       0.67252184       0.21842241
N        0.64146946       1.03761296      -0.06928233
C        1.36289307      -0.00731456      -0.21608218
O        0.68976310      -1.17006446      -0.15757745
H       -1.17370990      -1.43672716       0.68758176
H       -1.16814348      -1.07197180      -1.05466034
H       -1.45474692       1.28841095      -0.26024909
H        0.08005720       1.55414702       1.05086263
H        2.43783248      -0.04961865      -0.11553914
