12
Frame=0 idx=004778 GeodesicLength=0.0 rxn_smarts="[C:1]([N:2]([C:3](=[O:4])[C:5]([H:10])([H:11])[H:12])[H:9])([H:6])([H:7])[H:8]>>[C:1]([N:2]([C:3]([O:4][H:10])=[C:5]([H:11])[H:12])[H:9])([H:6])([H:7])[H:8]"
C       -1.80116343      -0.27593312      -0.39378425
N       -0.63468003       0.03815708       0.40455692
C        0.60946587      -0.00613027      -0.05023204
O        0.86886724      -0.43236152      -1.24274981
C        1.83181245       0.45614584       0.54442203
H       -1.53432400      -0.18213233      -1.44457341
H       -2.60706421       0.42066765      -0.16160319
H       -2.14648265      -1.29590450      -0.21437665
H       -0.75432948       0.27372252       1.37297492
H        1.90568667       0.12921928      -0.94088429
H        2.46302653      -0.37897572       0.84452924
H        1.79918499       1.25352505       1.28172048
12
Frame=1 idx=004778 GeodesicLength=0.044846625566817566 rxn_smarts="[C:1]([N:2]([C:3](=[O:4])[C:5]([H:10])([H:11])[H:12])[H:9])([H:6])([H:7])[H:8]>>[C:1]([N:2]([C:3]([O:4][H:10])=[C:5]([H:11])[H:12])[H:9])([H:6])([H:7])[H:8]"
C       -1.80127388      -0.27465461      -0.39309604
N       -0.63229280       0.01255317       0.41053185
C        0.61428486      -0.04129890      -0.04173222
O        0.87056951      -0.42417228      -1.24928777
C        1.82585111       0.45658007       0.54553754
H       -1.52792104      -0.21643994      -1.44458565
H       -2.58364858       0.45622999      -0.18561940
H       -2.18535088      -1.27644498      -0.19149441
H       -0.75131998       0.26487027       1.37475901
H        1.90957769       0.15864532      -0.94643516
H        2.49001521      -0.35860861       0.82807882
H        1.77150878       1.24274049       1.29334341
12
Frame=2 idx=004778 GeodesicLength=0.08952529054340774 rxn_smarts="[C:1]([N:2]([C:3](=[O:4])[C:5]([H:10])([H:11])[H:12])[H:9])([H:6])([H:7])[H:8]>>[C:1]([N:2]([C:3]([O:4][H:10])=[C:5]([H:11])[H:12])[H:9])([H:6])([H:7])[H:8]"
C       -1.80089033      -0.27376925      -0.39223521
N       -0.62965253      -0.01246878       0.41593922
C        0.61910842      -0.07343028      -0.03512332
O        0.87157879      -0.41487056      -1.25573562
C        1.81948875       0.45642152       0.54680555
H       -1.52273498      -0.25264543      -1.44368849
H       -2.55807466       0.49017270      -0.21029290
H       -2.22291904      -1.25523275      -0.16787894
H       -0.74753523       0.25558410       1.37603528
H        1.91302422       0.18842429      -0.95132838
H        2.51355599      -0.33897715       0.81256897
H        1.74505060       1.23079160       1.30493384
12
Frame=3 idx=004778 GeodesicLength=0.13405176528173915 rxn_smarts="[C:1]([N:2]([C:3](=[O:4])[C:5]([H:10])([H:11])[H:12])[H:9])([H:6])([H:7])[H:8]>>[C:1]([N:2]([C:3]([O:4][H:10])=[C:5]([H:11])[H:12])[H:9])([H:6])([H:7])[H:8]"
C       -1.80016046      -0.27360855      -0.39121003
N       -0.62696948      -0.03591104       0.42056570
C        0.62376140      -0.10205672      -0.03043790
O        0.87174930      -0.40311417      -1.26255125
C        1.81307814       0.45528158       0.54842930
H       -1.51896233      -0.29162244      -1.44175154
H       -2.53103536       0.52170355      -0.23624410
H       -2.25870820      -1.23260710      -0.14277019
H       -0.74332080       0.24734656       1.37647297
H        1.91637382       0.21890991      -0.95545967
H        2.53378625      -0.32123653       0.79775223
H        1.72040772       1.21691496       1.31720446
12
Frame=4 idx=004778 GeodesicLength=0.1784829592562843 rxn_smarts="[C:1]([N:2]([C:3](=[O:4])[C:5]([H:10])([H:11])[H:12])[H:9])([H:6])([H:7])[H:8]>>[C:1]([N:2]([C:3]([O:4][H:10])=[C:5]([H:11])[H:12])[H:9])([H:6])([H:7])[H:8]"
C       -1.79913426      -0.27382275      -0.39003115
N       -0.62422301      -0.05877744       0.42486474
C        0.62826183      -0.12819109      -0.02721212
O        0.87110879      -0.39006022      -1.26934153
C        1.80657962       0.45368728       0.55005475
H       -1.51629609      -0.33213850      -1.43853154
H       -2.50230658       0.55129477      -0.26321375
H       -2.29323837      -1.20823017      -0.11734383
H       -0.73867063       0.23890472       1.37661664
H        1.91951389       0.24959326      -0.95894309
H        2.55145815      -0.30436123       0.78374096
H        1.69694667       1.20210136       1.32933991
12
Frame=5 idx=004778 GeodesicLength=0.2228137516921028 rxn_smarts="[C:1]([N:2]([C:3](=[O:4])[C:5]([H:10])([H:11])[H:12])[H:9])([H:6])([H:7])[H:8]>>[C:1]([N:2]([C:3]([O:4][H:10])=[C:5]([H:11])[H:12])[H:9])([H:6])([H:7])[H:8]"
C       -1.79790972      -0.27462408      -0.38879700
N       -0.62156232      -0.08026199       0.42866388
C        0.63252037      -0.15184503      -0.02532830
O        0.86950974      -0.37493773      -1.27627981
C        1.80020030       0.45129016       0.55187958
H       -1.51484267      -0.37446025      -1.43398796
H       -2.47259650       0.57818777      -0.29141210
H       -2.32600146      -1.18245465      -0.09128156
H       -0.73387977       0.23163704       1.37612134
H        1.92258917       0.28074478      -0.96164892
H        2.56688736      -0.28906908       0.77023870
H        1.67508550       1.18579306       1.34183217
12
Frame=6 idx=004778 GeodesicLength=0.26712067016904534 rxn_smarts="[C:1]([N:2]([C:3](=[O:4])[C:5]([H:10])([H:11])[H:12])[H:9])([H:6])([H:7])[H:8]>>[C:1]([N:2]([C:3]([O:4][H:10])=[C:5]([H:11])[H:12])[H:9])([H:6])([H:7])[H:8]"
C       -1.79648525      -0.27564678      -0.38750029
N       -0.61893865      -0.10124086       0.43232307
C        0.63659315      -0.17388062      -0.02440017
O        0.86703594      -0.35908197      -1.28294541
C        1.79381572       0.44858419       0.55357209
H       -1.51430822      -0.41724025      -1.42801964
H       -2.44170247       0.60285349      -0.32037136
H       -2.35733322      -1.15505417      -0.06568479
H       -0.72888102       0.22425318       1.37549781
H        1.92541915       0.31185618      -0.96374796
H        2.58059072      -0.27432952       0.75736865
H        1.65419414       1.16892713       1.35390799
12
Frame=7 idx=004778 GeodesicLength=0.31149727375834746 rxn_smarts="[C:1]([N:2]([C:3](=[O:4])[C:5]([H:10])([H:11])[H:12])[H:9])([H:6])([H:7])[H:8]>>[C:1]([N:2]([C:3]([O:4][H:10])=[C:5]([H:11])[H:12])[H:9])([H:6])([H:7])[H:8]"
C       -1.79487978      -0.27690949      -0.38619740
N       -0.61638270      -0.12167164       0.43585133
C        0.64048182      -0.19457165      -0.02427267
O        0.86367470      -0.34244294      -1.28931657
C        1.78745145       0.44551882       0.55517694
H       -1.51462550      -0.46068427      -1.42057841
H       -2.40965092       0.62527206      -0.35034626
H       -2.38731638      -1.12593231      -0.04042537
H       -0.72378142       0.21700723       1.37469708
H        1.92785127       0.34328446      -0.96524185
H        2.59291921      -0.26013229       0.74482927
H        1.63425826       1.15126201       1.36582392
12
Frame=8 idx=004778 GeodesicLength=0.3558853472289685 rxn_smarts="[C:1]([N:2]([C:3](=[O:4])[C:5]([H:10])([H:11])[H:12])[H:9])([H:6])([H:7])[H:8]>>[C:1]([N:2]([C:3]([O:4][H:10])=[C:5]([H:11])[H:12])[H:9])([H:6])([H:7])[H:8]"
C       -1.79307680      -0.27804536      -0.38490717
N       -0.61388678      -0.14187050       0.43939910
C        0.64422844      -0.21446325      -0.02462889
O        0.85959837      -0.32659507      -1.29500756
C        1.78098549       0.44250049       0.55640703
H       -1.51569162      -0.50251204      -1.41198072
H       -2.37695771       0.64541390      -0.37988915
H       -2.41547165      -1.09561527      -0.01685881
H       -0.71853931       0.20907958       1.37406822
H        1.92997855       0.37389179      -0.96629322
H        2.60398791      -0.24574662       0.73307722
H        1.61484509       1.13396235       1.37661395
12
Frame=9 idx=004778 GeodesicLength=0.4003716857909777 rxn_smarts="[C:1]([N:2]([C:3](=[O:4])[C:5]([H:10])([H:11])[H:12])[H:9])([H:6])([H:7])[H:8]>>[C:1]([N:2]([C:3]([O:4][H:10])=[C:5]([H:11])[H:12])[H:9])([H:6])([H:7])[H:8]"
C       -1.79111876      -0.27915973      -0.38362781
N       -0.61148284      -0.16155368       0.44288842
C        0.64780909      -0.23351132      -0.02545335
O        0.85483116      -0.31111442      -1.30014926
C        1.77449474       0.43937547       0.55737081
H       -1.51745273      -0.54340786      -1.40221584
H       -2.34372873       0.66329892      -0.40955157
H       -2.44189477      -1.06411289       0.00554711
H       -0.71323843       0.20090385       1.37351578
H        1.93172246       0.40423726      -0.96689537
H        2.61395720      -0.23147481       0.72180407
H        1.59610160       1.11651922       1.38676701
12
Frame=10 idx=004778 GeodesicLength=0.44500662290605064 rxn_smarts="[C:1]([N:2]([C:3](=[O:4])[C:5]([H:10])([H:11])[H:12])[H:9])([H:6])([H:7])[H:8]>>[C:1]([N:2]([C:3]([O:4][H:10])=[C:5]([H:11])[H:12])[H:9])([H:6])([H:7])[H:8]"
C       -1.78893692      -0.27995435      -0.38237729
N       -0.60911016      -0.18141008       0.44647112
C        0.65133412      -0.25230211      -0.02647401
O        0.84963064      -0.29730207      -1.30452329
C        1.76778484       0.43651552       0.55788692
H       -1.51983789      -0.58218772      -1.39161157
H       -2.30977122       0.67943190      -0.43843098
H       -2.46671263      -1.03144004       0.02609021
H       -0.70781022       0.19150387       1.37332811
H        1.93292330       0.43387286      -0.96724329
H        2.62302537      -0.21647262       0.71117227
H        1.57748076       1.09974485       1.39571180
12
Frame=11 idx=004778 GeodesicLength=0.489866592441914 rxn_smarts="[C:1]([N:2]([C:3](=[O:4])[C:5]([H:10])([H:11])[H:12])[H:9])([H:6])([H:7])[H:8]>>[C:1]([N:2]([C:3]([O:4][H:10])=[C:5]([H:11])[H:12])[H:9])([H:6])([H:7])[H:8]"
C       -1.78659872      -0.28066702      -0.38115351
N       -0.60682518      -0.20086022       0.44998142
C        0.65473425      -0.27052581      -0.02779775
O        0.84392989      -0.28413405      -1.30836777
C        1.76101707       0.43358658       0.55816656
H       -1.52283862      -0.62024786      -1.37991746
H       -2.27516902       0.69357987      -0.46765772
H       -2.49003577      -0.99742302       0.04568114
H       -0.70236574       0.18171613       1.37325690
H        1.93346362       0.46372223      -0.96719197
H        2.63128476      -0.20138285       0.70071517
H        1.55940346       1.08263603       1.40428499
12
Frame=12 idx=004778 GeodesicLength=0.535023038806442 rxn_smarts="[C:1]([N:2]([C:3](=[O:4])[C:5]([H:10])([H:11])[H:12])[H:9])([H:6])([H:7])[H:8]>>[C:1]([N:2]([C:3]([O:4][H:10])=[C:5]([H:11])[H:12])[H:9])([H:6])([H:7])[H:8]"
C       -1.78403812      -0.28112410      -0.37998584
N       -0.60457671      -0.22040314       0.45350746
C        0.65809959      -0.28857210      -0.02926450
O        0.83791107      -0.27237362      -1.31161955
C        1.75404676       0.43080958       0.55812191
H       -1.52646644      -0.65697169      -1.36739111
H       -2.23970503       0.70610557      -0.49668219
H       -2.51195692      -0.96197001       0.06399016
H       -0.69685902       0.17089828       1.37349271
H        1.93320409       0.49356889      -0.96685097
H        2.63883986      -0.18566069       0.69052148
H        1.54150087       1.06569303       1.41216043
12
Frame=13 idx=004778 GeodesicLength=0.58038098614947 rxn_smarts="[C:1]([N:2]([C:3](=[O:4])[C:5]([H:10])([H:11])[H:12])[H:9])([H:6])([H:7])[H:8]>>[C:1]([N:2]([C:3]([O:4][H:10])=[C:5]([H:11])[H:12])[H:9])([H:6])([H:7])[H:8]"
C       -1.78132643      -0.28135799      -0.37884935
N       -0.60241451      -0.23959018       0.45696488
C        0.66138668      -0.30630897      -0.03086136
O        0.83165483      -0.26196314      -1.31434649
C        1.74697517       0.42807721       0.55778596
H       -1.53069785      -0.69191523      -1.35424782
H       -2.20414179       0.71675475      -0.52514362
H       -2.53205730      -0.92578925       0.08093598
H       -0.69134861       0.15966650       1.37389927
H        1.93237597       0.52318491      -0.96619278
H        2.64562433      -0.16967062       0.68070998
H        1.52396951       1.04891200       1.41934534
12
Frame=14 idx=004778 GeodesicLength=0.6258780053757815 rxn_smarts="[C:1]([N:2]([C:3](=[O:4])[C:5]([H:10])([H:11])[H:12])[H:9])([H:6])([H:7])[H:8]>>[C:1]([N:2]([C:3]([O:4][H:10])=[C:5]([H:11])[H:12])[H:9])([H:6])([H:7])[H:8]"
C       -1.77846974      -0.28127303      -0.37770233
N       -0.60032337      -0.25850771       0.46035719
C        0.66461975      -0.32383009      -0.03252488
O        0.82530748      -0.25323512      -1.31657952
C        1.73976376       0.42549847       0.55709465
H       -1.53549695      -0.72448088      -1.34078883
H       -2.16874350       0.72573910      -0.55248380
H       -2.55024229      -0.88929662       0.09632657
H       -0.68579793       0.14779292       1.37456425
H        1.93116544       0.55218790      -0.96530966
H        2.65157573      -0.15333838       0.67151371
H        1.50664161       1.03274343       1.42553267
12
Frame=15 idx=004778 GeodesicLength=0.6715683463486254 rxn_smarts="[C:1]([N:2]([C:3](=[O:4])[C:5]([H:10])([H:11])[H:12])[H:9])([H:6])([H:7])[H:8]>>[C:1]([N:2]([C:3]([O:4][H:10])=[C:5]([H:11])[H:12])[H:9])([H:6])([H:7])[H:8]"
C       -1.77548662      -0.28101543      -0.37659863
N       -0.59832316      -0.27698429       0.46362766
C        0.66778275      -0.34105918      -0.03429247
O        0.81884851      -0.24564802      -1.31844162
C        1.73248945       0.42288308       0.55618566
H       -1.54086561      -0.75548602      -1.32690814
H       -2.13350727       0.73299417      -0.57927177
H       -2.56665790      -0.85232015       0.11064839
H       -0.68028071       0.13580347       1.37528768
H        1.92945599       0.58113029      -0.96406189
H        2.65681908      -0.13693072       0.66263374
H        1.48972549       1.01663279       1.43119140
12
Frame=16 idx=004778 GeodesicLength=0.717372516832701 rxn_smarts="[C:1]([N:2]([C:3](=[O:4])[C:5]([H:10])([H:11])[H:12])[H:9])([H:6])([H:7])[H:8]>>[C:1]([N:2]([C:3]([O:4][H:10])=[C:5]([H:11])[H:12])[H:9])([H:6])([H:7])[H:8]"
C       -1.77240679      -0.28054289      -0.37550077
N       -0.59641466      -0.29498472       0.46677551
C        0.67087761      -0.35801127      -0.03613332
O        0.81237132      -0.23931824      -1.31997845
C        1.72516450       0.42026939       0.55502509
H       -1.54674771      -0.78453282      -1.31283977
H       -2.09878474       0.73865615      -0.60511105
H       -2.58121945      -0.81532028       0.12379305
H       -0.67478332       0.12371233       1.37609319
H        1.92746324       0.60971826      -0.96250096
H        2.66131518      -0.12051903       0.65424917
H        1.47316482       1.00087314       1.43612831
