10
Frame=0 idx=000241 GeodesicLength=0.0 rxn_smarts="[c:1]1([H:7])[c:2]([H:8])[n:3][c:4]([H:9])[c:5]([H:10])[n:6]1>>[C:1]1([H:7])=[N:6][C@@:5]2([H:10])[N:3]3[C@:2]1([H:8])[C@:4]32[H:9]"
C        1.08303977       0.70213006       0.10490021
C        0.82277403      -0.61189202      -0.27201627
N       -0.34058254      -1.11885043      -1.00138024
C       -0.81079076      -0.71842362       0.16829281
C       -1.04168267       0.78073981       0.04945025
N        0.01038649       1.51966097       0.06209313
H        2.04732751       1.04514199       0.45207991
H        1.58207887      -1.37584724      -0.16266018
H       -1.34078043      -1.36517088       0.87764090
H       -2.01177026       1.14251136      -0.27840051
10
Frame=1 idx=000241 GeodesicLength=0.056779500811837726 rxn_smarts="[c:1]1([H:7])[c:2]([H:8])[n:3][c:4]([H:9])[c:5]([H:10])[n:6]1>>[C:1]1([H:7])=[N:6][C@@:5]2([H:10])[N:3]3[C@:2]1([H:8])[C@:4]32[H:9]"
C        1.08681549       0.70446328       0.10610879
C        0.82655323      -0.61545308      -0.26109226
N       -0.33805604      -1.10027119      -0.99576850
C       -0.81301504      -0.71980122       0.18212504
C       -1.04029507       0.77085028       0.03730792
N        0.01404940       1.51666797       0.06537807
H        2.05405311       1.05464102       0.43800690
H        1.58843073      -1.37858516      -0.16667382
H       -1.36526906      -1.37086797       0.86822304
H       -2.01326675       1.13835606      -0.27361517
10
Frame=2 idx=000241 GeodesicLength=0.11355796910119728 rxn_smarts="[c:1]1([H:7])[c:2]([H:8])[n:3][c:4]([H:9])[c:5]([H:10])[n:6]1>>[C:1]1([H:7])=[N:6][C@@:5]2([H:10])[N:3]3[C@:2]1([H:8])[C@:4]32[H:9]"
C        1.09050991       0.70676605       0.10738882
C        0.83029334      -0.61902554      -0.24999865
N       -0.33510376      -1.08237143      -0.98970697
C       -0.81551989      -0.72109473       0.19555479
C       -1.03886219       0.76088393       0.02544327
N        0.01760402       1.51359448       0.06904779
H        2.06071453       1.06422109       0.42298859
H        1.59465988      -1.38113151      -0.17011996
H       -1.38976846      -1.37604317       0.85759627
H       -2.01452738       1.13420084      -0.26819396
10
Frame=3 idx=000241 GeodesicLength=0.1703510511676565 rxn_smarts="[c:1]1([H:7])[c:2]([H:8])[n:3][c:4]([H:9])[c:5]([H:10])[n:6]1>>[C:1]1([H:7])=[N:6][C@@:5]2([H:10])[N:3]3[C@:2]1([H:8])[C@:4]32[H:9]"
C        1.09411777       0.70901374       0.10887600
C        0.83398860      -0.62260980      -0.23868640
N       -0.33172882      -1.06507830      -0.98325569
C       -0.81834635      -0.72231872       0.20858750
C       -1.03741028       0.75085953       0.01392487
N        0.02104827       1.51043073       0.07320750
H        2.06732943       1.07391080       0.40681093
H        1.60075384      -1.38349967      -0.17296865
H       -1.41423835      -1.38076092       0.84578477
H       -2.01551411       1.13005261      -0.26228083
10
Frame=4 idx=000241 GeodesicLength=0.2271248365068337 rxn_smarts="[c:1]1([H:7])[c:2]([H:8])[n:3][c:4]([H:9])[c:5]([H:10])[n:6]1>>[C:1]1([H:7])=[N:6][C@@:5]2([H:10])[N:3]3[C@:2]1([H:8])[C@:4]32[H:9]"
C        1.09762106       0.71119319       0.11071593
C        0.83763020      -0.62621071      -0.22711832
N       -0.32793455      -1.04832923      -0.97649790
C       -0.82151761      -0.72350181       0.22118401
C       -1.03596762       0.74080088       0.00279267
N        0.02437706       1.50717465       0.07793653
H        2.07377170       1.08367712       0.38930656
H        1.60669920      -1.38571234      -0.17520165
H       -1.43855464      -1.38500193       0.83285673
H       -2.01612479       1.12591019      -0.25597456
10
Frame=5 idx=000241 GeodesicLength=0.28398997272474097 rxn_smarts="[c:1]1([H:7])[c:2]([H:8])[n:3][c:4]([H:9])[c:5]([H:10])[n:6]1>>[C:1]1([H:7])=[N:6][C@@:5]2([H:10])[N:3]3[C@:2]1([H:8])[C@:4]32[H:9]"
C        1.10104339       0.71331766       0.11273165
C        0.84115590      -0.62977414      -0.21539250
N       -0.32386432      -1.03208701      -0.96937918
C       -0.82504549      -0.72460143       0.23343855
C       -1.03450028       0.73069979      -0.00789615
N        0.02760893       1.50383041       0.08310357
H        2.08005293       1.09341945       0.37082678
H        1.61245681      -1.38775187      -0.17689627
H       -1.46246295      -1.38886865       0.81890597
H       -2.01644492       1.12181579      -0.24944242
10
Frame=6 idx=000241 GeodesicLength=0.34079226901931137 rxn_smarts="[c:1]1([H:7])[c:2]([H:8])[n:3][c:4]([H:9])[c:5]([H:10])[n:6]1>>[C:1]1([H:7])=[N:6][C@@:5]2([H:10])[N:3]3[C@:2]1([H:8])[C@:4]32[H:9]"
C        1.10435104       0.71540362       0.11499816
C        0.84459992      -0.63334054      -0.20352578
N       -0.31947740      -1.01631515      -0.96204339
C       -0.82891454      -0.72567615       0.24528177
C       -1.03306502       0.72063640      -0.01810877
N        0.03073888       1.50042659       0.08881348
H        2.08603528       1.10311927       0.35130802
H        1.61802929      -1.38964668      -0.17809474
H       -1.48598290      -1.39230542       0.80415019
H       -2.01631455       1.11769806      -0.24277894
10
Frame=7 idx=000241 GeodesicLength=0.3977180651753706 rxn_smarts="[c:1]1([H:7])[c:2]([H:8])[n:3][c:4]([H:9])[c:5]([H:10])[n:6]1>>[C:1]1([H:7])=[N:6][C@@:5]2([H:10])[N:3]3[C@:2]1([H:8])[C@:4]32[H:9]"
C        1.10758433       0.71742848       0.11739190
C        0.84792131      -0.63684284      -0.19160325
N       -0.31491997      -1.00096545      -0.95443100
C       -0.83312652      -0.72665904       0.25680383
C       -1.03165217       0.71054751      -0.02779922
N        0.03377808       1.49694060       0.09488753
H        2.09161905       1.11267710       0.33110193
H        1.62338430      -1.39139236      -0.17891130
H       -1.50882431      -1.39539652       0.78869879
H       -2.01576410       1.11366252      -0.23613920
10
Frame=8 idx=000241 GeodesicLength=0.4546326389867079 rxn_smarts="[c:1]1([H:7])[c:2]([H:8])[n:3][c:4]([H:9])[c:5]([H:10])[n:6]1>>[C:1]1([H:7])=[N:6][C@@:5]2([H:10])[N:3]3[C@:2]1([H:8])[C@:4]32[H:9]"
C        1.11075377       0.71941309       0.12003036
C        0.85110630      -0.64032228      -0.17961269
N       -0.31019957      -0.98598469      -0.94662522
C       -0.83768704      -0.72761216       0.26800194
C       -1.03024162       0.70052156      -0.03688160
N        0.03675858       1.49340575       0.10145350
H        2.09680766       1.12207277       0.31004475
H        1.62851068      -1.39299849      -0.17932443
H       -1.53095757      -1.39812344       0.77259064
H       -2.01485118       1.10962787      -0.22967724
10
Frame=9 idx=000241 GeodesicLength=0.5115246042873419 rxn_smarts="[c:1]1([H:7])[c:2]([H:8])[n:3][c:4]([H:9])[c:5]([H:10])[n:6]1>>[C:1]1([H:7])=[N:6][C@@:5]2([H:10])[N:3]3[C@:2]1([H:8])[C@:4]32[H:9]"
C        1.11384721       0.72132783       0.12306627
C        0.85418357      -0.64376405      -0.16750453
N       -0.30525812      -0.97127252      -0.93865610
C       -0.84259790      -0.72856892       0.27878099
C       -1.02885220       0.69056109      -0.04532149
N        0.03969050       1.48980851       0.10867507
H        2.10159655       1.13136473       0.28781582
H        1.63343845      -1.39450761      -0.17925865
H       -1.55249948      -1.40062965       0.75588915
H       -2.01354859       1.10568059      -0.22348654
10
Frame=10 idx=000241 GeodesicLength=0.5685154201168914 rxn_smarts="[c:1]1([H:7])[c:2]([H:8])[n:3][c:4]([H:9])[c:5]([H:10])[n:6]1>>[C:1]1([H:7])=[N:6][C@@:5]2([H:10])[N:3]3[C@:2]1([H:8])[C@:4]32[H:9]"
C        1.11689469       0.72322800       0.12614453
C        0.85711708      -0.64713943      -0.15546588
N       -0.30026021      -0.95687216      -0.93051536
C       -0.84782656      -0.72946349       0.28929920
C       -1.02748648       0.68066092      -0.05314661
N        0.04257661       1.48617422       0.11626114
H        2.10582329       1.14036116       0.26519321
H        1.63810762      -1.39588639      -0.17895623
H       -1.57312542      -1.40284075       0.73883471
H       -2.01182061       1.10177793      -0.21764870
10
Frame=11 idx=000241 GeodesicLength=0.6254741129073533 rxn_smarts="[c:1]1([H:7])[c:2]([H:8])[n:3][c:4]([H:9])[c:5]([H:10])[n:6]1>>[C:1]1([H:7])=[N:6][C@@:5]2([H:10])[N:3]3[C@:2]1([H:8])[C@:4]32[H:9]"
C        1.11992183       0.72509085       0.12938302
C        0.85994812      -0.65044906      -0.14345021
N       -0.29517353      -0.94271071      -0.92221513
C       -0.85332746      -0.73034681       0.29946120
C       -1.02612458       0.67084586      -0.06033899
N        0.04545577       1.48250394       0.12435120
H        2.10951556       1.14911245       0.24189745
H        1.64259880      -1.39717199      -0.17833012
H       -1.59302242      -1.40486234       0.72144511
H       -2.00979209       1.09798782      -0.21220353
10
Frame=12 idx=000241 GeodesicLength=0.6825259313583079 rxn_smarts="[c:1]1([H:7])[c:2]([H:8])[n:3][c:4]([H:9])[c:5]([H:10])[n:6]1>>[C:1]1([H:7])=[N:6][C@@:5]2([H:10])[N:3]3[C@:2]1([H:8])[C@:4]32[H:9]"
C        1.12291749       0.72694800       0.13252523
C        0.86265530      -0.65367857      -0.13160457
N       -0.29006850      -0.92881293      -0.91378037
C       -0.85909518      -0.73117367       0.30938147
C       -1.02478491       0.66111380      -0.06693568
N        0.04832417       1.47880982       0.13273010
H        2.11257931       1.15751460       0.21851308
H        1.64681987      -1.39834537      -0.17756893
H       -1.61196224      -1.40664237       0.70394390
H       -2.00738529       1.09426670      -0.20720424
10
Frame=13 idx=000241 GeodesicLength=0.7395358258772315 rxn_smarts="[c:1]1([H:7])[c:2]([H:8])[n:3][c:4]([H:9])[c:5]([H:10])[n:6]1>>[C:1]1([H:7])=[N:6][C@@:5]2([H:10])[N:3]3[C@:2]1([H:8])[C@:4]32[H:9]"
C        1.12593049       0.72880987       0.13570118
C        0.86527090      -0.65685744      -0.11987503
N       -0.28492770      -0.91515833      -0.90523923
C       -0.86509496      -0.73199486       0.31898826
C       -1.02343135       0.65149247      -0.07293108
N        0.05122361       1.47509674       0.14155729
H        2.11505574       1.16563869       0.19472895
H        1.65087597      -1.39945177      -0.17655914
H       -1.63014829      -1.40821556       0.68626404
H       -2.00475439       1.09064019      -0.20263523
10
Frame=14 idx=000241 GeodesicLength=0.7965817980877437 rxn_smarts="[c:1]1([H:7])[c:2]([H:8])[n:3][c:4]([H:9])[c:5]([H:10])[n:6]1>>[C:1]1([H:7])=[N:6][C@@:5]2([H:10])[N:3]3[C@:2]1([H:8])[C@:4]32[H:9]"
C        1.12894847       0.73068147       0.13870455
C        0.86778770      -0.65995925      -0.10837353
N       -0.27982339      -0.90175473      -0.89658555
C       -0.87130482      -0.73277457       0.32834970
C       -1.02208870       0.64196862      -0.07839475
N        0.05415085       1.47137789       0.15061204
H        2.11691945       1.17341914       0.17103743
H        1.65472578      -1.40048412      -0.17544906
H       -1.64744199      -1.40959034       0.66859758
H       -2.00187334       1.08711589      -0.19849841
10
Frame=15 idx=000241 GeodesicLength=0.8536451189402771 rxn_smarts="[c:1]1([H:7])[c:2]([H:8])[n:3][c:4]([H:9])[c:5]([H:10])[n:6]1>>[C:1]1([H:7])=[N:6][C@@:5]2([H:10])[N:3]3[C@:2]1([H:8])[C@:4]32[H:9]"
C        1.13196695       0.73257862       0.14142268
C        0.87021396      -0.66298290      -0.09717888
N       -0.27479557      -0.88862384      -0.88784729
C       -0.87769334      -0.73350142       0.33747821
C       -1.02076597       0.63254385      -0.08338632
N        0.05711347       1.46766804       0.15976979
H        2.11820602       1.18084157       0.14773149
H        1.65837849      -1.40144961      -0.17431269
H       -1.66383608      -1.41076127       0.65108968
H       -1.99878793       1.08368695      -0.19476666
10
Frame=16 idx=000241 GeodesicLength=0.9107098905280333 rxn_smarts="[c:1]1([H:7])[c:2]([H:8])[n:3][c:4]([H:9])[c:5]([H:10])[n:6]1>>[C:1]1([H:7])=[N:6][C@@:5]2([H:10])[N:3]3[C@:2]1([H:8])[C@:4]32[H:9]"
C        1.13498143       0.73450513       0.14380094
C        0.87255705      -0.66592814      -0.08633502
N       -0.26986879      -0.87577430      -0.87904178
C       -0.88423816      -0.73416856       0.34637901
C       -1.01947037       0.62321774      -0.08796300
N        0.06011807       1.46397719       0.16894403
H        2.11896251       1.18791709       0.12497928
H        1.66184481      -1.40236186      -0.17318710
H       -1.67934581      -1.41174297       0.63382574
H       -1.99554073       1.08035870      -0.19140210
