16
Frame=0 idx=004289 GeodesicLength=0.0 rxn_smarts="[C:1]([C@@:2]1([H:10])[C:3]([H:11])([H:12])[O:4][C@:5]1([C:6]([H:14])([H:15])[H:16])[H:13])([H:7])([H:8])[H:9]>>[C:1]([C@@:2]1([C:5](=[C:6]([H:14])[H:15])[H:13])[C:3]([H:11])([H:12])[O:4]1)([H:7])([H:8])[H:9].[H:10][H:16]"
C       -1.24337736       0.40928757      -0.83259239
C       -0.51063764      -0.26175522       0.27581380
C       -0.48213167      -1.76171009       0.23389524
O        0.76161679      -1.49450342      -0.39867551
C        0.99894075      -0.15487856       0.39880484
C        1.56762279       1.02268110      -0.09677929
H       -1.03726638       1.47791795      -0.86505029
H       -2.31546052       0.24591296      -0.70901309
H       -0.94503874      -0.03028841      -1.79118867
H       -0.52686231       1.16361980       1.32877717
H       -1.18192720      -2.25660036      -0.43816905
H       -0.38521781      -2.28529091       1.18832180
H        1.36649370      -0.46640837       1.37541626
H        1.27894744       1.40511586      -1.06734269
H        2.48971791       1.39566760       0.32407187
H        0.16458028       1.59123248       1.07371000
16
Frame=1 idx=004289 GeodesicLength=0.09459678600763445 rxn_smarts="[C:1]([C@@:2]1([H:10])[C:3]([H:11])([H:12])[O:4][C@:5]1([C:6]([H:14])([H:15])[H:16])[H:13])([H:7])([H:8])[H:9]>>[C:1]([C@@:2]1([C:5](=[C:6]([H:14])[H:15])[H:13])[C:3]([H:11])([H:12])[O:4]1)([H:7])([H:8])[H:9].[H:10][H:16]"
C       -1.24488482       0.40516838      -0.83756177
C       -0.50387736      -0.26445460       0.26818567
C       -0.48962821      -1.76372172       0.24357903
O        0.74410792      -1.50459697      -0.41130923
C        1.00639350      -0.15679898       0.38606192
C        1.56730523       1.03464484      -0.08735707
H       -1.05857297       1.47790193      -0.85753559
H       -2.31507707       0.22529784      -0.72178912
H       -0.93489412      -0.01186587      -1.80205940
H       -0.53211224       1.15569833       1.32845824
H       -1.20296165      -2.25918111      -0.41388133
H       -0.38258923      -2.28025398       1.20048843
H        1.38492259      -0.47859966       1.35570719
H        1.30304611       1.41252781      -1.06683327
H        2.48472531       1.40599988       0.34625384
H        0.17409702       1.60223389       1.06959246
16
Frame=2 idx=004289 GeodesicLength=0.18852374826473103 rxn_smarts="[C:1]([C@@:2]1([H:10])[C:3]([H:11])([H:12])[O:4][C@:5]1([C:6]([H:14])([H:15])[H:16])[H:13])([H:7])([H:8])[H:9]>>[C:1]([C@@:2]1([C:5](=[C:6]([H:14])[H:15])[H:13])[C:3]([H:11])([H:12])[O:4]1)([H:7])([H:8])[H:9].[H:10][H:16]"
C       -1.24643358       0.40099218      -0.84269000
C       -0.49715602      -0.26719168       0.26036528
C       -0.49702295      -1.76547038       0.25351657
O        0.72624763      -1.51483489      -0.42370345
C        1.01382641      -0.15861580       0.37278292
C        1.56690110       1.04635617      -0.07802437
H       -1.08058706       1.47742101      -0.84956772
H       -2.31441786       0.20431278      -0.73527215
H       -0.92464926       0.00737160      -1.81270547
H       -0.53776854       1.14721580       1.32836611
H       -1.22384240      -2.26131947      -0.38891526
H       -0.37964851      -2.27484891       1.21277595
H        1.40352251      -0.49075223       1.33508424
H        1.32798640       1.42004363      -1.06582041
H        2.47949441       1.41567799       0.36859478
H        0.18354773       1.61364219       1.06521299
16
Frame=3 idx=004289 GeodesicLength=0.2820193448797437 rxn_smarts="[C:1]([C@@:2]1([H:10])[C:3]([H:11])([H:12])[O:4][C@:5]1([C:6]([H:14])([H:15])[H:16])[H:13])([H:7])([H:8])[H:9]>>[C:1]([C@@:2]1([C:5](=[C:6]([H:14])[H:15])[H:13])[C:3]([H:11])([H:12])[O:4]1)([H:7])([H:8])[H:9].[H:10][H:16]"
C       -1.24803020       0.39676045      -0.84797418
C       -0.49048470      -0.26996560       0.25235845
C       -0.50430229      -1.76694197       0.26370573
O        0.70803311      -1.52520099      -0.43584853
C        1.02122061      -0.16031857       0.35897761
C        1.56643079       1.05778274      -0.06879764
H       -1.10332783       1.47642273      -0.84113628
H       -2.31346315       0.18295684      -0.74948661
H       -0.91432161       0.02745570      -1.82308179
H       -0.54387856       1.13810830       1.32853537
H       -1.24454682      -2.26298917      -0.36326748
H       -0.37636987      -2.26907101       1.22516650
H        1.42226809      -0.50285728       1.31353980
H        1.35378815       1.42765838      -1.06425869
H        2.47403395       1.42464650       0.39109078
H        0.19295033       1.62555294       1.06047698
16
Frame=4 idx=004289 GeodesicLength=0.3753522482377051 rxn_smarts="[C:1]([C@@:2]1([H:10])[C:3]([H:11])([H:12])[O:4][C@:5]1([C:6]([H:14])([H:15])[H:16])[H:13])([H:7])([H:8])[H:9]>>[C:1]([C@@:2]1([C:5](=[C:6]([H:14])[H:15])[H:13])[C:3]([H:11])([H:12])[O:4]1)([H:7])([H:8])[H:9].[H:10][H:16]"
C       -1.24968313       0.39247603      -0.85340562
C       -0.48387561      -0.27277528       0.24417590
C       -0.51144956      -1.76812407       0.27414096
O        0.68946344      -1.53567433      -0.44773448
C        1.02855442      -0.16189550       0.34466349
C        1.56591794       1.06889146      -0.05969476
H       -1.12681069       1.47485161      -0.83223330
H       -2.31219340       0.16122993      -0.76445111
H       -0.90393453       0.04842503      -1.83313240
H       -0.55050070       1.12829890       1.32900662
H       -1.26504899      -2.26416242      -0.33694312
H       -0.37272633      -2.26292559       1.23763585
H        1.44112958      -0.51490708       1.29107495
H        1.38047678       1.43535295      -1.06210458
H        2.46834939       1.43285143       0.41373882
H        0.20233140       1.63808692       1.05526279
16
Frame=5 idx=004289 GeodesicLength=0.46865314007779374 rxn_smarts="[C:1]([C@@:2]1([H:10])[C:3]([H:11])([H:12])[O:4][C@:5]1([C:6]([H:14])([H:15])[H:16])[H:13])([H:7])([H:8])[H:9]>>[C:1]([C@@:2]1([C:5](=[C:6]([H:14])[H:15])[H:13])[C:3]([H:11])([H:12])[O:4]1)([H:7])([H:8])[H:9].[H:10][H:16]"
C       -1.25139888       0.38814409      -0.85897330
C       -0.47734044      -0.27561940       0.23583204
C       -0.51845081      -1.76900397       0.28481214
O        0.67054046      -1.54623069      -0.45934907
C        1.03580701      -0.16333479       0.32986474
C        1.56539030       1.07965066      -0.05072995
H       -1.15105206       1.47264857      -0.82285078
H       -2.31058495       0.13913216      -0.78018575
H       -0.89352356       0.07030961      -1.84279850
H       -0.55768116       1.11772021       1.32981731
H       -1.28531975      -2.26481250      -0.30995428
H       -0.36869755      -2.25642167       1.25015292
H        1.46007888      -0.52689193       1.26769528
H        1.40807357       1.44310373      -1.05931728
H        2.46245434       1.44023858       0.43653399
H        0.21170459       1.65136735       1.04945047
16
Frame=6 idx=004289 GeodesicLength=0.5621908685261484 rxn_smarts="[C:1]([C@@:2]1([H:10])[C:3]([H:11])([H:12])[O:4][C@:5]1([C:6]([H:14])([H:15])[H:16])[H:13])([H:7])([H:8])[H:9]>>[C:1]([C@@:2]1([C:5](=[C:6]([H:14])[H:15])[H:13])[C:3]([H:11])([H:12])[O:4]1)([H:7])([H:8])[H:9].[H:10][H:16]"
C       -1.25318803       0.38377021      -0.86465801
C       -0.47089310      -0.27849649       0.22734655
C       -0.52528815      -1.76957601       0.29570515
O        0.65127026      -1.55684209      -0.47068076
C        1.04295297      -0.16462051       0.31461870
C        1.56487727       1.09002753      -0.04192744
H       -1.17606949       1.46975183      -0.81297074
H       -2.30860783       0.11667061      -0.79670715
H       -0.88312677       0.09315841      -1.85200313
H       -0.56549220       1.10626687       1.33102524
H       -1.30532654      -2.26490974      -0.28232265
H       -0.36425983      -2.24958103       1.26268181
H        1.47907780      -0.53880131       1.24341612
H        1.43661850       1.45085971      -1.05585883
H        2.45635057       1.44676068       0.45947401
H        0.22110457       1.66556131       1.04286114
16
Frame=7 idx=004289 GeodesicLength=0.6560697665636838 rxn_smarts="[C:1]([C@@:2]1([H:10])[C:3]([H:11])([H:12])[O:4][C@:5]1([C:6]([H:14])([H:15])[H:16])[H:13])([H:7])([H:8])[H:9]>>[C:1]([C@@:2]1([C:5](=[C:6]([H:14])[H:15])[H:13])[C:3]([H:11])([H:12])[O:4]1)([H:7])([H:8])[H:9].[H:10][H:16]"
C       -1.25506127       0.37936232      -0.87043478
C       -0.46454571      -0.28140559       0.21874243
C       -0.53194564      -1.76983563       0.30680001
O        0.63166208      -1.56747828      -0.48171805
C        1.04996903      -0.16573962       0.29896433
C        1.56440947       1.09999426      -0.03330309
H       -1.20187445       1.46610139      -0.80258374
H       -2.30623243       0.09385181      -0.81402057
H       -0.87279904       0.11700974      -1.86066800
H       -0.57398552       1.09385491       1.33269269
H       -1.32503331      -2.26442992      -0.25408060
H       -0.35939876      -2.24243511       1.27517727
H        1.49809027      -0.55062210       1.21826170
H        1.46615082       1.45856416      -1.05169104
H        2.45003917       1.45237560       0.48256539
H        0.23055530       1.68083205       1.03529607
16
Frame=8 idx=004289 GeodesicLength=0.7503843976913928 rxn_smarts="[C:1]([C@@:2]1([H:10])[C:3]([H:11])([H:12])[O:4][C@:5]1([C:6]([H:14])([H:15])[H:16])[H:13])([H:7])([H:8])[H:9]>>[C:1]([C@@:2]1([C:5](=[C:6]([H:14])[H:15])[H:13])[C:3]([H:11])([H:12])[O:4]1)([H:7])([H:8])[H:9].[H:10][H:16]"
C       -1.25702823       0.37493167      -0.87627125
C       -0.45831131      -0.28434579       0.21005082
C       -0.53840669      -1.76978168       0.31807089
O        0.61172877      -1.57810318      -0.49244796
C        1.05682963      -0.16667712       0.28295902
C        1.56402462       1.10952113      -0.02487562
H       -1.22848087       1.46162729      -0.79166594
H       -2.30342288       0.07068780      -0.83212697
H       -0.86260023       0.14191267      -1.86870216
H       -0.58321603       1.08037825       1.33489254
H       -1.34440268      -2.26334655      -0.22527567
H       -0.35410179      -2.23502404       1.28758859
H        1.51707381      -0.56234592       1.19226186
H        1.49672531       1.46613598      -1.04678511
H        2.44351194       1.45705364       0.50581428
H        0.24007663       1.69737585       1.02651269
16
Frame=9 idx=004289 GeodesicLength=0.8457929023562945 rxn_smarts="[C:1]([C@@:2]1([H:10])[C:3]([H:11])([H:12])[O:4][C@:5]1([C:6]([H:14])([H:15])[H:16])[H:13])([H:7])([H:8])[H:9]>>[C:1]([C@@:2]1([C:5](=[C:6]([H:14])[H:15])[H:13])[C:3]([H:11])([H:12])[O:4]1)([H:7])([H:8])[H:9].[H:10][H:16]"
C       -1.25911600       0.37052101      -0.88209035
C       -0.45219566      -0.28731268       0.20130911
C       -0.54465097      -1.76943622       0.32946056
O        0.59150800      -1.58865109      -0.50288061
C        1.06350866      -0.16739862       0.26669610
C        1.56376069       1.11858499      -0.01667168
H       -1.25591370       1.45631703      -0.78010637
H       -2.30012389       0.04718974      -0.85099327
H       -0.85260276       0.16794730      -1.87595345
H       -0.59333239       1.06562648       1.33779219
H       -1.36337923      -2.26166340      -0.19600432
H       -0.34838189      -2.22742787       1.29982699
H        1.53595090      -0.57395058       1.16551050
H        1.52846969       1.47330656      -1.04118543
H        2.43664959       1.46087916       0.52930053
H        0.24984897       1.71546818       1.01598950
16
Frame=10 idx=004289 GeodesicLength=0.9416154523013232 rxn_smarts="[C:1]([C@@:2]1([H:10])[C:3]([H:11])([H:12])[O:4][C@:5]1([C:6]([H:14])([H:15])[H:16])[H:13])([H:7])([H:8])[H:9]>>[C:1]([C@@:2]1([C:5](=[C:6]([H:14])[H:15])[H:13])[C:3]([H:11])([H:12])[O:4]1)([H:7])([H:8])[H:9].[H:10][H:16]"
C       -1.26132348       0.36611576      -0.88787812
C       -0.44621549      -0.29031123       0.19255479
C       -0.55067073      -1.76879452       0.34095933
O        0.57099613      -1.59911398      -0.51299848
C        1.06998582      -0.16791077       0.25021245
C        1.56365166       1.12716774      -0.00870273
H       -1.28418260       1.45004403      -0.76793752
H       -2.29630774       0.02339112      -0.87062849
H       -0.84286478       0.19514360      -1.88234443
H       -0.60429004       1.04958032       1.34136453
H       -1.38195332      -2.25933774      -0.16629390
H       -0.34221249      -2.21968291       1.31185830
H        1.55471675      -0.58543410       1.13800692
H        1.56140352       1.48011748      -1.03478295
H        2.42949974       1.46375591       0.55299374
H        0.25976705       1.73526930       1.00361657
16
Frame=11 idx=004289 GeodesicLength=1.0377245462690703 rxn_smarts="[C:1]([C@@:2]1([H:10])[C:3]([H:11])([H:12])[O:4][C@:5]1([C:6]([H:14])([H:15])[H:16])[H:13])([H:7])([H:8])[H:9]>>[C:1]([C@@:2]1([C:5](=[C:6]([H:14])[H:15])[H:13])[C:3]([H:11])([H:12])[O:4]1)([H:7])([H:8])[H:9].[H:10][H:16]"
C       -1.26366491       0.36172747      -0.89358384
C       -0.44037895      -0.29334510       0.18382669
C       -0.55645201      -1.76787460       0.35252655
O        0.55021302      -1.60945816      -0.52280659
C        1.07624159      -0.16820550       0.23357482
C        1.56372985       1.13525490      -0.00098270
H       -1.31329677       1.44275511      -0.75511609
H       -2.29194010      -0.00067392      -0.89099518
H       -0.83344914       0.22353966      -1.88775685
H       -0.61612940       1.03215069       1.34566871
H       -1.40009200      -2.25636374      -0.13621952
H       -0.33559487      -2.21186326       1.32361445
H        1.57333155      -0.59678650       1.10980770
H        1.59559965       1.48644381      -1.02754033
H        2.42200824       1.46569503       0.57692943
H        0.26987424       1.75700413       0.98905274
16
Frame=12 idx=004289 GeodesicLength=1.1340130500113164 rxn_smarts="[C:1]([C@@:2]1([H:10])[C:3]([H:11])([H:12])[O:4][C@:5]1([C:6]([H:14])([H:15])[H:16])[H:13])([H:7])([H:8])[H:9]>>[C:1]([C@@:2]1([C:5](=[C:6]([H:14])[H:15])[H:13])[C:3]([H:11])([H:12])[O:4]1)([H:7])([H:8])[H:9].[H:10][H:16]"
C       -1.26615388       0.35737926      -0.89914160
C       -0.43469315      -0.29641663       0.17517386
C       -0.56198393      -1.76670025       0.36411465
O        0.52918178      -1.61964156      -0.53231262
C        1.08225758      -0.16827254       0.21686779
C        1.56403678       1.14283249       0.00646523
H       -1.34327493       1.43437358      -0.74156967
H       -2.28697617      -0.02496389      -0.91205580
H       -0.82443475       0.25319068      -1.89204905
H       -0.62888927       1.01321565       1.35078030
H       -1.41776522      -2.25273534      -0.10587384
H       -0.32853489      -2.20405951       1.33501894
H        1.59175128      -0.60799793       1.08097504
H        1.63116848       1.49212299      -1.01942244
H        2.41408959       1.46673412       0.60116184
H        0.28022072       1.78093887       0.97186739
16
Frame=13 idx=004289 GeodesicLength=1.2303028646371859 rxn_smarts="[C:1]([C@@:2]1([H:10])[C:3]([H:11])([H:12])[O:4][C@:5]1([C:6]([H:14])([H:15])[H:16])[H:13])([H:7])([H:8])[H:9]>>[C:1]([C@@:2]1([C:5](=[C:6]([H:14])[H:15])[H:13])[C:3]([H:11])([H:12])[O:4]1)([H:7])([H:8])[H:9].[H:10][H:16]"
C       -1.26880585       0.35309323      -0.90447933
C       -0.42916249      -0.29953108       0.16664685
C       -0.56725912      -1.76530477       0.37567184
O        0.50792704      -1.62962544      -0.54153150
C        1.08801923      -0.16810828       0.20017116
C        1.56460344       1.14989902       0.01362817
H       -1.37413038       1.42482721      -0.72722453
H       -2.28137751      -0.04942904      -0.93375657
H       -0.81590800       0.28415632      -1.89506857
H       -0.64258956       0.99266478       1.35677656
H       -1.43494407      -2.24845924      -0.07535550
H       -0.32104082      -2.19637363       1.34599208
H        1.60993554      -0.61905844       1.05157652
H        1.66823091       1.49698758      -1.01037342
H        2.40563564       1.46691990       0.62576422
H        0.29086599       1.80734187       0.95156202
16
Frame=14 idx=004289 GeodesicLength=1.3263857496569886 rxn_smarts="[C:1]([C@@:2]1([H:10])[C:3]([H:11])([H:12])[O:4][C@:5]1([C:6]([H:14])([H:15])[H:16])[H:13])([H:7])([H:8])[H:9]>>[C:1]([C@@:2]1([C:5](=[C:6]([H:14])[H:15])[H:13])[C:3]([H:11])([H:12])[O:4]1)([H:7])([H:8])[H:9].[H:10][H:16]"
C       -1.27163561       0.34889723      -0.90951229
C       -0.42378927      -0.30269526       0.15830062
C       -0.57226752      -1.76372898       0.38714093
O        0.48647404      -1.63937007      -0.55048302
C        1.09351410      -0.16770901       0.18356919
C        1.56546873       1.15644996       0.02047878
H       -1.40586109       1.41405073      -0.71199644
H       -2.27510222      -0.07400343      -0.95603073
H       -0.80797020       0.31650088      -1.89664675
H       -0.65724511       0.97037030       1.36375727
H       -1.45160118      -2.24354915      -0.04477491
H       -0.31312697      -2.18892326       1.35644698
H        1.62784261      -0.62995206       1.02169242
H        1.70693436       1.50084619      -1.00032955
H        2.39648607       1.46633401       0.65082659
H        0.30187925       1.83648191       0.92756092
16
Frame=15 idx=004289 GeodesicLength=1.4220368528727019 rxn_smarts="[C:1]([C@@:2]1([H:10])[C:3]([H:11])([H:12])[O:4][C@:5]1([C:6]([H:14])([H:15])[H:16])[H:13])([H:7])([H:8])[H:9]>>[C:1]([C@@:2]1([C:5](=[C:6]([H:14])[H:15])[H:13])[C:3]([H:11])([H:12])[O:4]1)([H:7])([H:8])[H:9].[H:10][H:16]"
C       -1.27466210       0.34482464      -0.91414092
C       -0.41857445      -0.30591863       0.15019631
C       -0.57700325      -1.76202516       0.39845914
O        0.46484887      -1.64883419      -0.55919444
C        1.09873211      -0.16707359       0.16715093
C        1.56666218       1.16249161       0.02699315
H       -1.43846440       1.40197034      -0.69578829
H       -2.26810522      -0.09860583      -0.97880423
H       -0.80073080       0.35030755      -1.89658502
H       -0.67285782       0.94620206       1.37182519
H       -1.46770959      -2.23803370      -0.01425486
H       -0.30480977      -2.18184073       1.36629269
H        1.64543285      -0.64066131       0.99140787
H        1.74745031       1.50348637      -0.98919922
H        2.38643787       1.46508027       0.67645099
H        0.31335322       1.86863030       0.89919072
16
Frame=16 idx=004289 GeodesicLength=1.5170286758127123 rxn_smarts="[C:1]([C@@:2]1([H:10])[C:3]([H:11])([H:12])[O:4][C@:5]1([C:6]([H:14])([H:15])[H:16])[H:13])([H:7])([H:8])[H:9]>>[C:1]([C@@:2]1([C:5](=[C:6]([H:14])[H:15])[H:13])[C:3]([H:11])([H:12])[O:4]1)([H:7])([H:8])[H:9].[H:10][H:16]"
C       -1.27790793       0.34091489      -0.91825166
C       -0.41351593      -0.30921287       0.14239892
C       -0.58146238      -1.76025526       0.40956088
O        0.44307455      -1.65797784      -0.56770485
C        1.10366772      -0.16620541       0.15099871
C        1.56821259       1.16803382       0.03313475
H       -1.47193541       1.38850402      -0.67848737
H       -2.26034140      -0.12313723      -1.00199446
H       -0.79431422       0.38567144      -1.89465510
H       -0.68941391       0.92001969       1.38108018
H       -1.48324948      -2.23195221       0.01608005
H       -0.29610631      -2.17527293       1.37543383
H        1.66267214      -0.65116745       0.96080822
H        1.78998870       1.50468121      -0.97685243
H        2.37521151       1.46329966       0.70277114
H        0.32541977       1.90405648       0.86567920
