11
Frame=0 idx=008702 GeodesicLength=0.0 rxn_smarts="[O:1]=[C:2]([c:3]1[c:4]([H:9])[n:5][c:6]([H:10])[n:7]1[H:11])[H:8]>>[O:1]=[C:2](/[C:3]([C-:4]([N+:5]#[C:6][H:10])[H:9])=[N:7]\[H:11])[H:8]"
O       -2.51010483      -1.25247248       0.02782998
C       -1.88994862      -0.22720871       0.02418404
C       -0.38354157      -0.18277942       0.03949895
C        0.24009763       1.10858214      -0.06456409
N        1.53606796       1.01520425      -0.15580352
C        2.40957447       0.20923766      -0.31484538
N        0.33818056      -1.23786754       0.10979970
H       -2.40255826       0.75455971       0.01114057
H       -0.26655712       2.05787270      -0.12576422
H        3.17520680      -0.17345102       0.34525732
H       -0.24641702      -2.07167728       0.10326662
11
Frame=1 idx=008702 GeodesicLength=0.05445920493085139 rxn_smarts="[O:1]=[C:2]([c:3]1[c:4]([H:9])[n:5][c:6]([H:10])[n:7]1[H:11])[H:8]>>[O:1]=[C:2](/[C:3]([C-:4]([N+:5]#[C:6][H:10])[H:9])=[N:7]\[H:11])[H:8]"
O       -2.50286833      -1.25757076       0.03281373
C       -1.88998164      -0.22757110       0.03031790
C       -0.38587336      -0.17410880       0.04039742
C        0.23991137       1.11419908      -0.06706692
N        1.53733284       1.01874121      -0.15823502
C        2.38897826       0.18288119      -0.30682199
N        0.34668716      -1.22591597       0.09491227
H       -2.40787314       0.75115324       0.00772963
H       -0.26530371       2.06446602      -0.12554241
H        3.16750637      -0.18039330       0.34917246
H       -0.22851581      -2.06588080       0.10232292
11
Frame=2 idx=008702 GeodesicLength=0.10888724992849405 rxn_smarts="[O:1]=[C:2]([c:3]1[c:4]([H:9])[n:5][c:6]([H:10])[n:7]1[H:11])[H:8]>>[O:1]=[C:2](/[C:3]([C-:4]([N+:5]#[C:6][H:10])[H:9])=[N:7]\[H:11])[H:8]"
O       -2.49586851      -1.26247049       0.04075155
C       -1.89003295      -0.22795955       0.03583776
C       -0.38825804      -0.16594403       0.03608181
C        0.23979204       1.11941970      -0.07239017
N        1.53883344       1.02198479      -0.16086298
C        2.36930030       0.15820825      -0.29649967
N        0.35471604      -1.21424238       0.07923237
H       -2.41303173       0.74781482       0.00791764
H       -0.26377306       2.07088784      -0.12568651
H        3.15910577      -0.18749118       0.35548444
H       -0.21078330      -2.06020778       0.10013374
11
Frame=3 idx=008702 GeodesicLength=0.16334920855626928 rxn_smarts="[O:1]=[C:2]([c:3]1[c:4]([H:9])[n:5][c:6]([H:10])[n:7]1[H:11])[H:8]>>[O:1]=[C:2](/[C:3]([C-:4]([N+:5]#[C:6][H:10])[H:9])=[N:7]\[H:11])[H:8]"
O       -2.48899810      -1.26714935       0.05200143
C       -1.89003111      -0.22831513       0.04277509
C       -0.39073868      -0.15823962       0.02624132
C        0.23967006       1.12426262      -0.08148435
N        1.54058814       1.02495612      -0.16355869
C        2.35060372       0.13504096      -0.28350891
N        0.36236635      -1.20290545       0.06234792
H       -2.41803054       0.74458970       0.01180407
H       -0.26203121       2.07714169      -0.12702259
H        3.14980942      -0.19466071       0.36533833
H       -0.19320805      -2.05472083       0.09506636
11
Frame=4 idx=008702 GeodesicLength=0.2177772733194045 rxn_smarts="[O:1]=[C:2]([c:3]1[c:4]([H:9])[n:5][c:6]([H:10])[n:7]1[H:11])[H:8]>>[O:1]=[C:2](/[C:3]([C-:4]([N+:5]#[C:6][H:10])[H:9])=[N:7]\[H:11])[H:8]"
O       -2.48202031      -1.27170314       0.06893134
C       -1.88997120      -0.22868745       0.04922974
C       -0.39346526      -0.15095843       0.01077418
C        0.23961624       1.12905505      -0.08959220
N        1.54243618       1.02802442      -0.16384839
C        2.33209492       0.11382320      -0.27036971
N        0.36966011      -1.19173561       0.04402286
H       -2.42309556       0.74101750       0.00978043
H       -0.26006977       2.08347758      -0.12441900
H        3.14047096      -0.20321358       0.37337209
H       -0.17565632      -2.04909955       0.09211866
11
Frame=5 idx=008702 GeodesicLength=0.27222435166389614 rxn_smarts="[O:1]=[C:2]([c:3]1[c:4]([H:9])[n:5][c:6]([H:10])[n:7]1[H:11])[H:8]>>[O:1]=[C:2](/[C:3]([C-:4]([N+:5]#[C:6][H:10])[H:9])=[N:7]\[H:11])[H:8]"
O       -2.47461011      -1.27580865       0.09507186
C       -1.88955399      -0.22899886       0.05649496
C       -0.39678877      -0.14456576      -0.02092827
C        0.23954270       1.13359713      -0.10104144
N        1.54453066       1.03111476      -0.16194716
C        2.31458575       0.09430489      -0.25381882
N        0.37660612      -1.18083768       0.02141416
H       -2.42803992       0.73739914       0.01089661
H       -0.25792170       2.08965673      -0.12094952
H        3.12964991      -0.21250083       0.38646610
H       -0.15800064      -2.04336087       0.08834151
11
Frame=6 idx=008702 GeodesicLength=0.326791322753489 rxn_smarts="[O:1]=[C:2]([c:3]1[c:4]([H:9])[n:5][c:6]([H:10])[n:7]1[H:11])[H:8]>>[O:1]=[C:2](/[C:3]([C-:4]([N+:5]#[C:6][H:10])[H:9])=[N:7]\[H:11])[H:8]"
O       -2.46614224      -1.27925789       0.12338192
C       -1.88806026      -0.22924074       0.06252843
C       -0.40066333      -0.13887867      -0.06295099
C        0.23917146       1.13716354      -0.12186029
N        1.54646821       1.03343910      -0.16270247
C        2.29768202       0.07524631      -0.23335790
N        0.38306471      -1.17000747      -0.00169092
H       -2.43184935       0.73445999       0.02469843
H       -0.25539737       2.09503438      -0.11732469
H        3.11619066      -0.22039782       0.40779924
H       -0.14046451      -2.03756073       0.08147923
11
Frame=7 idx=008702 GeodesicLength=0.38167482641665007 rxn_smarts="[O:1]=[C:2]([c:3]1[c:4]([H:9])[n:5][c:6]([H:10])[n:7]1[H:11])[H:8]>>[O:1]=[C:2](/[C:3]([C-:4]([N+:5]#[C:6][H:10])[H:9])=[N:7]\[H:11])[H:8]"
O       -2.45580922      -1.28235689       0.15512494
C       -1.88582244      -0.22957878       0.06655523
C       -0.40443356      -0.13264943      -0.09972670
C        0.23861117       1.14095517      -0.14218100
N        1.54788631       1.03612106      -0.15798063
C        2.28018659       0.05809743      -0.21242161
N        0.38917225      -1.15942126      -0.03285542
H       -2.43494232       0.73130889       0.03835053
H       -0.25355915       2.09986598      -0.11895703
H        3.10098928      -0.23129952       0.42866678
H       -0.12227893      -2.03104265       0.07542492
11
Frame=8 idx=008702 GeodesicLength=0.43661169973499503 rxn_smarts="[O:1]=[C:2]([c:3]1[c:4]([H:9])[n:5][c:6]([H:10])[n:7]1[H:11])[H:8]>>[O:1]=[C:2](/[C:3]([C-:4]([N+:5]#[C:6][H:10])[H:9])=[N:7]\[H:11])[H:8]"
O       -2.44609309      -1.28552394       0.17556604
C       -1.88376832      -0.22979649       0.07064014
C       -0.40806882      -0.12616899      -0.12529232
C        0.23820601       1.14459179      -0.15911662
N        1.54900056       1.03800270      -0.15775330
C        2.26179463       0.04071161      -0.19560427
N        0.39507853      -1.14864035      -0.05099879
H       -2.43812712       0.72810712       0.04652223
H       -0.25129967       2.10430608      -0.11644742
H        3.08812209      -0.24081116       0.44186331
H       -0.10484480      -2.02477838       0.07062102
11
Frame=9 idx=008702 GeodesicLength=0.49155866148289196 rxn_smarts="[O:1]=[C:2]([c:3]1[c:4]([H:9])[n:5][c:6]([H:10])[n:7]1[H:11])[H:8]>>[O:1]=[C:2](/[C:3]([C-:4]([N+:5]#[C:6][H:10])[H:9])=[N:7]\[H:11])[H:8]"
O       -2.43698517      -1.28886935       0.18959060
C       -1.88217317      -0.23011690       0.07229743
C       -0.41157629      -0.11954625      -0.14539025
C        0.23785766       1.14836974      -0.17090557
N        1.54998100       1.03985463      -0.15660162
C        2.24305310       0.02421918      -0.18231689
N        0.40080599      -1.13786724      -0.06444156
H       -2.44184625       0.72465173       0.04977298
H       -0.24913245       2.10862174      -0.11158397
H        3.07747359      -0.25135945       0.44716329
H       -0.08745801      -2.01795783       0.07241556
11
Frame=10 idx=008702 GeodesicLength=0.5465677365452511 rxn_smarts="[O:1]=[C:2]([c:3]1[c:4]([H:9])[n:5][c:6]([H:10])[n:7]1[H:11])[H:8]>>[O:1]=[C:2](/[C:3]([C-:4]([N+:5]#[C:6][H:10])[H:9])=[N:7]\[H:11])[H:8]"
O       -2.42832009      -1.29228625       0.19968112
C       -1.88071290      -0.23046670       0.07337170
C       -0.41497865      -0.11292493      -0.16235037
C        0.23757611       1.15206711      -0.18122163
N        1.55093494       1.04152817      -0.15607214
C        2.22435607       0.00843065      -0.17016739
N        0.40633381      -1.12726423      -0.07529680
H       -2.44557043       0.72121582       0.05249953
H       -0.24688453       2.11266179      -0.10641558
H        3.06753586      -0.26197187       0.44982608
H       -0.07027019      -2.01098954       0.07614548
11
Frame=11 idx=008702 GeodesicLength=0.6015803704248944 rxn_smarts="[O:1]=[C:2]([c:3]1[c:4]([H:9])[n:5][c:6]([H:10])[n:7]1[H:11])[H:8]>>[O:1]=[C:2](/[C:3]([C-:4]([N+:5]#[C:6][H:10])[H:9])=[N:7]\[H:11])[H:8]"
O       -2.42003080      -1.29579167       0.20692535
C       -1.87942605      -0.23086552       0.07355461
C       -0.41829852      -0.10632833      -0.17715545
C        0.23733033       1.15572510      -0.19011355
N        1.55186034       1.04316091      -0.15505214
C        2.20578434      -0.00653043      -0.15903694
N        0.41166241      -1.11684649      -0.08458227
H       -2.44935055       0.71774857       0.05463233
H       -0.24465583       2.11652448      -0.10119178
H        3.05829144      -0.27305681       0.44980176
H       -0.05316711      -2.00373981       0.08221805
11
Frame=12 idx=008702 GeodesicLength=0.6567398414294734 rxn_smarts="[O:1]=[C:2]([c:3]1[c:4]([H:9])[n:5][c:6]([H:10])[n:7]1[H:11])[H:8]>>[O:1]=[C:2](/[C:3]([C-:4]([N+:5]#[C:6][H:10])[H:9])=[N:7]\[H:11])[H:8]"
O       -2.41196917      -1.29946422       0.21156876
C       -1.87825221      -0.23142559       0.07275652
C       -0.42157621      -0.09970069      -0.19105090
C        0.23711732       1.15936537      -0.19811004
N        1.55274043       1.04472364      -0.15381435
C        2.18733491      -0.02079095      -0.14854554
N        0.41674352      -1.10672635      -0.09464341
H       -2.45302837       0.71430869       0.05748140
H       -0.24244149       2.12021085      -0.09580901
H        3.04909258      -0.28477384       0.44827264
H       -0.03576131      -1.99572688       0.09189392
11
Frame=13 idx=008702 GeodesicLength=0.7119470472465899 rxn_smarts="[O:1]=[C:2]([c:3]1[c:4]([H:9])[n:5][c:6]([H:10])[n:7]1[H:11])[H:8]>>[O:1]=[C:2](/[C:3]([C-:4]([N+:5]#[C:6][H:10])[H:9])=[N:7]\[H:11])[H:8]"
O       -2.40414818      -1.30299289       0.21583866
C       -1.87715327      -0.23187215       0.07245732
C       -0.42474606      -0.09313100      -0.20270539
C        0.23694486       1.16289420      -0.20499643
N        1.55359995       1.04622016      -0.15159811
C        2.16911250      -0.03430351      -0.13848293
N        0.42171263      -1.09661572      -0.10180028
H       -2.45699917       0.71066192       0.05792856
H       -0.24028129       2.12376629      -0.09111132
H        3.04079743      -0.29670906       0.44446608
H       -0.01883940      -1.98791823       0.10000385
11
Frame=14 idx=008702 GeodesicLength=0.7671912603265354 rxn_smarts="[O:1]=[C:2]([c:3]1[c:4]([H:9])[n:5][c:6]([H:10])[n:7]1[H:11])[H:8]>>[O:1]=[C:2](/[C:3]([C-:4]([N+:5]#[C:6][H:10])[H:9])=[N:7]\[H:11])[H:8]"
O       -2.39656433      -1.30648822       0.21950049
C       -1.87609115      -0.23227223       0.07254719
C       -0.42782048      -0.08660932      -0.21274226
C        0.23684295       1.16639390      -0.21108898
N        1.55446739       1.04775851      -0.14871490
C        2.15113910      -0.04712297      -0.12869337
N        0.42654938      -1.08669026      -0.10730469
H       -2.46116131       0.70691585       0.05692007
H       -0.23812674       2.12730521      -0.08696334
H        3.03303336      -0.30886175       0.43901112
H       -0.00226818      -1.98032873       0.10752867
11
Frame=15 idx=008702 GeodesicLength=0.8224870308673007 rxn_smarts="[O:1]=[C:2]([c:3]1[c:4]([H:9])[n:5][c:6]([H:10])[n:7]1[H:11])[H:8]>>[O:1]=[C:2](/[C:3]([C-:4]([N+:5]#[C:6][H:10])[H:9])=[N:7]\[H:11])[H:8]"
O       -2.38942866      -1.30996212       0.22125214
C       -1.87519314      -0.23268562       0.07230941
C       -0.43080021      -0.08016834      -0.22135859
C        0.23677232       1.16975025      -0.21611379
N        1.55534526       1.04918190      -0.14575629
C        2.13342949      -0.05937228      -0.11929796
N        0.43123161      -1.07692720      -0.11099507
H       -2.46543453       0.70315877       0.05515299
H       -0.23598760       2.13067325      -0.08271282
H        3.02608472      -0.32099034       0.43139378
H        0.01398075      -1.97265827       0.11612620
11
Frame=16 idx=008702 GeodesicLength=0.8777156757595483 rxn_smarts="[O:1]=[C:2]([c:3]1[c:4]([H:9])[n:5][c:6]([H:10])[n:7]1[H:11])[H:8]>>[O:1]=[C:2](/[C:3]([C-:4]([N+:5]#[C:6][H:10])[H:9])=[N:7]\[H:11])[H:8]"
O       -2.38285710      -1.31343606       0.22142117
C       -1.87458949      -0.23310873       0.07143529
C       -0.43364549      -0.07382964      -0.22823485
C        0.23674048       1.17305627      -0.21957866
N        1.55623019       1.05068054      -0.14147989
C        2.11606961      -0.07095809      -0.11079452
N        0.43579133      -1.06727128      -0.11175103
H       -2.47007990       0.69926662       0.05089471
H       -0.23393103       2.13400898      -0.07798526
H        3.02052588      -0.33339823       0.41989684
H        0.02974554      -1.96501038       0.12617618
