13
Frame=0 idx=010212 GeodesicLength=0.0 rxn_smarts="[C:1]([C:2](=[O:3])[C@@:4]([O:5][H:12])([C:6](=[O:7])[H:13])[H:11])([H:8])([H:9])[H:10]>>[C:1]([C:2](=[O:3])[C@@:4]([O:5][H:12])([C:6][O:7][H:13])[H:11])([H:8])([H:9])[H:10]"
C        1.77310473      -0.27067117      -0.25028958
C        0.63809077      -0.66749906       0.64643698
O        0.63823827      -1.64372839       1.34263856
C       -0.59881447       0.26079664       0.64088709
O       -0.30873931       1.54980821       0.20852672
C       -1.66864782      -0.39798560      -0.18567971
O       -2.14413411       0.35220086      -1.13593800
H        1.40959039      -0.11038876      -1.26795914
H        2.18941828       0.68070944       0.08381907
H        2.53428674      -1.04677750      -0.23324784
H       -0.97847748       0.25045734       1.67171330
H       -0.91085262       1.76385304      -0.51885085
H       -2.57306339      -0.72077500      -1.00205657
13
Frame=1 idx=010212 GeodesicLength=0.03256298293199215 rxn_smarts="[C:1]([C:2](=[O:3])[C@@:4]([O:5][H:12])([C:6](=[O:7])[H:13])[H:11])([H:8])([H:9])[H:10]>>[C:1]([C:2](=[O:3])[C@@:4]([O:5][H:12])([C:6][O:7][H:13])[H:11])([H:8])([H:9])[H:10]"
C        1.76876126      -0.27232917      -0.25270394
C        0.63394345      -0.66646290       0.64537177
O        0.63084044      -1.64552343       1.33779842
C       -0.59889192       0.26674431       0.64508753
O       -0.30622289       1.55467281       0.21044161
C       -1.67787032      -0.38909225      -0.17112951
O       -2.14391514       0.35106244      -1.12957975
H        1.40434669      -0.11019282      -1.26974299
H        2.18863165       0.67742926       0.08163068
H        2.52794602      -1.05043337      -0.23725870
H       -0.97258093       0.25892241       1.67827114
H       -0.91090689       1.77001915      -0.51414982
H       -2.54408142      -0.74481645      -1.02403643
13
Frame=2 idx=010212 GeodesicLength=0.06518454905644928 rxn_smarts="[C:1]([C:2](=[O:3])[C@@:4]([O:5][H:12])([C:6](=[O:7])[H:13])[H:11])([H:8])([H:9])[H:10]>>[C:1]([C:2](=[O:3])[C@@:4]([O:5][H:12])([C:6][O:7][H:13])[H:11])([H:8])([H:9])[H:10]"
C        1.76450840      -0.27388953      -0.25499939
C        0.62976912      -0.66548942       0.64418825
O        0.62327466      -1.64746916       1.33265381
C       -0.59911345       0.27240788       0.64889243
O       -0.30393072       1.55932623       0.21215460
C       -1.68684249      -0.38046688      -0.15737357
O       -2.14365071       0.34957417      -1.12373085
H        1.39938400      -0.10989348      -1.27146519
H        2.18774178       0.67426909       0.07967752
H        2.52177225      -1.05390153      -0.24103563
H       -0.96706072       0.26691866       1.68429690
H       -0.91101703       1.77593676      -0.50978067
H       -2.51483509      -0.76732278      -1.04347823
13
Frame=3 idx=010212 GeodesicLength=0.09785924309968005 rxn_smarts="[C:1]([C:2](=[O:3])[C@@:4]([O:5][H:12])([C:6](=[O:7])[H:13])[H:11])([H:8])([H:9])[H:10]>>[C:1]([C:2](=[O:3])[C@@:4]([O:5][H:12])([C:6][O:7][H:13])[H:11])([H:8])([H:9])[H:10]"
C        1.76034696      -0.27535951      -0.25718759
C        0.62559620      -0.66455425       0.64293413
O        0.61556863      -1.64954606       1.32725330
C       -0.59945445       0.27781334       0.65234288
O       -0.30182508       1.56380118       0.21370697
C       -1.69552247      -0.37210072      -0.14439967
O       -2.14332297       0.34779223      -1.11835590
H        1.39466520      -0.10950842      -1.27313431
H        2.18677713       0.67122776       0.07791908
H        2.51574851      -1.05720798      -0.24460967
H       -0.96190796       0.27446456       1.68983650
H       -0.91116043       1.78165813      -0.50569188
H       -2.48550927      -0.78848025      -1.06061384
13
Frame=4 idx=010212 GeodesicLength=0.13074186100138943 rxn_smarts="[C:1]([C:2](=[O:3])[C@@:4]([O:5][H:12])([C:6](=[O:7])[H:13])[H:11])([H:8])([H:9])[H:10]>>[C:1]([C:2](=[O:3])[C@@:4]([O:5][H:12])([C:6][O:7][H:13])[H:11])([H:8])([H:9])[H:10]"
C        1.75632457      -0.27673184      -0.25925681
C        0.62145980      -0.66364797       0.64161238
O        0.60775051      -1.65174386       1.32159370
C       -0.59988643       0.28297612       0.65544296
O       -0.29986551       1.56811579       0.21510974
C       -1.70386759      -0.36399722      -0.13223018
O       -2.14284954       0.34573191      -1.11349040
H        1.39024669      -0.10901359      -1.27473636
H        2.18579242       0.66830670       0.07638534
H        2.50991105      -1.06035965      -0.24798432
H       -0.95712144       0.28157385       1.69489510
H       -0.91133287       1.78722800      -0.50183430
H       -2.45656164      -0.80843824      -1.07550686
13
Frame=5 idx=010212 GeodesicLength=0.16364119260092994 rxn_smarts="[C:1]([C:2](=[O:3])[C@@:4]([O:5][H:12])([C:6](=[O:7])[H:13])[H:11])([H:8])([H:9])[H:10]>>[C:1]([C:2](=[O:3])[C@@:4]([O:5][H:12])([C:6][O:7][H:13])[H:11])([H:8])([H:9])[H:10]"
C        1.75239507      -0.27804216      -0.26125820
C        0.61736255      -0.66272910       0.64029709
O        0.59982172      -1.65401348       1.31575488
C       -0.60041429       0.28794923       0.65828615
O       -0.29802963       1.57231402       0.21643277
C       -1.71193210      -0.35611685      -0.12074842
O       -2.14227830       0.34344073      -1.10902517
H        1.38600177      -0.10848625      -1.27630869
H        2.18480462       0.66548034       0.07495647
H        2.50419182      -1.06341917      -0.25124851
H       -0.95269238       0.28832468       1.69958808
H       -0.91154957       1.79269996      -0.49811172
H       -2.42768127      -0.82740194      -1.08861472
13
Frame=6 idx=010212 GeodesicLength=0.1964605349386282 rxn_smarts="[C:1]([C:2](=[O:3])[C@@:4]([O:5][H:12])([C:6](=[O:7])[H:13])[H:11])([H:8])([H:9])[H:10]>>[C:1]([C:2](=[O:3])[C@@:4]([O:5][H:12])([C:6][O:7][H:13])[H:11])([H:8])([H:9])[H:10]"
C        1.74862082      -0.27923400      -0.26311167
C        0.61332152      -0.66186527       0.63887129
O        0.59185873      -1.65638739       1.30965414
C       -0.60098020       0.29267875       0.66077398
O       -0.29630757       1.57633692       0.21760170
C       -1.71962051      -0.34847197      -0.11002229
O       -2.14154420       0.34094998      -1.10499928
H        1.38209664      -0.10779373      -1.27777728
H        2.18378537       0.66276901       0.07381370
H        2.49868448      -1.06628303      -0.25426394
H       -0.94853775       0.29463335       1.70378822
H       -0.91170478       1.79799792      -0.49466815
H       -2.39967255      -0.84533053      -1.09966042
13
Frame=7 idx=010212 GeodesicLength=0.229377019939412 rxn_smarts="[C:1]([C:2](=[O:3])[C@@:4]([O:5][H:12])([C:6](=[O:7])[H:13])[H:11])([H:8])([H:9])[H:10]>>[C:1]([C:2](=[O:3])[C@@:4]([O:5][H:12])([C:6][O:7][H:13])[H:11])([H:8])([H:9])[H:10]"
C        1.74502462      -0.28032675      -0.26485506
C        0.60934211      -0.66103097       0.63737426
O        0.58383907      -1.65884473       1.30332851
C       -0.60159333       0.29722051       0.66298402
O       -0.29465887       1.58024711       0.21868237
C       -1.72701686      -0.34103141      -0.09996905
O       -2.14063603       0.33826112      -1.10140188
H        1.37851746      -0.10696491      -1.27918417
H        2.18282121       0.66016707       0.07291244
H        2.49339500      -1.06900656      -0.25711734
H       -0.94467347       0.30058966       1.70761254
H       -0.91181151       1.80319515      -0.49140627
H       -2.37254940      -0.86247530      -1.10896038
13
Frame=8 idx=010212 GeodesicLength=0.26237809059085554 rxn_smarts="[C:1]([C:2](=[O:3])[C@@:4]([O:5][H:12])([C:6](=[O:7])[H:13])[H:11])([H:8])([H:9])[H:10]>>[C:1]([C:2](=[O:3])[C@@:4]([O:5][H:12])([C:6][O:7][H:13])[H:11])([H:8])([H:9])[H:10]"
C        1.74155953      -0.28134095      -0.26651127
C        0.60542160      -0.66020036       0.63584145
O        0.57575498      -1.66136190       1.29680167
C       -0.60224154       0.30161083       0.66496118
O       -0.29306425       1.58406803       0.21969748
C       -1.73413184      -0.33374793      -0.09051325
O       -2.13952571       0.33540685      -1.09819197
H        1.37517602      -0.10603243      -1.28053499
H        2.18189411       0.65764613       0.07218604
H        2.48825215      -1.07162783      -0.25985073
H       -0.94106825       0.30623866       1.71111062
H       -0.91190701       1.80834580      -0.48824242
H       -2.34611978      -0.87900491      -1.11675381
13
Frame=9 idx=010212 GeodesicLength=0.2954532143884815 rxn_smarts="[C:1]([C:2](=[O:3])[C@@:4]([O:5][H:12])([C:6](=[O:7])[H:13])[H:11])([H:8])([H:9])[H:10]>>[C:1]([C:2](=[O:3])[C@@:4]([O:5][H:12])([C:6][O:7][H:13])[H:11])([H:8])([H:9])[H:10]"
C        1.73818281      -0.28229145      -0.26810341
C        0.60155617      -0.65935340       0.63431074
O        0.56760303      -1.66392257       1.29010043
C       -0.60292501       0.30588041       0.66675436
O       -0.29151955       1.58782566       0.22068422
C       -1.74099136      -0.32658611      -0.08158345
O       -2.13820859       0.33241034      -1.09532438
H        1.37198531      -0.10500902      -1.28183736
H        2.18099392       0.65518618       0.07158496
H        2.48319228      -1.07418262      -0.26252196
H       -0.93770449       0.31162092       1.71433816
H       -0.91197978       1.81347015      -0.48514879
H       -2.32018475      -0.89504847      -1.12325351
13
Frame=10 idx=010212 GeodesicLength=0.3286104086894199 rxn_smarts="[C:1]([C:2](=[O:3])[C@@:4]([O:5][H:12])([C:6](=[O:7])[H:13])[H:11])([H:8])([H:9])[H:10]>>[C:1]([C:2](=[O:3])[C@@:4]([O:5][H:12])([C:6][O:7][H:13])[H:11])([H:8])([H:9])[H:10]"
C        1.73485252      -0.28319713      -0.26965772
C        0.59774517      -0.65846633       0.63282562
O        0.55937798      -1.66650427       1.28325350
C       -0.60364743       0.31005498       0.66840778
O       -0.29002174       1.59153949       0.22168214
C       -1.74761046      -0.31951906      -0.07312750
O       -2.13667223       0.32929462      -1.09275984
H        1.36885588      -0.10393550      -1.28310205
H        2.18010408       0.65277212       0.07103486
H        2.47816187      -1.07669984      -0.26517464
H       -0.93458196       0.31677021       1.71734122
H       -0.91203414       1.81859319      -0.48207531
H       -2.29452955      -0.91070250      -1.12864805
13
Frame=11 idx=010212 GeodesicLength=0.36192959623814935 rxn_smarts="[C:1]([C:2](=[O:3])[C@@:4]([O:5][H:12])([C:6](=[O:7])[H:13])[H:11])([H:8])([H:9])[H:10]>>[C:1]([C:2](=[O:3])[C@@:4]([O:5][H:12])([C:6][O:7][H:13])[H:11])([H:8])([H:9])[H:10]"
C        1.73154614      -0.28409334      -0.27121910
C        0.59399082      -0.65750285       0.63145937
O        0.55106061      -1.66908286       1.27631758
C       -0.60443647       0.31417386       0.66998856
O       -0.28856889       1.59525786       0.22275347
C       -1.75404313      -0.31254018      -0.06509603
O       -2.13499096       0.32608839      -1.09043384
H        1.36569715      -0.10289918      -1.28436885
H        2.17925694       0.65039750       0.07042700
H        2.47313129      -1.07924318      -0.26788600
H       -0.93174742       0.32174715       1.72020301
H       -0.91209552       1.82376261      -0.47894890
H       -2.26880057      -0.92606580      -1.13319626
13
Frame=12 idx=010212 GeodesicLength=0.39529189219487415 rxn_smarts="[C:1]([C:2](=[O:3])[C@@:4]([O:5][H:12])([C:6](=[O:7])[H:13])[H:11])([H:8])([H:9])[H:10]>>[C:1]([C:2](=[O:3])[C@@:4]([O:5][H:12])([C:6][O:7][H:13])[H:11])([H:8])([H:9])[H:10]"
C        1.72834684      -0.28489676      -0.27270247
C        0.59030667      -0.65653733       0.63005775
O        0.54267224      -1.67174049       1.26910133
C       -0.60522140       0.31820255       0.67140881
O       -0.28713088       1.59894287       0.22384061
C       -1.76024211      -0.30559547      -0.05754842
O       -2.13283530       0.32267589      -1.08861770
H        1.36272397      -0.10169672      -1.28556757
H        2.17843506       0.64809197       0.07001286
H        2.46821246      -1.08167834      -0.27052600
H       -0.92909004       0.32647859       1.72282945
H       -0.91208224       1.82894413      -0.47586329
H       -2.24409527      -0.94119090      -1.13642536
13
Frame=13 idx=010212 GeodesicLength=0.42864299688986474 rxn_smarts="[C:1]([C:2](=[O:3])[C@@:4]([O:5][H:12])([C:6](=[O:7])[H:13])[H:11])([H:8])([H:9])[H:10]>>[C:1]([C:2](=[O:3])[C@@:4]([O:5][H:12])([C:6][O:7][H:13])[H:11])([H:8])([H:9])[H:10]"
C        1.72499798      -0.28570938      -0.27419369
C        0.58666506      -0.65548263       0.62882535
O        0.53424794      -1.67431770       1.26192018
C       -0.60601920       0.32213898       0.67274403
O       -0.28573577       1.60254585       0.22493020
C       -1.76611386      -0.29875036      -0.05036850
O       -2.13061795       0.31934021      -1.08679306
H        1.35950943      -0.10056878      -1.28673358
H        2.17745790       0.64576923       0.06940921
H        2.46307613      -1.08412232      -0.27317916
H       -0.92661491       0.33098723       1.72526589
H       -0.91208366       1.83412624      -0.47273213
H       -2.21876909      -0.95595658      -1.13909474
13
Frame=14 idx=010212 GeodesicLength=0.462268660090998 rxn_smarts="[C:1]([C:2](=[O:3])[C@@:4]([O:5][H:12])([C:6](=[O:7])[H:13])[H:11])([H:8])([H:9])[H:10]>>[C:1]([C:2](=[O:3])[C@@:4]([O:5][H:12])([C:6][O:7][H:13])[H:11])([H:8])([H:9])[H:10]"
C        1.72181794      -0.28651661      -0.27568116
C        0.58310346      -0.65438212       0.62765020
O        0.52574308      -1.67690218       1.25458765
C       -0.60689451       0.32606082       0.67401444
O       -0.28435533       1.60620180       0.22610830
C       -1.77194549      -0.29196097      -0.04358994
O       -2.12830505       0.31587547      -1.08526887
H        1.35644848      -0.09945305      -1.28791730
H        2.17669376       0.64349039       0.06886439
H        2.45811871      -1.08661868      -0.27590770
H       -0.92443614       0.33541828       1.72760958
H       -0.91214288       1.83941393      -0.46949000
H       -2.19384604      -0.97062708      -1.14097959
13
Frame=15 idx=010212 GeodesicLength=0.49576072758179773 rxn_smarts="[C:1]([C:2](=[O:3])[C@@:4]([O:5][H:12])([C:6](=[O:7])[H:13])[H:11])([H:8])([H:9])[H:10]>>[C:1]([C:2](=[O:3])[C@@:4]([O:5][H:12])([C:6][O:7][H:13])[H:11])([H:8])([H:9])[H:10]"
C        1.71856860      -0.28722879      -0.27710885
C        0.57956369      -0.65326737       0.62648842
O        0.51715574      -1.67950441       1.24708440
C       -0.60772445       0.32985538       0.67513203
O       -0.28296294       1.60975682       0.22725269
C       -1.77741791      -0.28523971      -0.03720119
O       -2.12560891       0.31237194      -1.08394661
H        1.35338524      -0.09820021      -1.28901443
H        2.17575819       0.64126825       0.06835579
H        2.45304494      -1.08896174      -0.27853898
H       -0.92236272       0.33954695       1.72969769
H       -0.91202817       1.84464598      -0.46633676
H       -2.16937131      -0.98504310      -1.14186420
13
Frame=16 idx=010212 GeodesicLength=0.5293930105051641 rxn_smarts="[C:1]([C:2](=[O:3])[C@@:4]([O:5][H:12])([C:6](=[O:7])[H:13])[H:11])([H:8])([H:9])[H:10]>>[C:1]([C:2](=[O:3])[C@@:4]([O:5][H:12])([C:6][O:7][H:13])[H:11])([H:8])([H:9])[H:10]"
C        1.71543744      -0.28792862      -0.27850965
C        0.57610603      -0.65213050       0.62536673
O        0.50856340      -1.68209104       1.23947278
C       -0.60859613       0.33360097       0.67616253
O       -0.28159480       1.61331206       0.22844880
C       -1.78278442      -0.27858890      -0.03118904
O       -2.12292783       0.30885755      -1.08277567
H        1.35043523      -0.09695608      -1.29010436
H        2.17493213       0.63908306       0.06790175
H        2.44811442      -1.09130796      -0.28116606
H       -0.92050383       0.34355105       1.73166008
H       -0.91190666       1.84991160      -0.46317192
H       -2.14527498      -0.99931319      -1.14209598
