16
Frame=0 idx=003555 GeodesicLength=0.0 rxn_smarts="[C:1]([C:2]([C:3]([C@@:4]1([H:14])[C:5]([H:15])([H:16])[O:6]1)([H:12])[H:13])([H:10])[H:11])([H:7])([H:8])[H:9]>>[C:1]([C:2](/[C:3](=[C:4](/[C:5]([O:6][H:12])([H:15])[H:16])[H:14])[H:13])([H:10])[H:11])([H:7])([H:8])[H:9]"
C       -2.10828646       0.99578752       0.09945759
C       -1.34218813      -0.30199662       0.34524637
C        0.14643777      -0.09494291       0.46891034
C        0.99228616      -0.06689663      -0.64776207
C        2.42952955      -0.26117952      -0.39147649
O        2.08674280      -1.61075808      -0.21612426
H       -1.79154351       1.46318433      -0.83598918
H       -1.93035925       1.71391096       0.90309547
H       -3.18384318       0.81875114       0.03989428
H       -1.54224372      -1.00919867      -0.46534377
H       -1.71559278      -0.77668128       1.25648843
H        0.91631375      -1.19278063       0.49094513
H        0.49989629       0.45698567       1.34014053
H        0.63524124      -0.28694929      -1.64870516
H        3.09436039      -0.09128910      -1.24100396
H        2.81324913       0.24405316       0.50222679
16
Frame=1 idx=003555 GeodesicLength=0.06598297798062618 rxn_smarts="[C:1]([C:2]([C:3]([C@@:4]1([H:14])[C:5]([H:15])([H:16])[O:6]1)([H:12])[H:13])([H:10])[H:11])([H:7])([H:8])[H:9]>>[C:1]([C:2](/[C:3](=[C:4](/[C:5]([O:6][H:12])([H:15])[H:16])[H:14])[H:13])([H:10])[H:11])([H:7])([H:8])[H:9]"
C       -2.09870449       1.00274163       0.09901031
C       -1.34930016      -0.30513485       0.34343888
C        0.14140782      -0.11750413       0.47305842
C        0.98550747      -0.08518739      -0.64652039
C        2.42789611      -0.24452523      -0.39594266
O        2.10704560      -1.59955926      -0.21315092
H       -1.76891368       1.47265207      -0.83063497
H       -1.91785781       1.71437880       0.90782338
H       -3.17572661       0.83861791       0.03084347
H       -1.55570520      -1.00756594      -0.46968889
H       -1.73137416      -0.77737185       1.25241827
H        0.92947563      -1.22367400       0.51075657
H        0.49185098       0.44378404       1.33984247
H        0.62715424      -0.31649741      -1.64468687
H        3.08430848      -0.06853287      -1.25037261
H        2.80293578       0.27337849       0.49380554
16
Frame=2 idx=003555 GeodesicLength=0.1319338729614692 rxn_smarts="[C:1]([C:2]([C:3]([C@@:4]1([H:14])[C:5]([H:15])([H:16])[O:6]1)([H:12])[H:13])([H:10])[H:11])([H:7])([H:8])[H:9]>>[C:1]([C:2](/[C:3](=[C:4](/[C:5]([O:6][H:12])([H:15])[H:16])[H:14])[H:13])([H:10])[H:11])([H:7])([H:8])[H:9]"
C       -2.08877889       1.00963110       0.09863264
C       -1.35626964      -0.30820978       0.34140676
C        0.13629893      -0.14021306       0.47714063
C        0.97884019      -0.10333610      -0.64522136
C        2.42555769      -0.22769371      -0.40056849
O        2.12674865      -1.58771067      -0.20962218
H       -1.74581457       1.48198938      -0.82497706
H       -1.90517625       1.71457670       0.91274290
H       -3.16705289       0.85854339       0.02177670
H       -1.56890558      -1.00560243      -0.47443366
H       -1.74706685      -0.77809495       1.24795622
H        0.94342923      -1.25442786       0.53099860
H        0.48369794       0.43013493       1.33958713
H        0.61944169      -0.34635708      -1.64048000
H        3.07346517      -0.04628543      -1.25995524
H        2.79158519       0.30305557       0.48501641
16
Frame=3 idx=003555 GeodesicLength=0.19787336669898017 rxn_smarts="[C:1]([C:2]([C:3]([C@@:4]1([H:14])[C:5]([H:15])([H:16])[O:6]1)([H:12])[H:13])([H:10])[H:11])([H:7])([H:8])[H:9]>>[C:1]([C:2](/[C:3](=[C:4](/[C:5]([O:6][H:12])([H:15])[H:16])[H:14])[H:13])([H:10])[H:11])([H:7])([H:8])[H:9]"
C       -2.07851029       1.01645458       0.09833320
C       -1.36309072      -0.31121684       0.33914019
C        0.13110820      -0.16305869       0.48113963
C        0.97228320      -0.12132425      -0.64387781
C        2.42250474      -0.21069914      -0.40535191
O        2.14581396      -1.57520596      -0.20552896
H       -1.72225304       1.49119056      -0.81899544
H       -1.89231995       1.71449643       0.91786174
H       -3.15781750       0.87852540       0.01271320
H       -1.58183059      -1.00329711      -0.47959105
H       -1.76266489      -0.77884901       1.24308798
H        0.95819335      -1.28501781       0.55169007
H        0.47544283       0.41602981       1.33937453
H        0.61213336      -0.37651543      -1.63608317
H        3.06186119      -0.02458847      -1.26973925
H        2.77914614       0.33307595       0.47582703
16
Frame=4 idx=003555 GeodesicLength=0.2638164273874042 rxn_smarts="[C:1]([C:2]([C:3]([C@@:4]1([H:14])[C:5]([H:15])([H:16])[O:6]1)([H:12])[H:13])([H:10])[H:11])([H:7])([H:8])[H:9]>>[C:1]([C:2](/[C:3](=[C:4](/[C:5]([O:6][H:12])([H:15])[H:16])[H:14])[H:13])([H:10])[H:11])([H:7])([H:8])[H:9]"
C       -2.06790950       1.02320616       0.09812072
C       -1.36975704      -0.31414965       0.33663222
C        0.12583347      -0.18601800       0.48503693
C        0.96583491      -0.13912106      -0.64250477
C        2.41873597      -0.19356680      -0.41029596
O        2.16419791      -1.56205612      -0.20087644
H       -1.69825597       1.50024716      -0.81268153
H       -1.87930393       1.71413326       0.92318405
H       -3.14802726       0.89854867       0.00367593
H       -1.59446248      -1.00064098      -0.48516971
H       -1.77815623      -0.77963226       1.23780513
H        0.97378689      -1.31540564       0.57285219
H        0.46709317       0.40147733       1.33920296
H        0.60524738      -0.40693635      -1.63150228
H        3.04954360      -0.00348890      -1.27970619
H        2.76559910       0.36340319       0.46622676
16
Frame=5 idx=003555 GeodesicLength=0.3297772892865914 rxn_smarts="[C:1]([C:2]([C:3]([C@@:4]1([H:14])[C:5]([H:15])([H:16])[O:6]1)([H:12])[H:13])([H:10])[H:11])([H:7])([H:8])[H:9]>>[C:1]([C:2](/[C:3](=[C:4](/[C:5]([O:6][H:12])([H:15])[H:16])[H:14])[H:13])([H:10])[H:11])([H:7])([H:8])[H:9]"
C       -2.05697887       1.02988438       0.09800740
C       -1.37626255      -0.31700012       0.33387356
C        0.12047103      -0.20907457       0.48881327
C        0.95949383      -0.15671632      -0.64111728
C        2.41423732      -0.17631172      -0.41540652
O        2.18186888      -1.54825364      -0.19566375
H       -1.67383178       1.50915444      -0.80601086
H       -1.86614122       1.71347704       0.92872137
H       -3.13767645       0.91861173      -0.00531630
H       -1.60678607      -0.99762022      -0.49118104
H       -1.79353403      -0.78043995       1.23209299
H        0.99023839      -1.34555533       0.59450558
H        0.45865496       0.38648076       1.33906554
H        0.59881657      -0.43761838      -1.62673188
H        3.03655558       0.01698557      -1.28983016
H        2.75087440       0.39399634       0.45617809
16
Frame=6 idx=003555 GeodesicLength=0.3957749314969307 rxn_smarts="[C:1]([C:2]([C:3]([C@@:4]1([H:14])[C:5]([H:15])([H:16])[O:6]1)([H:12])[H:13])([H:10])[H:11])([H:7])([H:8])[H:9]>>[C:1]([C:2](/[C:3](=[C:4](/[C:5]([O:6][H:12])([H:15])[H:16])[H:14])[H:13])([H:10])[H:11])([H:7])([H:8])[H:9]"
C       -2.04574128       1.03648166       0.09800035
C       -1.38260170      -0.31976195       0.33085922
C        0.11501960      -0.23219328       0.49244650
C        0.95325757      -0.17407266      -0.63973524
C        2.40901984      -0.15897031      -0.42068339
O        2.19878105      -1.53382214      -0.18990324
H       -1.64902658       1.51790508      -0.79898268
H       -1.85285584       1.71252518       0.93447492
H       -3.12678628       0.93868931      -0.01423486
H       -1.61878366      -0.99422883      -0.49762949
H       -1.80878073      -0.78127054       1.22594843
H        1.00757051      -1.37542076       0.61667143
H        0.45013660       0.37106718       1.33895262
H        0.59285051      -0.46850350      -1.62178503
H        3.02295172       0.03678551      -1.30009490
H        2.73498867       0.42479004       0.44569536
16
Frame=7 idx=003555 GeodesicLength=0.46181784612619653 rxn_smarts="[C:1]([C:2]([C:3]([C@@:4]1([H:14])[C:5]([H:15])([H:16])[O:6]1)([H:12])[H:13])([H:10])[H:11])([H:7])([H:8])[H:9]>>[C:1]([C:2](/[C:3](=[C:4](/[C:5]([O:6][H:12])([H:15])[H:16])[H:14])[H:13])([H:10])[H:11])([H:7])([H:8])[H:9]"
C       -2.03420381       1.04299663       0.09811345
C       -1.38877021      -0.32242746       0.32758023
C        0.10947564      -0.25535284       0.49591728
C        0.94712603      -0.19117601      -0.63837353
C        2.40307432      -0.14156897      -0.42613369
O        2.21489561      -1.51875569      -0.18358826
H       -1.62385450       1.52649829      -0.79157205
H       -1.83946863       1.71126852       0.94045623
H       -3.11535887       0.95877552      -0.02306110
H       -1.63043825      -0.99045130      -0.50452701
H       -1.82388891      -0.78212261       1.21935784
H        1.02582277      -1.40495979       0.63936212
H        0.44154369       0.35524728       1.33885781
H        0.58737995      -0.49958196      -1.61665810
H        3.00877881       0.05587528      -1.31048314
H        2.71788636       0.45573510       0.43475192
16
Frame=8 idx=003555 GeodesicLength=0.5279305821264719 rxn_smarts="[C:1]([C:2]([C:3]([C@@:4]1([H:14])[C:5]([H:15])([H:16])[O:6]1)([H:12])[H:13])([H:10])[H:11])([H:7])([H:8])[H:9]>>[C:1]([C:2](/[C:3](=[C:4](/[C:5]([O:6][H:12])([H:15])[H:16])[H:14])[H:13])([H:10])[H:11])([H:7])([H:8])[H:9]"
C       -2.02239775       1.04942372       0.09835394
C       -1.39476464      -0.32498776       0.32403350
C        0.10383827      -0.27851091       0.49920223
C        0.94109713      -0.20799088      -0.63705452
C        2.39641831      -0.12414575      -0.43175744
O        2.23016731      -1.50308499      -0.17673846
H       -1.59837248       1.53492768      -0.78377225
H       -1.82601650       1.70970486       0.94666561
H       -3.10342170       0.97884542      -0.03176608
H       -1.64173223      -0.98628086      -0.51187395
H       -1.83884144      -0.78299323       1.21231870
H        1.04502721      -1.43412228       0.66259748
H        0.43288552       0.33905776       1.33876581
H        0.58241514      -0.53079770      -1.61136470
H        2.99410457       0.07421122      -1.32096892
H        2.69959330       0.48674370       0.42335904
16
Frame=9 idx=003555 GeodesicLength=0.5939828973782623 rxn_smarts="[C:1]([C:2]([C:3]([C@@:4]1([H:14])[C:5]([H:15])([H:16])[O:6]1)([H:12])[H:13])([H:10])[H:11])([H:7])([H:8])[H:9]>>[C:1]([C:2](/[C:3](=[C:4](/[C:5]([O:6][H:12])([H:15])[H:16])[H:14])[H:13])([H:10])[H:11])([H:7])([H:8])[H:9]"
C       -2.01036745       1.05574347       0.09871250
C       -1.40059573      -0.32743065       0.32023641
C        0.09809250      -0.30162620       0.50228568
C        0.93514441      -0.22452168      -0.63580082
C        2.38908590      -0.10678585      -0.43754110
O        2.24460696      -1.48688711      -0.16957641
H       -1.57266037       1.54314852      -0.77562877
H       -1.81254693       1.70784260       0.95306184
H       -3.09101350       0.99885457      -0.04033413
H       -1.65267197      -0.98172402      -0.51962707
H       -1.85363511      -0.78384950       1.20486420
H        1.06529950      -1.46270489       0.68644099
H        0.42415976       0.32259311       1.33862816
H        0.57788787      -0.56204148      -1.60591118
H        2.97898511       0.09184093      -1.33147616
H        2.68022905       0.51754819       0.41166585
16
Frame=10 idx=003555 GeodesicLength=0.6601204880001148 rxn_smarts="[C:1]([C:2]([C:3]([C@@:4]1([H:14])[C:5]([H:15])([H:16])[O:6]1)([H:12])[H:13])([H:10])[H:11])([H:7])([H:8])[H:9]>>[C:1]([C:2](/[C:3](=[C:4](/[C:5]([O:6][H:12])([H:15])[H:16])[H:14])[H:13])([H:10])[H:11])([H:7])([H:8])[H:9]"
C       -1.99810661       1.06197095       0.09922026
C       -1.40625387      -0.32975776       0.31616044
C        0.09224513      -0.32469271       0.50514236
C        0.92927985      -0.24073589      -0.63462818
C        2.38106722      -0.08947009      -0.44350221
O        2.25813896      -1.47013345      -0.16190525
H       -1.54669926       1.55121149      -0.76706735
H       -1.79906475       1.70565856       0.95970556
H       -3.07813211       1.01882697      -0.04874049
H       -1.66323352      -0.97675773      -0.52784035
H       -1.86826300      -0.78472592       1.19694629
H        1.08658811      -1.49080491       0.71087824
H        0.41537766       0.30580374       1.33846541
H        0.57388426      -0.59335538      -1.60030883
H        2.96348199       0.10865273      -1.34203548
H        2.65968992       0.54830940       0.39950959
16
Frame=11 idx=003555 GeodesicLength=0.7263383879799616 rxn_smarts="[C:1]([C:2]([C:3]([C@@:4]1([H:14])[C:5]([H:15])([H:16])[O:6]1)([H:12])[H:13])([H:10])[H:11])([H:7])([H:8])[H:9]>>[C:1]([C:2](/[C:3](=[C:4](/[C:5]([O:6][H:12])([H:15])[H:16])[H:14])[H:13])([H:10])[H:11])([H:7])([H:8])[H:9]"
C       -1.98563005       1.06810440       0.09988979
C       -1.41174269      -0.33196463       0.31179830
C        0.08628835      -0.34769336       0.50775376
C        0.92349272      -0.25663066      -0.63355274
C        2.37237180      -0.07222905      -0.44964231
O        2.27074368      -1.45283693      -0.15373606
H       -1.52050145       1.55912426      -0.75806022
H       -1.78559991       1.70314167       0.96661287
H       -3.06478746       1.03875922      -0.05697512
H       -1.67340760      -0.97136765      -0.53652455
H       -1.88272834      -0.78562584       1.18855210
H        1.10893712      -1.51836028       0.73593767
H        0.40654008       0.28871235       1.33826536
H        0.57040938      -0.62472056      -1.59455880
H        2.94764564       0.12461808      -1.35263796
H        2.63796873       0.57896897       0.38687789
16
Frame=12 idx=003555 GeodesicLength=0.792640349917719 rxn_smarts="[C:1]([C:2]([C:3]([C@@:4]1([H:14])[C:5]([H:15])([H:16])[O:6]1)([H:12])[H:13])([H:10])[H:11])([H:7])([H:8])[H:9]>>[C:1]([C:2](/[C:3](=[C:4](/[C:5]([O:6][H:12])([H:15])[H:16])[H:14])[H:13])([H:10])[H:11])([H:7])([H:8])[H:9]"
C       -1.97296286       1.07414159       0.10073061
C       -1.41706524      -0.33404668       0.30714744
C        0.08021794      -0.37060153       0.51009984
C        0.91777367      -0.27218810      -0.63259392
C        2.36302371      -0.05509981      -0.45596264
O        2.28239171      -1.43503648      -0.14508168
H       -1.49410617       1.56688997      -0.74859930
H       -1.77218176       1.70028604       0.97379011
H       -3.05100623       1.05863914      -0.06501488
H       -1.68318809      -0.96554804      -0.54568021
H       -1.89702707      -0.78655136       1.17967833
H        1.13237785      -1.54532153       0.76163584
H        0.39765096       0.27134716       1.33801284
H        0.56745509      -0.65609109      -1.58867983
H        2.93154318       0.13970198      -1.36326226
H        2.61510330       0.60947870       0.37377970
16
Frame=13 idx=003555 GeodesicLength=0.8590280284092338 rxn_smarts="[C:1]([C:2]([C:3]([C@@:4]1([H:14])[C:5]([H:15])([H:16])[O:6]1)([H:12])[H:13])([H:10])[H:11])([H:7])([H:8])[H:9]>>[C:1]([C:2](/[C:3](=[C:4](/[C:5]([O:6][H:12])([H:15])[H:16])[H:14])[H:13])([H:10])[H:11])([H:7])([H:8])[H:9]"
C       -1.96011881       1.08008421       0.10175852
C       -1.42222737      -0.33599898       0.30219955
C        0.07402548      -0.39340432       0.51216293
C        0.91211241      -0.28741286      -0.63176785
C        2.35303944      -0.03811461      -0.46245994
O        2.29306602      -1.41674707      -0.13595624
H       -1.46752340       1.57452028      -0.73864923
H       -1.75884529       1.69707791       0.98125724
H       -3.03679754       1.07847138      -0.07285206
H       -1.69256912      -0.95928265      -0.55531887
H       -1.91116684      -0.78750635       1.17030795
H        1.15695950      -1.57162465       0.78800853
H        0.38870852       0.25372676       1.33769309
H        0.56502795      -0.68745614      -1.58267095
H        2.91522842       0.15388561      -1.37389090
H        2.59108064       0.63978148       0.36017822
16
Frame=14 idx=003555 GeodesicLength=0.9255034588400795 rxn_smarts="[C:1]([C:2]([C:3]([C@@:4]1([H:14])[C:5]([H:15])([H:16])[O:6]1)([H:12])[H:13])([H:10])[H:11])([H:7])([H:8])[H:9]>>[C:1]([C:2](/[C:3](=[C:4](/[C:5]([O:6][H:12])([H:15])[H:16])[H:14])[H:13])([H:10])[H:11])([H:7])([H:8])[H:9]"
C       -1.94713282       1.08592799       0.10297928
C       -1.42723588      -0.33781595       0.29695473
C        0.06770610      -0.41607161       0.51392168
C        0.90649715      -0.30228415      -0.63109745
C        2.34245120      -0.02131656      -0.46913785
O        2.30273592      -1.39802314      -0.12638898
H       -1.44080452       1.58201470      -0.72820753
H       -1.74562683       1.69351519       0.98901179
H       -3.02219996       1.09823618      -0.08046183
H       -1.70154829      -0.95256982      -0.56543260
H       -1.92514373      -0.78848891       1.16044420
H        1.18272581      -1.59720662       0.81508001
H        0.37971663       0.23588676       1.33728693
H        0.56310837      -0.71874739      -1.57655865
H        2.89877544       0.16714004      -1.38449703
H        2.56597540       0.66980329       0.34610329
16
Frame=15 idx=003555 GeodesicLength=0.992065931600289 rxn_smarts="[C:1]([C:2]([C:3]([C@@:4]1([H:14])[C:5]([H:15])([H:16])[O:6]1)([H:12])[H:13])([H:10])[H:11])([H:7])([H:8])[H:9]>>[C:1]([C:2](/[C:3](=[C:4](/[C:5]([O:6][H:12])([H:15])[H:16])[H:14])[H:13])([H:10])[H:11])([H:7])([H:8])[H:9]"
C       -1.93402308       1.09167462       0.10440580
C       -1.43210185      -0.33949271       0.29140739
C        0.06124802      -0.43859313       0.51535920
C        0.90091453      -0.31680990      -0.63059832
C        2.33127717      -0.00474073      -0.47599924
O        2.31138847      -1.37889150      -0.11640011
H       -1.41396384       1.58938239      -0.71724704
H       -1.73255954       1.68958779       0.99706749
H       -3.00722835       1.11794116      -0.08783614
H       -1.71012726      -0.94539506      -0.57602725
H       -1.93897083      -0.78949940       1.15007453
H        1.20974713      -1.62199655       0.84287882
H        0.37067215       0.21784207       1.33678041
H        0.56168914      -0.74994848      -1.57034806
H        2.88223722       0.17945337      -1.39506340
H        2.53980093       0.69948605       0.33154592
16
Frame=16 idx=003555 GeodesicLength=1.0587088847655788 rxn_smarts="[C:1]([C:2]([C:3]([C@@:4]1([H:14])[C:5]([H:15])([H:16])[O:6]1)([H:12])[H:13])([H:10])[H:11])([H:7])([H:8])[H:9]>>[C:1]([C:2](/[C:3](=[C:4](/[C:5]([O:6][H:12])([H:15])[H:16])[H:14])[H:13])([H:10])[H:11])([H:7])([H:8])[H:9]"
C       -1.92081498       1.09732356       0.10604631
C       -1.43683629      -0.34102447       0.28555567
C        0.05464122      -0.46095288       0.51645725
C        0.89535077      -0.33098464      -0.63028856
C        2.31954647       0.01157540      -0.48304234
O        2.31900337      -1.35939614      -0.10601748
H       -1.38703625       1.59662211      -0.70575731
H       -1.71967341       1.68529108       1.00542610
H       -2.99190767       1.13758324      -0.09495621
H       -1.71830860      -0.93775086      -0.58709959
H       -1.95265629      -0.79053561       1.13919468
H        1.23808427      -1.64592190       0.87142913
H        0.36157244       0.19961145       1.33615852
H        0.56075217      -0.78101407      -1.56405735
H        2.86567370       0.19080821      -1.40557054
H        2.51260908       0.72876551       0.31652174
