10
Frame=0 idx=004764 GeodesicLength=0.0 rxn_smarts="[O:1]=[C:2]([C:3]([O:4][C:5](=[O:6])[H:10])([H:8])[H:9])[H:7]>>[O:1]=[C:2]([O:6][C:5](=[O+:4][C-:3]([H:8])[H:9])[H:10])[H:7]"
O        1.07808336       1.86155272      -0.54014502
C        0.91158058       1.11000111       0.35045169
C        0.30483511      -1.29418491      -0.46421448
O       -0.94226939      -0.72423934      -0.62449938
C       -1.26913947       0.31553261       0.00215474
O       -0.41347181       0.84001459       0.85636813
H        1.64694560       0.71302226       1.05312625
H        0.34203296      -2.20062096      -1.05178271
H        0.58199126      -1.37614533       0.58350914
H       -2.24058821       0.75506725      -0.16496837
10
Frame=1 idx=004764 GeodesicLength=0.07147198693853787 rxn_smarts="[O:1]=[C:2]([C:3]([O:4][C:5](=[O:6])[H:10])([H:8])[H:9])[H:7]>>[O:1]=[C:2]([O:6][C:5](=[O+:4][C-:3]([H:8])[H:9])[H:10])[H:7]"
O        1.06530329       1.85967390      -0.54288999
C        0.91683825       1.09807911       0.34386765
C        0.30465057      -1.28735043      -0.46033236
O       -0.94794900      -0.72981999      -0.61598484
C       -1.27977763       0.30730398       0.01872824
O       -0.42489960       0.82868520       0.87178889
H        1.66457214       0.72275752       1.04646782
H        0.35186004      -2.18806805      -1.05630630
H        0.57870180      -1.38694171       0.58678043
H       -2.22929985       0.77568048      -0.19211955
10
Frame=2 idx=004764 GeodesicLength=0.1429274401768305 rxn_smarts="[O:1]=[C:2]([C:3]([O:4][C:5](=[O:6])[H:10])([H:8])[H:9])[H:7]>>[O:1]=[C:2]([O:6][C:5](=[O+:4][C-:3]([H:8])[H:9])[H:10])[H:7]"
O        1.05325770       1.85892228      -0.54459961
C        0.92251394       1.08616997       0.33687570
C        0.30412936      -1.28077598      -0.45613083
O       -0.95324521      -0.73484130      -0.60857897
C       -1.29008998       0.30019503       0.03321694
O       -0.43666501       0.81744127       0.88648656
H        1.68192157       0.73255451       1.03933922
H        0.36113164      -2.17585755      -1.06004989
H        0.57444018      -1.39764717       0.59025423
H       -2.21739419       0.79383894      -0.21681334
10
Frame=3 idx=004764 GeodesicLength=0.21419897164322432 rxn_smarts="[O:1]=[C:2]([C:3]([O:4][C:5](=[O:6])[H:10])([H:8])[H:9])[H:7]>>[O:1]=[C:2]([O:6][C:5](=[O+:4][C-:3]([H:8])[H:9])[H:10])[H:7]"
O        1.04150690       1.85907135      -0.54534452
C        0.92849772       1.07423127       0.32951712
C        0.30332818      -1.27447798      -0.45164182
O       -0.95828146      -0.73954592      -0.60193171
C       -1.30012443       0.29389417       0.04613798
O       -0.44873384       0.80613207       0.90078085
H        1.69901075       0.74246288       1.03164452
H        0.36998809      -2.16394891      -1.06318845
H        0.56951740      -1.40824678       0.59384002
H       -2.20470931       0.81042786      -0.23981400
10
Frame=4 idx=004764 GeodesicLength=0.28576853162492155 rxn_smarts="[O:1]=[C:2]([C:3]([O:4][C:5](=[O:6])[H:10])([H:8])[H:9])[H:7]>>[O:1]=[C:2]([O:6][C:5](=[O+:4][C-:3]([H:8])[H:9])[H:10])[H:7]"
O        1.02997381       1.85969170      -0.54543241
C        0.93478939       1.06233477       0.32187189
C        0.30232035      -1.26837067      -0.44689057
O       -0.96316494      -0.74398373      -0.59582780
C       -1.31011291       0.28818827       0.05793638
O       -0.46122524       0.79466849       0.91492574
H        1.71598797       0.75247022       1.02344373
H        0.37862204      -2.15212858      -1.06591246
H        0.56419073      -1.41880867       0.59753526
H       -2.19138120       0.82593819      -0.26164976
10
Frame=5 idx=004764 GeodesicLength=0.3569879374954129 rxn_smarts="[O:1]=[C:2]([C:3]([O:4][C:5](=[O:6])[H:10])([H:8])[H:9])[H:7]>>[O:1]=[C:2]([O:6][C:5](=[O+:4][C-:3]([H:8])[H:9])[H:10])[H:7]"
O        1.01907959       1.86090339      -0.54468164
C        0.94145785       1.05048318       0.31387190
C        0.30111471      -1.26245174      -0.44187811
O       -0.96769358      -0.74799649      -0.59057751
C       -1.31971220       0.28329871       0.06819742
O       -0.47403752       0.78323501       0.92859600
H        1.73267581       0.76252803       1.01476551
H        0.38697455      -2.14054476      -1.06799942
H        0.55816359      -1.42923235       0.60129031
H       -2.17802279       0.83977703      -0.28158446
10
Frame=6 idx=004764 GeodesicLength=0.42849062460984744 rxn_smarts="[O:1]=[C:2]([C:3]([O:4][C:5](=[O:6])[H:10])([H:8])[H:9])[H:7]>>[O:1]=[C:2]([O:6][C:5](=[O+:4][C-:3]([H:8])[H:9])[H:10])[H:7]"
O        1.00822855       1.86246703      -0.54345934
C        0.94843747       1.03862090       0.30563941
C        0.29980662      -1.25671082      -0.43661680
O       -0.97201214      -0.75177331      -0.58586745
C       -1.32925286       0.27888697       0.07749799
O       -0.48733487       0.77160845       0.94224509
H        1.74925316       0.77257344       1.00556534
H        0.39528109      -2.12906224      -1.06968551
H        0.55182214      -1.43960633       0.60515589
H       -2.16422917       0.85299592      -0.30047463
10
Frame=7 idx=004764 GeodesicLength=0.4998203219277749 rxn_smarts="[O:1]=[C:2]([C:3]([O:4][C:5](=[O:6])[H:10])([H:8])[H:9])[H:7]>>[O:1]=[C:2]([O:6][C:5](=[O+:4][C-:3]([H:8])[H:9])[H:10])[H:7]"
O        0.99749985       1.86408651      -0.54165157
C        0.95568514       1.02687110       0.29714993
C        0.29836828      -1.25110854      -0.43113527
O       -0.97615240      -0.75526904      -0.58164991
C       -1.33870112       0.27489898       0.08598463
O       -0.50104136       0.75976734       0.95584850
H        1.76565988       0.78276196       0.99581866
H        0.40350399      -2.11763038      -1.07099169
H        0.54511850      -1.44987336       0.60903961
H       -2.14994076       0.86549543      -0.31841289
10
Frame=8 idx=004764 GeodesicLength=0.5713132811470073 rxn_smarts="[O:1]=[C:2]([C:3]([O:4][C:5](=[O:6])[H:10])([H:8])[H:9])[H:7]>>[O:1]=[C:2]([O:6][C:5](=[O+:4][C-:3]([H:8])[H:9])[H:10])[H:7]"
O        0.98661495       1.86585552      -0.53933542
C        0.96309266       1.01515555       0.28831282
C        0.29676995      -1.24559863      -0.42537701
O       -0.98022503      -0.75865282      -0.57761232
C       -1.34818050       0.27115586       0.09403446
O       -0.51525300       0.74759494       0.96967738
H        1.78188080       0.79293323       0.98539080
H        0.41169988      -2.10604299      -1.07201546
H        0.53828047      -1.46009828       0.61294953
H       -2.13468019       0.87769762      -0.33602478
10
Frame=9 idx=004764 GeodesicLength=0.6429525638550038 rxn_smarts="[O:1]=[C:2]([C:3]([O:4][C:5](=[O:6])[H:10])([H:8])[H:9])[H:7]>>[O:1]=[C:2]([O:6][C:5](=[O+:4][C-:3]([H:8])[H:9])[H:10])[H:7]"
O        0.97581877       1.86767607      -0.53656854
C        0.97080219       1.00349830       0.27916063
C        0.29509766      -1.24020605      -0.41938119
O       -0.98414719      -0.76179586      -0.57401791
C       -1.35764796       0.26776823       0.10140613
O       -0.52999016       0.73516369       0.98359958
H        1.79800366       0.80311527       0.97441252
H        0.41995949      -2.09443254      -1.07270424
H        0.53118808      -1.47024144       0.61694551
H       -2.11908455       0.88945432      -0.35285249
10
Frame=10 idx=004764 GeodesicLength=0.7147649874059544 rxn_smarts="[O:1]=[C:2]([C:3]([O:4][C:5](=[O:6])[H:10])([H:8])[H:9])[H:7]>>[O:1]=[C:2]([O:6][C:5](=[O+:4][C-:3]([H:8])[H:9])[H:10])[H:7]"
O        0.96487633       1.86926043      -0.53359747
C        0.97886375       0.99190239       0.26986024
C        0.29332255      -1.23484104      -0.41313178
O       -0.98767842      -0.76464324      -0.57090700
C       -1.36695593       0.26467931       0.10810463
O       -0.54537946       0.72249342       0.99752824
H        1.81403728       0.81323468       0.96296477
H        0.42829714      -2.08268093      -1.07304278
H        0.52377884      -1.48026902       0.62098045
H       -2.10316207       0.90086400      -0.36875930
10
Frame=11 idx=004764 GeodesicLength=0.7863391366101152 rxn_smarts="[O:1]=[C:2]([C:3]([O:4][C:5](=[O:6])[H:10])([H:8])[H:9])[H:7]>>[O:1]=[C:2]([O:6][C:5](=[O+:4][C-:3]([H:8])[H:9])[H:10])[H:7]"
O        0.95419898       1.87085012      -0.53004673
C        0.98715933       0.98042375       0.26011899
C        0.29154830      -1.22960217      -0.40669424
O       -0.99115716      -0.76719370      -0.56827730
C       -1.37631351       0.26198560       0.11410489
O       -0.56129849       0.70951307       1.01152736
H        1.82986239       0.82340172       0.95090199
H        0.43676980      -2.07100360      -1.07295400
H        0.51611818      -1.49017642       0.62506261
H       -2.08688780       0.91180162      -0.38374356
10
Frame=12 idx=004764 GeodesicLength=0.8582085450152422 rxn_smarts="[O:1]=[C:2]([C:3]([O:4][C:5](=[O:6])[H:10])([H:8])[H:9])[H:7]>>[O:1]=[C:2]([O:6][C:5](=[O+:4][C-:3]([H:8])[H:9])[H:10])[H:7]"
O        0.94330427       1.87243856      -0.52615274
C        0.99583015       0.96895385       0.25008785
C        0.28963583      -1.22435749      -0.39995857
O       -0.99431389      -0.76955464      -0.56600745
C       -1.38556687       0.25943622       0.11960143
O       -0.57792869       0.69618674       1.02563334
H        1.84565748       0.83337520       0.93821132
H        0.44529710      -2.05910457      -1.07246755
H        0.50822770      -1.49992252       0.62920251
H       -2.07014308       0.92254864      -0.39815014
10
Frame=13 idx=004764 GeodesicLength=0.9301790540197924 rxn_smarts="[O:1]=[C:2]([C:3]([O:4][C:5](=[O:6])[H:10])([H:8])[H:9])[H:7]>>[O:1]=[C:2]([O:6][C:5](=[O+:4][C-:3]([H:8])[H:9])[H:10])[H:7]"
O        0.93242557       1.87394913      -0.52186166
C        1.00482192       0.95755543       0.23966730
C        0.28771256      -1.21917106      -0.39299733
O       -0.99728551      -0.77162143      -0.56420345
C       -1.39486448       0.25717615       0.12452632
O       -0.59529095       0.68251297       1.03986458
H        1.86139169       0.84322852       0.92490330
H        0.45402285      -2.04716191      -1.07156545
H        0.50013798      -1.50953321       0.63343251
H       -2.05307162       0.93306541      -0.41176613
10
Frame=14 idx=004764 GeodesicLength=1.00215091678048 rxn_smarts="[O:1]=[C:2]([C:3]([O:4][C:5](=[O:6])[H:10])([H:8])[H:9])[H:7]>>[O:1]=[C:2]([O:6][C:5](=[O+:4][C-:3]([H:8])[H:9])[H:10])[H:7]"
O        0.92153079       1.87540862      -0.51709327
C        1.01413491       0.94623956       0.22878728
C        0.28576695      -1.21402153      -0.38580794
O       -1.00003252      -0.77340592      -0.56284179
C       -1.40414690       0.25515231       0.12891341
O       -0.61340088       0.66845064       1.05419451
H        1.87701882       0.85293156       0.91093871
H        0.46290766      -2.03518460      -1.07018504
H        0.49185064      -1.51896609       0.63771685
H       -2.03562948       0.94339545      -0.42462270
10
Frame=15 idx=004764 GeodesicLength=1.0741619225801562 rxn_smarts="[O:1]=[C:2]([C:3]([O:4][C:5](=[O:6])[H:10])([H:8])[H:9])[H:7]>>[O:1]=[C:2]([O:6][C:5](=[O+:4][C-:3]([H:8])[H:9])[H:10])[H:7]"
O        0.91059013       1.87678503      -0.51185323
C        1.02380013       0.93499887       0.21742761
C        0.28380045      -1.20887973      -0.37839250
O       -1.00252260      -0.77490403      -0.56193001
C       -1.41341417       0.25333458       0.13278183
O       -0.63232985       0.65397466       1.06861676
H        1.89257264       0.86244838       0.89631208
H        0.47195367      -2.02316356      -1.06830108
H        0.48338778      -1.52818101       0.64205828
H       -2.01783819       0.95358679      -0.43671973
10
Frame=16 idx=004764 GeodesicLength=1.1462626834390408 rxn_smarts="[O:1]=[C:2]([C:3]([O:4][C:5](=[O:6])[H:10])([H:8])[H:9])[H:7]>>[O:1]=[C:2]([O:6][C:5](=[O+:4][C-:3]([H:8])[H:9])[H:10])[H:7]"
O        0.89960804       1.87807191      -0.50612951
C        1.03384900       0.92383269       0.20553616
C        0.28182489      -1.20372415      -0.37075163
O       -1.00475383      -0.77610703      -0.56146902
C       -1.42269227       0.25170834       0.13614567
O       -0.65215362       0.63904932       1.08313247
H        1.90808838       0.87173641       0.88101103
H        0.48118201      -2.01109549      -1.06588958
H        0.47477982      -1.53715122       0.64647358
H       -1.99973242       0.96367922      -0.44805917
