11
Frame=0 idx=003026 GeodesicLength=0.0 rxn_smarts="[C:1]([C@@:2]([O:3][H:10])([C:4](=[O:5])[H:11])[H:9])([H:6])([H:7])[H:8]>>[C:1]([C:2](=[O:3])[C:4]([O:5][H:10])([H:9])[H:11])([H:6])([H:7])[H:8]"
C        1.37550500      -0.40701249      -0.03341711
C        0.03341791       0.18129019      -0.24018478
O       -0.13336035       1.16903336      -1.05606370
C       -1.22140574      -0.19832049       0.36620007
O       -2.23914193       0.41927610      -0.09481740
H        2.12108378       0.36383831       0.15977416
H        1.35865603      -1.12007884       0.79024304
H        1.66149723      -0.93098276      -0.94774446
H       -0.51350557       0.45633168       1.19452841
H       -1.16557186       1.23099299      -1.02204039
H       -1.27717451      -1.16436803       0.88352216
11
Frame=1 idx=003026 GeodesicLength=0.07327094667324138 rxn_smarts="[C:1]([C@@:2]([O:3][H:10])([C:4](=[O:5])[H:11])[H:9])([H:6])([H:7])[H:8]>>[C:1]([C:2](=[O:3])[C:4]([O:5][H:10])([H:9])[H:11])([H:6])([H:7])[H:8]"
C        1.37654579      -0.40734699      -0.03070879
C        0.04080500       0.20164250      -0.22262735
O       -0.13169587       1.17768084      -1.05201759
C       -1.22045794      -0.19942030       0.36582484
O       -2.23634209       0.41115309      -0.11236936
H        2.13388447       0.35701475       0.14109875
H        1.36330096      -1.10998126       0.80207157
H        1.64018115      -0.94705495      -0.94258704
H       -0.51173901       0.45989401       1.20408775
H       -1.18029824       1.23095953      -1.01864201
H       -1.27418422      -1.17454123       0.86586924
11
Frame=2 idx=003026 GeodesicLength=0.14656973213505392 rxn_smarts="[C:1]([C@@:2]([O:3][H:10])([C:4](=[O:5])[H:11])[H:9])([H:6])([H:7])[H:8]>>[C:1]([C:2](=[O:3])[C:4]([O:5][H:10])([H:9])[H:11])([H:6])([H:7])[H:8]"
C        1.37714529      -0.40765462      -0.02805546
C        0.04801282       0.22193458      -0.20496519
O       -0.12953932       1.18655774      -1.04735633
C       -1.21925798      -0.20043739       0.36548039
O       -2.23317217       0.40279605      -0.12982528
H        2.14589260       0.34968989       0.12254539
H        1.36797783      -1.10010360       0.81340173
H        1.61830791      -0.96239486      -0.93710733
H       -0.50981529       0.46375199       1.21376680
H       -1.19495677       1.23019818      -1.01600902
H       -1.27059492      -1.18433797       0.84812430
11
Frame=3 idx=003026 GeodesicLength=0.21989174798414715 rxn_smarts="[C:1]([C@@:2]([O:3][H:10])([C:4](=[O:5])[H:11])[H:9])([H:6])([H:7])[H:8]>>[C:1]([C:2](=[O:3])[C:4]([O:5][H:10])([H:9])[H:11])([H:6])([H:7])[H:8]"
C        1.37732567      -0.40794333      -0.02547288
C        0.05499958       0.24199358      -0.18733322
O       -0.12689155       1.19568131      -1.04206866
C       -1.21785664      -0.20137951       0.36518415
O       -2.22965898       0.39429177      -0.14710569
H        2.15703421       0.34196466       0.10420837
H        1.37266952      -1.09051701       0.82419264
H        1.59607652      -0.97696049      -0.93134757
H       -0.50766937       0.46790300       1.22349374
H       -1.20952928       1.22869582      -1.01414855
H       -1.26649968      -1.19372979       0.83039766
11
Frame=4 idx=003026 GeodesicLength=0.2934547687602593 rxn_smarts="[C:1]([C@@:2]([O:3][H:10])([C:4](=[O:5])[H:11])[H:9])([H:6])([H:7])[H:8]>>[C:1]([C:2](=[O:3])[C:4]([O:5][H:10])([H:9])[H:11])([H:6])([H:7])[H:8]"
C        1.37710309      -0.40822073      -0.02296672
C        0.06173690       0.26167207      -0.16984537
O       -0.12374858       1.20507369      -1.03615046
C       -1.21628356      -0.20224607       0.36494034
O       -2.22578819       0.38572665      -0.16417112
H        2.16725146       0.33392508       0.08617179
H        1.37734722      -1.08127367       0.83442522
H        1.57363655      -0.99071981      -0.92534417
H       -0.50522545       0.47232919       1.23319723
H       -1.22405620       1.22641459      -1.01303005
H       -1.26197323      -1.20268099       0.81277331
11
Frame=5 idx=003026 GeodesicLength=0.3668193198389226 rxn_smarts="[C:1]([C@@:2]([O:3][H:10])([C:4](=[O:5])[H:11])[H:9])([H:6])([H:7])[H:8]>>[C:1]([C:2](=[O:3])[C:4]([O:5][H:10])([H:9])[H:11])([H:6])([H:7])[H:8]"
C        1.37652251      -0.40849653      -0.02054185
C        0.06819856       0.28085144      -0.15259294
O       -0.12018623       1.21468650      -1.02963523
C       -1.21460196      -0.20306093       0.36475258
O       -2.22164480       0.37711445      -0.18097980
H        2.17653692       0.32564970       0.06842692
H        1.38204333      -1.07234825       0.84413055
H        1.55113367      -1.00372971      -0.91909615
H       -0.50247259       0.47701280       1.24282830
H       -1.23843764       1.22352458      -1.01257883
H       -1.25709176      -1.21120405       0.79528645
11
Frame=6 idx=003026 GeodesicLength=0.4402506991432541 rxn_smarts="[C:1]([C@@:2]([O:3][H:10])([C:4](=[O:5])[H:11])[H:9])([H:6])([H:7])[H:8]>>[C:1]([C:2](=[O:3])[C:4]([O:5][H:10])([H:9])[H:11])([H:6])([H:7])[H:8]"
C        1.37560070      -0.40877108      -0.01819056
C        0.07439194       0.29947196      -0.13561036
O       -0.11618990       1.22455557      -1.02250015
C       -1.21283167      -0.20384253       0.36460620
O       -2.21720640       0.36846641      -0.19755280
H        2.18491511       0.31721128       0.05093737
H        1.38675244      -1.06370593       0.85335473
H        1.52856946      -1.01605362      -0.91259347
H       -0.49936609       0.48193683       1.25234364
H       -1.25271567       1.22005926      -1.01273671
H       -1.25191993      -1.21932813       0.77794212
11
Frame=7 idx=003026 GeodesicLength=0.513650987356216 rxn_smarts="[C:1]([C@@:2]([O:3][H:10])([C:4](=[O:5])[H:11])[H:9])([H:6])([H:7])[H:8]>>[C:1]([C:2](=[O:3])[C:4]([O:5][H:10])([H:9])[H:11])([H:6])([H:7])[H:8]"
C        1.37438059      -0.40905792      -0.01592585
C        0.08030011       0.31744657      -0.11898207
O       -0.11182131       1.23462712      -1.01484602
C       -1.21100988      -0.20457119       0.36451288
O       -2.21250198       0.35988861      -0.21382802
H        2.19234846       0.30866974       0.03383539
H        1.39143511      -1.05542458       0.86205074
H        1.50618317      -1.02765614      -0.90592289
H       -0.49590222       0.48709233       1.26173130
H       -1.26689073       1.21597976      -1.01344165
H       -1.24652132      -1.22699429       0.76081620
11
Frame=8 idx=003026 GeodesicLength=0.586995498518307 rxn_smarts="[C:1]([C@@:2]([O:3][H:10])([C:4](=[O:5])[H:11])[H:9])([H:6])([H:7])[H:8]>>[C:1]([C:2](=[O:3])[C:4]([O:5][H:10])([H:9])[H:11])([H:6])([H:7])[H:8]"
C        1.37290367      -0.40936267      -0.01373251
C        0.08594079       0.33476123      -0.10271852
O       -0.10711091       1.24489432      -1.00671054
C       -1.20917414      -0.20528059       0.36445714
O       -2.20758667       0.35134265      -0.22983814
H        2.19892053       0.30008234       0.01707056
H        1.39612167      -1.04747717       0.87028081
H        1.48396744      -1.03861758      -0.89906419
H       -0.49206608       0.49247644       1.27095802
H       -1.28095977       1.21144844      -1.01462393
H       -1.24095651      -1.23426741       0.74392129
11
Frame=9 idx=003026 GeodesicLength=0.660300677534177 rxn_smarts="[C:1]([C@@:2]([O:3][H:10])([C:4](=[O:5])[H:11])[H:9])([H:6])([H:7])[H:8]>>[C:1]([C:2](=[O:3])[C:4]([O:5][H:10])([H:9])[H:11])([H:6])([H:7])[H:8]"
C        1.37119945      -0.40968666      -0.01160694
C        0.09133089       0.35143473      -0.08679114
O       -0.10207079       1.25537780      -0.99806477
C       -1.20734292      -0.20597275       0.36443824
O       -2.20247711       0.34284485      -0.24555916
H        2.20468367       0.29145516       0.00057410
H        1.40083174      -1.03980875       0.87809012
H        1.46193283      -1.04900458      -0.89201434
H       -0.48788681       0.49804245       1.28006156
H       -1.29494165       1.20648307      -1.01633836
H       -1.23525930      -1.24116533       0.72721071
11
Frame=10 idx=003026 GeodesicLength=0.7336226123597099 rxn_smarts="[C:1]([C@@:2]([O:3][H:10])([C:4](=[O:5])[H:11])[H:9])([H:6])([H:7])[H:8]>>[C:1]([C:2](=[O:3])[C:4]([O:5][H:10])([H:9])[H:11])([H:6])([H:7])[H:8]"
C        1.36929782      -0.41003639      -0.00954898
C        0.09647970       0.36745457      -0.07122992
O       -0.09673425       1.26601062      -0.98903145
C       -1.20552964      -0.20664536       0.36444239
O       -2.19718363       0.33444249      -0.26098741
H        2.20965453       0.28283476      -0.01557291
H        1.40552791      -1.03246602       0.88546619
H        1.44019377      -1.05882054      -0.88482531
H       -0.48337029       0.50379841       1.28902690
H       -1.30887276       1.20110347      -1.01846481
H       -1.22946316      -1.24767600       0.71072531
11
Frame=11 idx=003026 GeodesicLength=0.8068894314029613 rxn_smarts="[C:1]([C@@:2]([O:3][H:10])([C:4](=[O:5])[H:11])[H:9])([H:6])([H:7])[H:8]>>[C:1]([C:2](=[O:3])[C:4]([O:5][H:10])([H:9])[H:11])([H:6])([H:7])[H:8]"
C        1.36722195      -0.41041332      -0.00754714
C        0.10140757       0.38285041      -0.05600569
O       -0.09111406       1.27679890      -0.97961139
C       -1.20374785      -0.20731931       0.36444975
O       -2.19175121       0.32609557      -0.27614025
H        2.21389954       0.27423040      -0.03143908
H        1.41024130      -1.02539900       0.89246346
H        1.41871173      -1.06813747      -0.87747789
H       -0.47852949       0.50972370       1.29786606
H       -1.32275084       1.19541152      -1.02100180
H       -1.22358864      -1.25384140       0.69444396
11
Frame=12 idx=003026 GeodesicLength=0.8802032807852196 rxn_smarts="[C:1]([C@@:2]([O:3][H:10])([C:4](=[O:5])[H:11])[H:9])([H:6])([H:7])[H:8]>>[C:1]([C:2](=[O:3])[C:4]([O:5][H:10])([H:9])[H:11])([H:6])([H:7])[H:8]"
C        1.36499644      -0.41082174      -0.00559721
C        0.10613224       0.39764367      -0.04110882
O       -0.08521066       1.28771229      -0.96985815
C       -1.20200296      -0.20799819       0.36444501
O       -2.18618727       0.31781030      -0.29102530
H        2.21746113       0.26565292      -0.04702563
H        1.41496357      -1.01860249       0.89910167
H        1.39752659      -1.07698970      -0.86998797
H       -0.47338945       0.51580593       1.30658789
H       -1.33663497       1.18945555      -1.02390136
H       -1.21765465      -1.25966854       0.67836988
11
Frame=13 idx=003026 GeodesicLength=0.9536193517608444 rxn_smarts="[C:1]([C@@:2]([O:3][H:10])([C:4](=[O:5])[H:11])[H:9])([H:6])([H:7])[H:8]>>[C:1]([C:2](=[O:3])[C:4]([O:5][H:10])([H:9])[H:11])([H:6])([H:7])[H:8]"
C        1.36264120      -0.41126565      -0.00369324
C        0.11067134       0.41185855      -0.02652945
O       -0.07902189       1.29872969      -0.95981906
C       -1.20029633      -0.20868904       0.36440800
O       -2.18051043       0.30957511      -0.30565798
H        2.22038278       0.25711148      -0.06233106
H        1.41969063      -1.01207341       0.90540156
H        1.37665680      -1.08541105      -0.86236826
H       -0.46796458       0.52203997       1.31519600
H       -1.35057623       1.18329544      -1.02712000
H       -1.21167329      -1.26517109       0.66251350
11
Frame=14 idx=003026 GeodesicLength=1.0270816043057236 rxn_smarts="[C:1]([C@@:2]([O:3][H:10])([C:4](=[O:5])[H:11])[H:9])([H:6])([H:7])[H:8]>>[C:1]([C:2](=[O:3])[C:4]([O:5][H:10])([H:9])[H:11])([H:6])([H:7])[H:8]"
C        1.36018022      -0.41175206      -0.00183213
C        0.11503745       0.42550321      -0.01228413
O       -0.07255901       1.30978294      -0.94958449
C       -1.19863113      -0.20939865       0.36432327
O       -2.17475793       0.30137797      -0.32002882
H        2.22270329       0.24862872      -0.07727793
H        1.42439550      -1.00585310       0.91135236
H        1.35617307      -1.09339870      -0.85466166
H       -0.46225648       0.52844038       1.32367246
H       -1.36462423       1.17702046      -1.03060351
H       -1.20566074      -1.27035115       0.64692457
11
Frame=15 idx=003026 GeodesicLength=1.1005976223719485 rxn_smarts="[C:1]([C@@:2]([O:3][H:10])([C:4](=[O:5])[H:11])[H:9])([H:6])([H:7])[H:8]>>[C:1]([C:2](=[O:3])[C:4]([O:5][H:10])([H:9])[H:11])([H:6])([H:7])[H:8]"
C        1.35763491      -0.41228789      -0.00001026
C        0.11924601       0.43859200       0.00161340
O       -0.06581785       1.32081420      -0.93923726
C       -1.19700436      -0.21013238       0.36417313
O       -2.16895543       0.29320129      -0.33413736
H        2.22446747       0.24022228      -0.09179516
H        1.42904784      -0.99997767       0.91695052
H        1.33613324      -1.10095524      -0.84690969
H       -0.45626742       0.53502131       1.33200011
H       -1.37885576       1.17071606      -1.03429598
H       -1.19962867      -1.27521398       0.63164855
11
Frame=16 idx=003026 GeodesicLength=1.1741592355566288 rxn_smarts="[C:1]([C@@:2]([O:3][H:10])([C:4](=[O:5])[H:11])[H:9])([H:6])([H:7])[H:8]>>[C:1]([C:2](=[O:3])[C:4]([O:5][H:10])([H:9])[H:11])([H:6])([H:7])[H:8]"
C        1.35502532      -0.41287999       0.00177628
C        0.12331278       0.45114285       0.01514975
O       -0.05879222       1.33176970      -0.92885860
C       -1.19541123      -0.21089525       0.36393730
O       -2.16312414       0.28501846      -0.34799975
H        2.22572444       0.23190609      -0.10582176
H        1.43361964      -0.99447401       0.92220088
H        1.31658425      -1.10809211      -0.83914924
H       -0.45000161       0.54179891       1.34016113
H       -1.39335200       1.16447419      -1.03812156
H       -1.19358521      -1.27976884       0.61672558
