14
Frame=0 idx=010143 GeodesicLength=0.0 rxn_smarts="[O:1]([C@@:2]1([H:9])[C@@:3]2([H:10])[C@@:4]3([H:11])[C:5]([H:12])([H:13])[C@:6]1([H:14])[N:7]23)[H:8]>>[H:8][H:9].[O:1]=[C:2]1[C@@:3]2([H:10])[C@@:4]3([H:11])[C:5]([H:12])([H:13])[C@:6]1([H:14])[N:7]23"
O        1.67226999      -0.62397321      -1.31686245
C        1.03164647      -0.23531072      -0.24998600
C        0.44792651       1.09814589       0.13775378
C       -1.02347016       0.94825563      -0.02065514
C       -1.33636560      -0.45260663      -0.49806255
C       -0.19508240      -0.83898425       0.44643659
N       -0.37220010       0.48133889       1.22573645
H        2.25301435      -0.61280707      -0.05309515
H        1.93717465      -0.35994345       0.83232414
H        0.93456219       2.05807427       0.23561013
H       -1.66371123       1.82085002      -0.03167276
H       -1.23096694      -0.69928827      -1.55500983
H       -2.29762690      -0.78984160      -0.11235579
H       -0.15717085      -1.79390953       0.95983853
14
Frame=1 idx=010143 GeodesicLength=0.10347329043607457 rxn_smarts="[O:1]([C@@:2]1([H:9])[C@@:3]2([H:10])[C@@:4]3([H:11])[C:5]([H:12])([H:13])[C@:6]1([H:14])[N:7]23)[H:8]>>[H:8][H:9].[O:1]=[C:2]1[C@@:3]2([H:10])[C@@:4]3([H:11])[C:5]([H:12])([H:13])[C@:6]1([H:14])[N:7]23"
O        1.67320872      -0.60424108      -1.31495537
C        1.02965129      -0.23059564      -0.24492428
C        0.44235139       1.10271652       0.13721480
C       -1.02872945       0.94987365      -0.02371018
C       -1.33880884      -0.45275870      -0.49803551
C       -0.19738700      -0.83490063       0.44787517
N       -0.37918674       0.48660566       1.22470632
H        2.27899135      -0.63092527      -0.06201602
H        1.95755599      -0.39254150       0.83537060
H        0.92525700       2.06458780       0.23551970
H       -1.67048248       1.82130854      -0.03849323
H       -1.23321890      -0.70236142      -1.55427512
H       -2.29984570      -0.79041312      -0.11200930
H       -0.15935663      -1.78635480       0.96773244
14
Frame=2 idx=010143 GeodesicLength=0.20677264575587473 rxn_smarts="[O:1]([C@@:2]1([H:9])[C@@:3]2([H:10])[C@@:4]3([H:11])[C:5]([H:12])([H:13])[C@:6]1([H:14])[N:7]23)[H:8]>>[H:8][H:9].[O:1]=[C:2]1[C@@:3]2([H:10])[C@@:4]3([H:11])[C:5]([H:12])([H:13])[C@:6]1([H:14])[N:7]23"
O        1.67450256      -0.58411890      -1.31214539
C        1.02765097      -0.22531855      -0.23943567
C        0.43641888       1.10776708       0.13673864
C       -1.03427250       0.95159762      -0.02683203
C       -1.34112881      -0.45291533      -0.49797622
C       -0.19967211      -0.83045680       0.44960655
N       -0.38649409       0.49229728       1.22373792
H        2.30570461      -0.64989455      -0.07189947
H        1.97803363      -0.42726124       0.83744219
H        0.91546866       2.07162201       0.23552501
H       -1.67772739       1.82171288      -0.04556859
H       -1.23506344      -0.70555466      -1.55345286
H       -2.30193958      -0.79114891      -0.11176468
H       -0.16148141      -1.77832793       0.97602459
14
Frame=3 idx=010143 GeodesicLength=0.3100735994497498 rxn_smarts="[O:1]([C@@:2]1([H:9])[C@@:3]2([H:10])[C@@:4]3([H:11])[C:5]([H:12])([H:13])[C@:6]1([H:14])[N:7]23)[H:8]>>[H:8][H:9].[O:1]=[C:2]1[C@@:3]2([H:10])[C@@:4]3([H:11])[C:5]([H:12])([H:13])[C@:6]1([H:14])[N:7]23"
O        1.67620389      -0.56357043      -1.30834133
C        1.02564413      -0.21941864      -0.23345853
C        0.43009754       1.11334274       0.13634492
C       -1.04012208       0.95343525      -0.03003109
C       -1.34330307      -0.45308127      -0.49787969
C       -0.20193009      -0.82561461       0.45166893
N       -0.39416541       0.49845753       1.22284232
H        2.33322304      -0.66982226      -0.08282604
H        1.99857282      -0.46428251       0.83838026
H        0.90513925       2.07923409       0.23563406
H       -1.68548803       1.82205304      -0.05293493
H       -1.23644644      -0.70888423      -1.55253101
H       -2.30388870      -0.79206892      -0.11163379
H       -0.16353686      -1.76977977       0.98476593
14
Frame=4 idx=010143 GeodesicLength=0.4134944180044126 rxn_smarts="[O:1]([C@@:2]1([H:9])[C@@:3]2([H:10])[C@@:4]3([H:11])[C:5]([H:12])([H:13])[C@:6]1([H:14])[N:7]23)[H:8]>>[H:8][H:9].[O:1]=[C:2]1[C@@:3]2([H:10])[C@@:4]3([H:11])[C:5]([H:12])([H:13])[C@:6]1([H:14])[N:7]23"
O        1.67838168      -0.54254245      -1.30342068
C        1.02363823      -0.21282191      -0.22690490
C        0.42334821       1.11949842       0.13606424
C       -1.04630215       0.95539529      -0.03332225
C       -1.34529824      -0.45326402      -0.49773852
C       -0.20415294      -0.82032767       0.45411527
N       -0.40225923       0.50513980       1.22203480
H        2.36159308      -0.69085899      -0.09492440
H        2.01912877      -0.50380392       0.83797628
H        0.89419818       2.08749437       0.23586663
H       -1.69380863       1.82231588      -0.06064557
H       -1.23728948      -0.71237397      -1.55149193
H       -2.30566154      -0.79320063      -0.11163440
H       -0.16551593      -1.76065020       0.99402544
14
Frame=5 idx=010143 GeodesicLength=0.5170733188876164 rxn_smarts="[O:1]([C@@:2]1([H:9])[C@@:3]2([H:10])[C@@:4]3([H:11])[C:5]([H:12])([H:13])[C@:6]1([H:14])[N:7]23)[H:8]>>[H:8][H:9].[O:1]=[C:2]1[C@@:3]2([H:10])[C@@:4]3([H:11])[C:5]([H:12])([H:13])[C@:6]1([H:14])[N:7]23"
O        1.68108188      -0.52098630      -1.29727869
C        1.02165448      -0.20547105      -0.21967845
C        0.41614418       1.12627979       0.13592840
C       -1.05282904       0.95748402      -0.03672110
C       -1.34708015      -0.45347153      -0.49754644
C       -0.20632965      -0.81455346       0.45699715
N       -0.41082801       0.51239199       1.22133043
H        2.39085592      -0.71312075      -0.10829506
H        2.03962866      -0.54599870       0.83601755
H        0.88258322       2.09645988       0.23623803
H       -1.70272893       1.82248972      -0.06875530
H       -1.23751828      -0.71604963      -1.55032352
H       -2.30722814      -0.79456765      -0.11178385
H       -0.16740615      -1.75088633       1.00387083
14
Frame=6 idx=010143 GeodesicLength=0.620962546685611 rxn_smarts="[O:1]([C@@:2]1([H:9])[C@@:3]2([H:10])[C@@:4]3([H:11])[C:5]([H:12])([H:13])[C@:6]1([H:14])[N:7]23)[H:8]>>[H:8][H:9].[O:1]=[C:2]1[C@@:3]2([H:10])[C@@:4]3([H:11])[C:5]([H:12])([H:13])[C@:6]1([H:14])[N:7]23"
O        1.68441787      -0.49881524      -1.28971544
C        1.01970703      -0.19725766      -0.21164290
C        0.40842689       1.13376871       0.13598610
C       -1.05973531       0.95971151      -0.04025109
C       -1.34859123      -0.45371796      -0.49729326
C       -0.20844669      -0.80822512       0.46039746
N       -0.41996068       0.52029317       1.22075304
H        2.42103630      -0.73686795      -0.12315700
H        2.06000256      -0.59111670       0.83218513
H        0.87019001       2.10623644       0.23678467
H       -1.71230980       1.82255008      -0.07734760
H       -1.23700273      -0.71994721      -1.54899521
H       -2.30853557      -0.79621438      -0.11211499
H       -0.16919865      -1.74039769       1.01441108
14
Frame=7 idx=010143 GeodesicLength=0.7252463348007856 rxn_smarts="[O:1]([C@@:2]1([H:9])[C@@:3]2([H:10])[C@@:4]3([H:11])[C:5]([H:12])([H:13])[C@:6]1([H:14])[N:7]23)[H:8]>>[H:8][H:9].[O:1]=[C:2]1[C@@:3]2([H:10])[C@@:4]3([H:11])[C:5]([H:12])([H:13])[C@:6]1([H:14])[N:7]23"
O        1.68845252      -0.47596588      -1.28060485
C        1.01782397      -0.18811796      -0.20268244
C        0.40016769       1.14201743       0.13627406
C       -1.06704304       0.96208063      -0.04393411
C       -1.34978483      -0.45401412      -0.49697262
C       -0.21048416      -0.80128647       0.46437842
N       -0.42972380       0.52890414       1.22032283
H        2.45215660      -0.76226609      -0.13963760
H        2.08014791      -0.63933451       0.82622421
H        0.85695092       2.11688966       0.23753005
H       -1.72260791       1.82247640      -0.08648827
H       -1.23564154      -0.72409952      -1.54749644
H       -2.30954719      -0.79817173      -0.11265075
H       -0.17086715      -1.72911198       1.02573752
14
Frame=8 idx=010143 GeodesicLength=0.8300264927389456 rxn_smarts="[O:1]([C@@:2]1([H:9])[C@@:3]2([H:10])[C@@:4]3([H:11])[C:5]([H:12])([H:13])[C@:6]1([H:14])[N:7]23)[H:8]>>[H:8][H:9].[O:1]=[C:2]1[C@@:3]2([H:10])[C@@:4]3([H:11])[C:5]([H:12])([H:13])[C@:6]1([H:14])[N:7]23"
O        1.69337641      -0.45230173      -1.26964351
C        1.01604524      -0.17789603      -0.19258013
C        0.39128444       1.15114730       0.13687584
C       -1.07479254       0.96459421      -0.04780679
C       -1.35055528      -0.45437880      -0.49656795
C       -0.21241575      -0.79362277       0.46907611
N       -0.44026381       0.53834014       1.22007678
H        2.48414462      -0.78973158      -0.15811936
H        2.09992732      -0.69098784       0.81765342
H        0.84270722       2.12857180       0.23853757
H       -1.73370772       1.82219990      -0.09631648
H       -1.23319038      -0.72855570      -1.54577121
H       -2.31016870      -0.80050899      -0.11344198
H       -0.17239107      -1.71686990       1.03802768
14
Frame=9 idx=010143 GeodesicLength=0.9332038058400725 rxn_smarts="[O:1]([C@@:2]1([H:9])[C@@:3]2([H:10])[C@@:4]3([H:11])[C:5]([H:12])([H:13])[C@:6]1([H:14])[N:7]23)[H:8]>>[H:8][H:9].[O:1]=[C:2]1[C@@:3]2([H:10])[C@@:4]3([H:11])[C:5]([H:12])([H:13])[C@:6]1([H:14])[N:7]23"
O        1.69905854      -0.42738486      -1.25655555
C        1.01468284      -0.16648513      -0.18072824
C        0.38180754       1.16121056       0.13798528
C       -1.08279561       0.96719763      -0.05197954
C       -1.35056435      -0.45490777      -0.49602672
C       -0.21418298      -0.78517034       0.47475507
N       -0.45173248       0.54867997       1.22003987
H        2.51602930      -0.81962627      -0.17935269
H        2.11864343      -0.74610798       0.80575517
H        0.82734548       2.14139695       0.23996866
H       -1.74537840       1.82162050      -0.10719547
H       -1.22909721      -0.73347666      -1.54365135
H       -2.31006325      -0.80336444      -0.11461114
H       -0.17375282      -1.70358220       1.05159666
14
Frame=10 idx=010143 GeodesicLength=1.03637470030977 rxn_smarts="[O:1]([C@@:2]1([H:9])[C@@:3]2([H:10])[C@@:4]3([H:11])[C:5]([H:12])([H:13])[C@:6]1([H:14])[N:7]23)[H:8]>>[H:8][H:9].[O:1]=[C:2]1[C@@:3]2([H:10])[C@@:4]3([H:11])[C:5]([H:12])([H:13])[C@:6]1([H:14])[N:7]23"
O        1.70589628      -0.40132546      -1.24095349
C        1.01361243      -0.15372872      -0.16709204
C        0.37163691       1.17232672       0.13963171
C       -1.09118148       0.96991383      -0.05646028
C       -1.34981659      -0.45559256      -0.49535833
C       -0.21576996      -0.77581240       0.48148775
N       -0.46425746       0.56004349       1.22025763
H        2.54804588      -0.85219340      -0.20360991
H        2.13638681      -0.80508610       0.79020223
H        0.81073026       2.15548825       0.24183869
H       -1.75783520       1.82069315      -0.11916797
H       -1.22326764      -0.73888256      -1.54116266
H       -2.30926080      -0.80676966      -0.11618297
H       -0.17491945      -1.68907458       1.06656964
14
Frame=11 idx=010143 GeodesicLength=1.1396334979324418 rxn_smarts="[O:1]([C@@:2]1([H:9])[C@@:3]2([H:10])[C@@:4]3([H:11])[C:5]([H:12])([H:13])[C@:6]1([H:14])[N:7]23)[H:8]>>[H:8][H:9].[O:1]=[C:2]1[C@@:3]2([H:10])[C@@:4]3([H:11])[C:5]([H:12])([H:13])[C@:6]1([H:14])[N:7]23"
O        1.71403120      -0.37396039      -1.22248405
C        1.01291112      -0.13949446      -0.15136435
C        0.36073275       1.18457520       0.14190952
C       -1.09991269       0.97270725      -0.06131861
C       -1.34813995      -0.45648024      -0.49452689
C       -0.21715124      -0.76544890       0.48943745
N       -0.47798416       0.57252179       1.22073932
H        2.57987286      -0.88769756      -0.23134680
H        2.15283264      -0.86813401       0.77044694
H        0.79273424       2.17095431       0.24421823
H       -1.77106105       1.81932481      -0.13244346
H       -1.21537443      -0.74485788      -1.53819236
H       -2.30759902      -0.81081919      -0.11821935
H       -0.17589229      -1.67319072       1.08314442
14
Frame=12 idx=010143 GeodesicLength=1.2427940925937668 rxn_smarts="[O:1]([C@@:2]1([H:9])[C@@:3]2([H:10])[C@@:4]3([H:11])[C:5]([H:12])([H:13])[C@:6]1([H:14])[N:7]23)[H:8]>>[H:8][H:9].[O:1]=[C:2]1[C@@:3]2([H:10])[C@@:4]3([H:11])[C:5]([H:12])([H:13])[C@:6]1([H:14])[N:7]23"
O        1.72368757      -0.34509015      -1.20062665
C        1.01269776      -0.12362667      -0.13309449
C        0.34906726       1.19804196       0.14496827
C       -1.10890752       0.97552255      -0.06664595
C       -1.34527907      -0.45763994      -0.49348793
C       -0.21829382      -0.75395760       0.49883976
N       -0.49310842       0.58622351       1.22150234
H        2.61086391      -0.92646304      -0.26330309
H        2.16747159      -0.93538832       0.74575385
H        0.77320871       2.18791847       0.24721848
H       -1.78497264       1.81736392      -0.14732473
H       -1.20492639      -0.75152779      -1.53459083
H       -2.30484522      -0.81563815      -0.12082229
H       -0.17666372      -1.65573876       1.10161328
14
Frame=13 idx=010143 GeodesicLength=1.3448123721495735 rxn_smarts="[O:1]([C@@:2]1([H:9])[C@@:3]2([H:10])[C@@:4]3([H:11])[C:5]([H:12])([H:13])[C@:6]1([H:14])[N:7]23)[H:8]>>[H:8][H:9].[O:1]=[C:2]1[C@@:3]2([H:10])[C@@:4]3([H:11])[C:5]([H:12])([H:13])[C@:6]1([H:14])[N:7]23"
O        1.73495872      -0.31447074      -1.17485025
C        1.01318582      -0.10609439      -0.11166130
C        0.33674737       1.21267776       0.14900179
C       -1.11792797       0.97826751      -0.07257002
C       -1.34089389      -0.45918393      -0.49220206
C       -0.21915263      -0.74131951       0.50998567
N       -0.50977937       0.60118081       1.22256989
H        2.63983888      -0.96847809      -0.30043288
H        2.17934475      -1.00650620       0.71539029
H        0.75215453       2.20634870       0.25097651
H       -1.79926432       1.81467559      -0.16422697
H       -1.19132471      -0.75910139      -1.53023904
H       -2.30069401      -0.82133730      -0.12411743
H       -0.17719316      -1.63665883       1.12237581
14
Frame=14 idx=010143 GeodesicLength=1.4468904572168706 rxn_smarts="[O:1]([C@@:2]1([H:9])[C@@:3]2([H:10])[C@@:4]3([H:11])[C:5]([H:12])([H:13])[C@:6]1([H:14])[N:7]23)[H:8]>>[H:8][H:9].[O:1]=[C:2]1[C@@:3]2([H:10])[C@@:4]3([H:11])[C:5]([H:12])([H:13])[C@:6]1([H:14])[N:7]23"
O        1.74833941      -0.28207568      -1.14432755
C        1.01438222      -0.08666073      -0.08660886
C        0.32368397       1.22862490       0.15415204
C       -1.12694801       0.98087880      -0.07920251
C       -1.33472563      -0.46118792      -0.49061736
C       -0.21971753      -0.72734906       0.52314855
N       -0.52826034       0.61755708       1.22394644
H        2.66621301      -1.01403393      -0.34364905
H        2.18808009      -1.08180803       0.67847050
H        0.72935861       2.22642689       0.25558967
H       -1.81393792       1.81106208      -0.18349857
H       -1.17401214      -0.76772005      -1.52492873
H       -2.29491658      -0.82807249      -0.12822221
H       -0.17753917      -1.61564186       1.14574763
14
Frame=15 idx=010143 GeodesicLength=1.5490537442396326 rxn_smarts="[O:1]([C@@:2]1([H:9])[C@@:3]2([H:10])[C@@:4]3([H:11])[C:5]([H:12])([H:13])[C@:6]1([H:14])[N:7]23)[H:8]>>[H:8][H:9].[O:1]=[C:2]1[C@@:3]2([H:10])[C@@:4]3([H:11])[C:5]([H:12])([H:13])[C@:6]1([H:14])[N:7]23"
O        1.76415442      -0.24788731      -1.10824077
C        1.01639466      -0.06528828      -0.05732455
C        0.30996373       1.24583228       0.16058829
C       -1.13573624       0.98322946      -0.08668964
C       -1.32643128      -0.46377614      -0.48867542
C       -0.21998169      -0.71199528       0.53864280
N       -0.54873995       0.63540437       1.22561385
H        2.68880189      -1.06293691      -0.39399362
H        2.19275867      -1.16090310       0.63412142
H        0.70481706       2.24811293       0.26115733
H       -1.82869150       1.80632868      -0.20558644
H       -1.15234327      -0.77760618      -1.51845557
H       -2.28721857      -0.83597001      -0.13327430
H       -0.17774792      -1.59254452       1.17211664
14
Frame=16 idx=010143 GeodesicLength=1.651328185491997 rxn_smarts="[O:1]([C@@:2]1([H:9])[C@@:3]2([H:10])[C@@:4]3([H:11])[C:5]([H:12])([H:13])[C@:6]1([H:14])[N:7]23)[H:8]>>[H:8][H:9].[O:1]=[C:2]1[C@@:3]2([H:10])[C@@:4]3([H:11])[C:5]([H:12])([H:13])[C@:6]1([H:14])[N:7]23"
O        1.78280911      -0.21207234      -1.06555595
C        1.01931602      -0.04205139      -0.02309024
C        0.29574853       1.26417343       0.16851114
C       -1.14399040       0.98519785      -0.09522315
C       -1.31565688      -0.46711492      -0.48633741
C       -0.21996096      -0.69530345       0.55684373
N       -0.57137603       0.65476234       1.22756956
H        2.70608807      -1.11463552      -0.45278076
H        2.19232576      -1.24300787       0.58147120
H        0.67863135       2.27129025       0.26777361
H       -1.84310006       1.80034056      -0.23104909
H       -1.12564426      -0.78909764      -1.51065379
H       -2.27730862      -0.84514078      -0.13945369
H       -0.17788163      -1.56734052       1.20197482
