11
Frame=0 idx=001443 GeodesicLength=0.0 rxn_smarts="[O:1]([C@@:2]1([H:8])[C:3]([H:9])([H:10])[N:4]([H:11])[C:5]1=[O:6])[H:7]>>[O:1]([C:5]([C@:2]1([H:8])[C:3]([H:9])([H:10])[N:4]1[H:11])=[O:6])[H:7]"
O        1.16732144       0.53705806      -1.03078044
C       -0.22140741       0.73306505       0.51205362
C       -1.28374823      -0.26009536       0.36827884
N       -0.23160708      -1.14273880      -0.19204574
C        0.97137973      -0.25521784       0.24480451
O        1.93617625      -0.63184536       0.86856426
H        1.98331962       1.03189406      -0.87465600
H       -0.26211798       1.79779975       0.29299664
H       -1.67438801      -0.64425516       1.31482794
H       -2.11090643      -0.00972359      -0.29862440
H       -0.27402193      -1.15594086      -1.20541920
11
Frame=1 idx=001443 GeodesicLength=0.08164993192670375 rxn_smarts="[O:1]([C@@:2]1([H:8])[C:3]([H:9])([H:10])[N:4]([H:11])[C:5]1=[O:6])[H:7]>>[O:1]([C:5]([C@:2]1([H:8])[C:3]([H:9])([H:10])[N:4]1[H:11])=[O:6])[H:7]"
O        1.17690057       0.56314049      -1.02822013
C       -0.21316071       0.72428202       0.48538398
C       -1.28730188      -0.26185707       0.37050483
N       -0.24137220      -1.14265503      -0.19614076
C        0.97818039      -0.26077687       0.24253569
O        1.93408638      -0.63944273       0.87629985
H        1.99676542       1.04750512      -0.86091054
H       -0.26829288       1.79116880       0.28435190
H       -1.66585096      -0.63664596       1.32509831
H       -2.11845084      -0.01010911      -0.29049383
H       -0.29150329      -1.17460967      -1.20840929
11
Frame=2 idx=001443 GeodesicLength=0.16329801075695038 rxn_smarts="[O:1]([C@@:2]1([H:8])[C:3]([H:9])([H:10])[N:4]([H:11])[C:5]1=[O:6])[H:7]>>[O:1]([C:5]([C@:2]1([H:8])[C:3]([H:9])([H:10])[N:4]1[H:11])=[O:6])[H:7]"
O        1.18690912       0.58977131      -1.02556964
C       -0.20503381       0.71515494       0.45794208
C       -1.29065778      -0.26343218       0.37254923
N       -0.25121533      -1.14285538      -0.20022383
C        0.98498453      -0.26628452       0.23957928
O        1.93160229      -0.64663463       0.88392888
H        2.01009322       1.06390775      -0.84660375
H       -0.27394267       1.78406844       0.27667518
H       -1.65697058      -0.62846390       1.33508333
H       -2.12576688      -0.01031715      -0.28251159
H       -0.31000211      -1.19491467      -1.21084917
11
Frame=3 idx=001443 GeodesicLength=0.24493146075390287 rxn_smarts="[O:1]([C@@:2]1([H:8])[C:3]([H:9])([H:10])[N:4]([H:11])[C:5]1=[O:6])[H:7]>>[O:1]([C:5]([C@:2]1([H:8])[C:3]([H:9])([H:10])[N:4]1[H:11])=[O:6])[H:7]"
O        1.19733776       0.61702305      -1.02279696
C       -0.19703026       0.70567333       0.42962525
C       -1.29380260      -0.26480837       0.37438535
N       -0.26114726      -1.14336212      -0.20430953
C        0.99179493      -0.27173991       0.23588785
O        1.92869807      -0.65341019       0.89141166
H        2.02330085       1.08113639      -0.83166444
H       -0.27900776       1.77645325       0.27003822
H       -1.64771390      -0.61966468       1.34476026
H       -2.13285131      -0.01035602      -0.27469954
H       -0.32957852      -1.21694473      -1.21263813
11
Frame=4 idx=001443 GeodesicLength=0.32653506402742905 rxn_smarts="[O:1]([C@@:2]1([H:8])[C:3]([H:9])([H:10])[N:4]([H:11])[C:5]1=[O:6])[H:7]>>[O:1]([C:5]([C@:2]1([H:8])[C:3]([H:9])([H:10])[N:4]1[H:11])=[O:6])[H:7]"
O        1.20817920       0.64496179      -1.01986474
C       -0.18915318       0.69582497       0.40031371
C       -1.29671958      -0.26597012       0.37598036
N       -0.27117841      -1.14419698      -0.20841625
C        0.99861446      -0.27714265       0.23141285
O        1.92534659      -0.65975931       0.89870398
H        2.03637321       1.09923421      -0.81601638
H       -0.28342989       1.76826037       0.26452792
H       -1.63803978      -0.61019149       1.35410198
H       -2.13969826      -0.01022770      -0.26708309
H       -0.35029435      -1.24079307      -1.21366033
11
Frame=5 idx=001443 GeodesicLength=0.4080877759823514 rxn_smarts="[O:1]([C@@:2]1([H:8])[C:3]([H:9])([H:10])[N:4]([H:11])[C:5]1=[O:6])[H:7]>>[O:1]([C:5]([C@:2]1([H:8])[C:3]([H:9])([H:10])[N:4]1[H:11])=[O:6])[H:7]"
O        1.21940720       0.67367300      -1.01673162
C       -0.18141467       0.68560044       0.36987534
C       -1.29939241      -0.26689780       0.37729861
N       -0.28132074      -1.14538133      -0.21256190
C        1.00544127      -0.28248145       0.22609805
O        1.92150977      -0.66565419       0.90576225
H        2.04930196       1.11821317      -0.79959358
H       -0.28711719       1.75940902       0.26025467
H       -1.62790931      -0.59999120       1.36307159
H       -2.14630692      -0.00994980      -0.25969214
H       -0.37219896      -1.26653987      -1.21378127
11
Frame=6 idx=001443 GeodesicLength=0.48957068985829166 rxn_smarts="[O:1]([C@@:2]1([H:8])[C:3]([H:9])([H:10])[N:4]([H:11])[C:5]1=[O:6])[H:7]>>[O:1]([C:5]([C@:2]1([H:8])[C:3]([H:9])([H:10])[N:4]1[H:11])=[O:6])[H:7]"
O        1.23100827       0.70321727      -1.01334424
C       -0.17381527       0.67498414       0.33816476
C       -1.30179571      -0.26756471       0.37829452
N       -0.29158374      -1.14693205      -0.21676969
C        1.01227754      -0.28775376       0.21989446
O        1.91716239      -0.67109242       0.91252104
H        2.06204047       1.13813361      -0.78230404
H       -0.29001099       1.74977912       0.25732050
H       -1.61726968      -0.58898222       1.37162687
H       -2.15266170      -0.00950405      -0.25256099
H       -0.39535158      -1.29428495      -1.21284319
11
Frame=7 idx=001443 GeodesicLength=0.5709591224003328 rxn_smarts="[O:1]([C@@:2]1([H:8])[C:3]([H:9])([H:10])[N:4]([H:11])[C:5]1=[O:6])[H:7]>>[O:1]([C:5]([C@:2]1([H:8])[C:3]([H:9])([H:10])[N:4]1[H:11])=[O:6])[H:7]"
O        1.24293241       0.73368682      -1.00964827
C       -0.16637288       0.66396791       0.30501855
C       -1.30390803      -0.26793866       0.37891792
N       -0.30197862      -1.14886883      -0.22105708
C        1.01911694      -0.29293699       0.21274328
O        1.91226242      -0.67603371       0.91892429
H        2.07455819       1.15899557      -0.76408436
H       -0.29198335       1.73922471       0.25587719
H       -1.60607740      -0.57709431       1.37970947
H       -2.15875731      -0.00890887      -0.24573819
H       -0.41979236      -1.32409364      -1.21066279
11
Frame=8 idx=001443 GeodesicLength=0.6522560611622552 rxn_smarts="[O:1]([C@@:2]1([H:8])[C:3]([H:9])([H:10])[N:4]([H:11])[C:5]1=[O:6])[H:7]>>[O:1]([C:5]([C@:2]1([H:8])[C:3]([H:9])([H:10])[N:4]1[H:11])=[O:6])[H:7]"
O        1.25516731       0.76515892      -1.00556948
C       -0.15909210       0.65253654       0.27023660
C       -1.30569488      -0.26798184       0.37911701
N       -0.31252634      -1.15120786      -0.22546597
C        1.02595452      -0.29802777       0.20457481
O        1.90676218      -0.68048344       0.92489616
H        2.08677876       1.18089169      -0.74477250
H       -0.29292513       1.72754062       0.25598618
H       -1.59423796      -0.56421865       1.38727639
H       -2.16459638      -0.00815240      -0.23923621
H       -0.44558998      -1.35605581      -1.20704299
11
Frame=9 idx=001443 GeodesicLength=0.7334702602589231 rxn_smarts="[O:1]([C@@:2]1([H:8])[C:3]([H:9])([H:10])[N:4]([H:11])[C:5]1=[O:6])[H:7]>>[O:1]([C:5]([C@:2]1([H:8])[C:3]([H:9])([H:10])[N:4]1[H:11])=[O:6])[H:7]"
O        1.26769943       0.79771198      -1.00099541
C       -0.15196025       0.64066683       0.23363599
C       -1.30710214      -0.26764721       0.37883928
N       -0.32324071      -1.15394182      -0.23005455
C        1.03278720      -0.30302610       0.19532801
O        1.90062511      -0.68448635       0.93032460
H        2.09860287       1.20392940      -0.72416679
H       -0.29280097       1.71444983       0.25761717
H       -1.58163381      -0.55023078       1.39427736
H       -2.17015356      -0.00717502      -0.23305152
H       -0.47282317      -1.39025077      -1.20175412
11
Frame=10 idx=001443 GeodesicLength=0.814564515297326 rxn_smarts="[O:1]([C@@:2]1([H:8])[C:3]([H:9])([H:10])[N:4]([H:11])[C:5]1=[O:6])[H:7]>>[O:1]([C:5]([C@:2]1([H:8])[C:3]([H:9])([H:10])[N:4]1[H:11])=[O:6])[H:7]"
O        1.28039776       0.83143426      -0.99582609
C       -0.14498402       0.62835737       0.19509768
C       -1.30808799      -0.26687244       0.37803018
N       -0.33413252      -1.15706744      -0.23484675
C        1.03960721      -0.30789425       0.18496546
O        1.89382492      -0.68801124       0.93513291
H        2.10991670       1.22808453      -0.70218599
H       -0.29141286       1.69965550       0.26079880
H       -1.56822319      -0.53509246       1.40060884
H       -2.17540347      -0.00596791      -0.22723882
H       -0.50150255      -1.42662592      -1.19453622
11
Frame=11 idx=001443 GeodesicLength=0.8955567756854226 rxn_smarts="[O:1]([C@@:2]1([H:8])[C:3]([H:9])([H:10])[N:4]([H:11])[C:5]1=[O:6])[H:7]>>[O:1]([C:5]([C@:2]1([H:8])[C:3]([H:9])([H:10])[N:4]1[H:11])=[O:6])[H:7]"
O        1.29318753       0.86639620      -0.98983995
C       -0.13808140       0.61557958       0.15464507
C       -1.30856349      -0.26559318       0.37666354
N       -0.34520443      -1.16051617      -0.23993369
C        1.04643762      -0.31265648       0.17347955
O        1.88642196      -0.69124501       0.93912140
H        2.12055099       1.25347062      -0.67855987
H       -0.28891198       1.68280849       0.26507942
H       -1.55389144      -0.51874721       1.40620534
H       -2.18025862      -0.00433331      -0.22175081
H       -0.53168674      -1.46516353      -1.18511000
11
Frame=12 idx=001443 GeodesicLength=0.9764314301835074 rxn_smarts="[O:1]([C@@:2]1([H:8])[C:3]([H:9])([H:10])[N:4]([H:11])[C:5]1=[O:6])[H:7]>>[O:1]([C:5]([C@:2]1([H:8])[C:3]([H:9])([H:10])[N:4]1[H:11])=[O:6])[H:7]"
O        1.30585964       0.90264538      -0.98286142
C       -0.13120087       0.60232485       0.11234904
C       -1.30845479      -0.26374523       0.37471457
N       -0.35645279      -1.16424096      -0.24535999
C        1.05329136      -0.31730404       0.16087116
O        1.87844446      -0.69424330       0.94218367
H        2.13029797       1.28003526      -0.65315950
H       -0.28517329       1.66360476       0.27010056
H       -1.53860648      -0.50125513       1.41096047
H       -2.18463671      -0.00220896      -0.21660888
H       -0.56336851      -1.50561264      -1.17318969
11
Frame=13 idx=001443 GeodesicLength=1.0572065094431575 rxn_smarts="[O:1]([C@@:2]1([H:8])[C:3]([H:9])([H:10])[N:4]([H:11])[C:5]1=[O:6])[H:7]>>[O:1]([C:5]([C@:2]1([H:8])[C:3]([H:9])([H:10])[N:4]1[H:11])=[O:6])[H:7]"
O        1.31816747       0.94017806      -0.97460757
C       -0.12418445       0.58859168       0.06860964
C       -1.30767127      -0.26128197       0.37219421
N       -0.36785120      -1.16812562      -0.25124490
C        1.06025375      -0.32189184       0.14723792
O        1.87011814      -0.69728627       0.94414234
H        2.13893043       1.30774857      -0.62582883
H       -0.28045649       1.64192642       0.27500241
H       -1.52235591      -0.48281172       1.41478247
H       -2.18840492       0.00068168      -0.21178326
H       -0.59654555      -1.54772898      -1.15850443
11
Frame=14 idx=001443 GeodesicLength=1.1378678711382408 rxn_smarts="[O:1]([C@@:2]1([H:8])[C:3]([H:9])([H:10])[N:4]([H:11])[C:5]1=[O:6])[H:7]>>[O:1]([C:5]([C@:2]1([H:8])[C:3]([H:9])([H:10])[N:4]1[H:11])=[O:6])[H:7]"
O        1.32977377       0.97890073      -0.96477928
C       -0.11682441       0.57436716       0.02404773
C       -1.30610972      -0.25817774       0.36913112
N       -0.37934664      -1.17195627      -0.25773886
C        1.06740345      -0.32648879       0.13271285
O        1.86167555      -0.70072209       0.94477602
H        2.14615688       1.33645574      -0.59651107
H       -0.27515537       1.61783812       0.27878467
H       -1.50520098      -0.46373199       1.41757983
H       -2.19132270       0.00468688      -0.20724626
H       -0.63104983      -1.59117175      -1.14075675
11
Frame=15 idx=001443 GeodesicLength=1.2184125253472036 rxn_smarts="[O:1]([C@@:2]1([H:8])[C:3]([H:9])([H:10])[N:4]([H:11])[C:5]1=[O:6])[H:7]>>[O:1]([C:5]([C@:2]1([H:8])[C:3]([H:9])([H:10])[N:4]1[H:11])=[O:6])[H:7]"
O        1.34028857       1.01861742      -0.95324472
C       -0.10897944       0.55969113      -0.02083545
C       -1.30373096      -0.25443979       0.36553078
N       -0.39091461      -1.17565722      -0.26496234
C        1.07483680      -0.33117158       0.11743381
O        1.85335272      -0.70473685       0.94408373
H        2.15171707       1.36589395      -0.56531605
H       -0.26939128       1.59167487       0.28086575
H       -1.48722856      -0.44435646       1.41928439
H       -2.19329626       0.00994878      -0.20305519
H       -0.66665405      -1.63546425      -1.11978471
11
Frame=16 idx=001443 GeodesicLength=1.2989005943373253 rxn_smarts="[O:1]([C@@:2]1([H:8])[C:3]([H:9])([H:10])[N:4]([H:11])[C:5]1=[O:6])[H:7]>>[O:1]([C:5]([C@:2]1([H:8])[C:3]([H:9])([H:10])[N:4]1[H:11])=[O:6])[H:7]"
O        1.34929508       1.05908261      -0.93995103
C       -0.10050052       0.54461658      -0.06552000
C       -1.30049694      -0.25013943       0.36131405
N       -0.40244362      -1.17906426      -0.27307289
C        1.08262132      -0.33594528       0.10158476
O        1.84529358      -0.70934988       0.94212562
H        2.15542050       1.39570687      -0.53267160
H       -0.26321436       1.56374000       0.28117007
H       -1.46864971      -0.42510121       1.41972466
H       -2.19409311       0.01657235      -0.19943505
H       -0.70323222      -1.68011834      -1.09526859
