15
Frame=0 idx=008786 GeodesicLength=0.0 rxn_smarts="[O:1]=[C:2]1[C:3]([H:8])([H:9])[C:4]([H:10])([H:11])[C:5]([H:12])([H:13])[C:6]([H:14])=[C:7]1[H:15]>>[O:1]=[C:2]([C:3]([C:4]([C:5]([H:12])([H:13])[H:14])([H:10])[H:11])([H:8])[H:9])[C:7](=[C:6])[H:15]"
O        0.85236542      -2.60164981       0.45514626
C        0.57788586      -1.44823359       0.22226870
C       -0.84767660      -0.96010813       0.30217573
C       -1.09624958       0.35391299      -0.42023346
C       -0.21718137       1.44341398       0.12597403
C        1.72690246       0.80829127      -0.32973699
C        1.65857423      -0.49889613      -0.15463455
H       -1.48394565      -1.76265222      -0.07238703
H       -1.08358802      -0.84849308       1.36667129
H       -0.92397552       0.24069434      -1.49477325
H       -2.14543652       0.64235870      -0.30544765
H       -0.48207208       2.43620087      -0.25033223
H       -0.14057877       1.47269025       1.21124963
H        0.99340772       1.72435495      -0.34628342
H        2.61156841      -1.00188444      -0.30965710
15
Frame=1 idx=008786 GeodesicLength=0.0792703539387333 rxn_smarts="[O:1]=[C:2]1[C:3]([H:8])([H:9])[C:4]([H:10])([H:11])[C:5]([H:12])([H:13])[C:6]([H:14])=[C:7]1[H:15]>>[O:1]=[C:2]([C:3]([C:4]([C:5]([H:12])([H:13])[H:14])([H:10])[H:11])([H:8])[H:9])[C:7](=[C:6])[H:15]"
O        0.86243828      -2.58968795       0.51953608
C        0.58231757      -1.44690539       0.24453237
C       -0.84653189      -0.96601659       0.29034029
C       -1.09603626       0.35794949      -0.41118894
C       -0.21116237       1.44742824       0.12634873
C        1.71142501       0.78955786      -0.39028090
C        1.65840548      -0.51067493      -0.17462702
H       -1.46517033      -1.76583207      -0.11947757
H       -1.11417061      -0.87966476       1.34947951
H       -0.94046070       0.25472268      -1.48959114
H       -2.14333056       0.64632913      -0.27912036
H       -0.48470175       2.43661364      -0.25421183
H       -0.14307109       1.48550169       1.21209935
H        1.01512684       1.75184828      -0.30842504
H        2.61492239      -1.01116933      -0.31541352
15
Frame=2 idx=008786 GeodesicLength=0.15839652590065723 rxn_smarts="[O:1]=[C:2]1[C:3]([H:8])([H:9])[C:4]([H:10])([H:11])[C:5]([H:12])([H:13])[C:6]([H:14])=[C:7]1[H:15]>>[O:1]=[C:2]([C:3]([C:4]([C:5]([H:12])([H:13])[H:14])([H:10])[H:11])([H:8])[H:9])[C:7](=[C:6])[H:15]"
O        0.87236829      -2.57570143       0.57927334
C        0.58666896      -1.44455060       0.26493505
C       -0.84504224      -0.97190492       0.27853462
C       -1.09704867       0.36204040      -0.40082461
C       -0.20513270       1.45165866       0.12576640
C        1.69281706       0.77040200      -0.44944888
C        1.65765340      -0.52221190      -0.19532695
H       -1.44448729      -1.76829684      -0.16630212
H       -1.14312460      -0.91224312       1.33115762
H       -0.96085898       0.26920553      -1.48312448
H       -2.14177103       0.65026504      -0.24896460
H       -0.48280546       2.43655285      -0.26357694
H       -0.14802603       1.50127032       1.21189853
H        1.03919937       1.77074820      -0.26756123
H        2.61958992      -1.01723420      -0.31643573
15
Frame=3 idx=008786 GeodesicLength=0.23760681582963517 rxn_smarts="[O:1]=[C:2]1[C:3]([H:8])([H:9])[C:4]([H:10])([H:11])[C:5]([H:12])([H:13])[C:6]([H:14])=[C:7]1[H:15]>>[O:1]=[C:2]([C:3]([C:4]([C:5]([H:12])([H:13])[H:14])([H:10])[H:11])([H:8])[H:9])[C:7](=[C:6])[H:15]"
O        0.88207275      -2.56023385       0.63501108
C        0.59095905      -1.44141113       0.28398612
C       -0.84325164      -0.97771942       0.26699243
C       -1.09877667       0.36611458      -0.38933210
C       -0.19919705       1.45622387       0.12461050
C        1.67253325       0.75142025      -0.50335349
C        1.65629332      -0.53378462      -0.21673711
H       -1.42224190      -1.76980415      -0.21246257
H       -1.17055955      -0.94592254       1.31188554
H       -0.98342491       0.28392663      -1.47526650
H       -2.14036186       0.65390591      -0.21619766
H       -0.47741322       2.43608642      -0.27745699
H       -0.15568134       1.52029486       1.21084332
H        1.06437492       1.78169497      -0.22643689
H        2.62467484      -1.02079179      -0.31608568
15
Frame=4 idx=008786 GeodesicLength=0.3170200807206678 rxn_smarts="[O:1]=[C:2]1[C:3]([H:8])([H:9])[C:4]([H:10])([H:11])[C:5]([H:12])([H:13])[C:6]([H:14])=[C:7]1[H:15]>>[O:1]=[C:2]([C:3]([C:4]([C:5]([H:12])([H:13])[H:14])([H:10])[H:11])([H:8])[H:9])[C:7](=[C:6])[H:15]"
O        0.89146633      -2.54335890       0.68777725
C        0.59511075      -1.43763033       0.30186380
C       -0.84124177      -0.98346249       0.25564524
C       -1.10090700       0.37015096      -0.37684173
C       -0.19332568       1.46103439       0.12316991
C        1.65135501       0.73270862      -0.55176937
C        1.65422590      -0.54575978      -0.23911424
H       -1.39858340      -1.77019636      -0.25811153
H       -1.19672130      -0.98067640       1.29152595
H       -1.00733227       0.29888053      -1.46602970
H       -2.13876849       0.65719693      -0.18136164
H       -0.46954361       2.43511379      -0.29455734
H       -0.16529886       1.54220430       1.20901318
H        1.08978418       1.78609818      -0.18640584
H        2.62978023      -1.02230344      -0.31480394
15
Frame=5 idx=008786 GeodesicLength=0.3966070303548067 rxn_smarts="[O:1]=[C:2]1[C:3]([H:8])([H:9])[C:4]([H:10])([H:11])[C:5]([H:12])([H:13])[C:6]([H:14])=[C:7]1[H:15]>>[O:1]=[C:2]([C:3]([C:4]([C:5]([H:12])([H:13])[H:14])([H:10])[H:11])([H:8])[H:9])[C:7](=[C:6])[H:15]"
O        0.90041797      -2.52537031       0.73806653
C        0.59911202      -1.43332600       0.31899323
C       -0.83902858      -0.98910994       0.24454585
C       -1.10311093       0.37406395      -0.36356444
C       -0.18759706       1.46610460       0.12158703
C        1.62990304       0.71436828      -0.59464228
C        1.65177713      -0.55801452      -0.26098898
H       -1.37362011      -1.76935262      -0.30313312
H       -1.22176815      -1.01632186       1.27003570
H       -1.03173070       0.31387974      -1.45551697
H       -2.13673392       0.65996166      -0.14520754
H       -0.46014937       2.43354184      -0.31409018
H       -0.17659813       1.56690355       1.20634209
H        1.11484696       1.78554648      -0.14779538
H        2.63427985      -1.02287485      -0.31463153
15
Frame=6 idx=008786 GeodesicLength=0.47635844334195754 rxn_smarts="[O:1]=[C:2]1[C:3]([H:8])([H:9])[C:4]([H:10])([H:11])[C:5]([H:12])([H:13])[C:6]([H:14])=[C:7]1[H:15]>>[O:1]=[C:2]([C:3]([C:4]([C:5]([H:12])([H:13])[H:14])([H:10])[H:11])([H:8])[H:9])[C:7](=[C:6])[H:15]"
O        0.90876908      -2.50656391       0.78604341
C        0.60290423      -1.42871567       0.33532373
C       -0.83663362      -0.99467178       0.23363847
C       -1.10524241       0.37782432      -0.34958213
C       -0.18200907       1.47141807       0.11987921
C        1.60841484       0.69630817      -0.63270581
C        1.64916720      -0.57043907      -0.28158703
H       -1.34756872      -1.76714975      -0.34749157
H       -1.24565551      -1.05276548       1.24733349
H       -1.05639969       0.32887164      -1.44377816
H       -2.13410036       0.66214288      -0.10791729
H       -0.44991977       2.43128325      -0.33544693
H       -0.18909902       1.59419541       1.20265745
H        1.13923498       1.78129607      -0.11076423
H        2.63813786      -1.02303414      -0.31560260
15
Frame=7 idx=008786 GeodesicLength=0.556276692040758 rxn_smarts="[O:1]=[C:2]1[C:3]([H:8])([H:9])[C:4]([H:10])([H:11])[C:5]([H:12])([H:13])[C:6]([H:14])=[C:7]1[H:15]>>[O:1]=[C:2]([C:3]([C:4]([C:5]([H:12])([H:13])[H:14])([H:10])[H:11])([H:8])[H:9])[C:7](=[C:6])[H:15]"
O        0.91640456      -2.48721457       0.83180317
C        0.60643295      -1.42401667       0.35075903
C       -0.83409227      -1.00016314       0.22286762
C       -1.10722432       0.38141413      -0.33494419
C       -0.17655667       1.47696561       0.11801774
C        1.58699977       0.67843469      -0.66670515
C        1.64655788      -0.58291872      -0.30049860
H       -1.32066924      -1.76350006      -0.39114368
H       -1.26831384      -1.08991271       1.22336714
H       -1.08127378       0.34380934      -1.43084151
H       -2.13076003       0.66371290      -0.06955011
H       -0.43933600       2.42827394      -0.35823987
H       -0.20241494       1.62389913       1.19776516
H        1.16279056       1.77430155      -0.07520314
H        2.64145539      -1.02308541      -0.31745361
15
Frame=8 idx=008786 GeodesicLength=0.6363066415955152 rxn_smarts="[O:1]=[C:2]1[C:3]([H:8])([H:9])[C:4]([H:10])([H:11])[C:5]([H:12])([H:13])[C:6]([H:14])=[C:7]1[H:15]>>[O:1]=[C:2]([C:3]([C:4]([C:5]([H:12])([H:13])[H:14])([H:10])[H:11])([H:8])[H:9])[C:7](=[C:6])[H:15]"
O        0.92323193      -2.46757393       0.87533388
C        0.60966044      -1.41939751       0.36521018
C       -0.83144045      -1.00558183       0.21219499
C       -1.10901589       0.38481930      -0.31966099
C       -0.17122828       1.48272386       0.11593781
C        1.56568138       0.66065718      -0.69733552
C        1.64405341      -0.59536476      -0.31760374
H       -1.29316412      -1.75828765      -0.43404916
H       -1.28967620      -1.12765801       1.19810319
H       -1.10637610       0.35865046      -1.41668423
H       -2.12661969       0.66465563      -0.03006834
H       -0.42871368       2.42443020      -0.38224656
H       -0.21624634       1.65582673       1.19144182
H        1.18545060       1.76519482      -0.04088012
H        2.64440298      -1.02309449      -0.31969321
15
Frame=9 idx=008786 GeodesicLength=0.716515711660827 rxn_smarts="[O:1]=[C:2]1[C:3]([H:8])([H:9])[C:4]([H:10])([H:11])[C:5]([H:12])([H:13])[C:6]([H:14])=[C:7]1[H:15]>>[O:1]=[C:2]([C:3]([C:4]([C:5]([H:12])([H:13])[H:14])([H:10])[H:11])([H:8])[H:9])[C:7](=[C:6])[H:15]"
O        0.92922656      -2.44763260       0.91703548
C        0.61253257      -1.41507546       0.37849701
C       -0.82873722      -1.01097151       0.20148619
C       -1.11058602       0.38803919      -0.30375470
C       -0.16599154       1.48864766       0.11363163
C        1.54446796       0.64288160      -0.72514181
C        1.64170342      -0.60776152      -0.33303709
H       -1.26527954      -1.75151829      -0.47625665
H       -1.30972203      -1.16589923       1.17143842
H       -1.13175653       0.37341551      -1.40130515
H       -2.12156891       0.66498124       0.01060677
H       -0.41828110       2.41968759      -0.40721121
H       -0.23031292       1.68976135       1.18354933
H        1.20718659       1.75450518      -0.00757862
H        2.64711870      -1.02306070      -0.32195960
15
Frame=10 idx=008786 GeodesicLength=0.796842183733397 rxn_smarts="[O:1]=[C:2]1[C:3]([H:8])([H:9])[C:4]([H:10])([H:11])[C:5]([H:12])([H:13])[C:6]([H:14])=[C:7]1[H:15]>>[O:1]=[C:2]([C:3]([C:4]([C:5]([H:12])([H:13])[H:14])([H:10])[H:11])([H:8])[H:9])[C:7](=[C:6])[H:15]"
O        0.93431858      -2.42767422       0.95673987
C        0.61504210      -1.41118791       0.39058633
C       -0.82600837      -1.01631547       0.19076810
C       -1.11189120       0.39105569      -0.28724988
C       -0.16085161       1.49473853       0.11102418
C        1.52336471       0.62509293      -0.75052545
C        1.63956309      -0.62003918      -0.34684223
H       -1.23728075      -1.74313283      -0.51762925
H       -1.32836147      -1.20443490       1.14346299
H       -1.15737317       0.38800892      -1.38469332
H       -2.11550787       0.66467168       0.05243661
H       -0.40820409       2.41399683      -0.43308031
H       -0.24450307       1.72556353       1.17388115
H        1.22797320       1.74257418       0.02506314
H        2.64971991      -1.02291778      -0.32394192
15
Frame=11 idx=008786 GeodesicLength=0.8773462894185386 rxn_smarts="[O:1]=[C:2]1[C:3]([H:8])([H:9])[C:4]([H:10])([H:11])[C:5]([H:12])([H:13])[C:6]([H:14])=[C:7]1[H:15]>>[O:1]=[C:2]([C:3]([C:4]([C:5]([H:12])([H:13])[H:14])([H:10])[H:11])([H:8])[H:9])[C:7](=[C:6])[H:15]"
O        0.93849580      -2.40762596       0.99477950
C        0.61717200      -1.40782907       0.40145552
C       -0.82330205      -1.02163509       0.17993328
C       -1.11291757       0.39387088      -0.27012861
C       -0.15576956       1.50096239       0.10806960
C        1.50233607       0.60721679      -0.77392608
C        1.63764938      -0.63219277      -0.35922076
H       -1.20927134      -1.73310718      -0.55830450
H       -1.34567888      -1.24322261       1.11405762
H       -1.18334979       0.40246208      -1.36679040
H       -2.10830650       0.66372267       0.09560207
H       -0.39856777       2.40729277      -0.45976255
H       -0.25862959       1.76303113       1.16227870
H        1.24783500       1.72959783       0.05731495
H        2.65230481      -1.02254386      -0.32535835
15
Frame=12 idx=008786 GeodesicLength=0.958029214578871 rxn_smarts="[O:1]=[C:2]1[C:3]([H:8])([H:9])[C:4]([H:10])([H:11])[C:5]([H:12])([H:13])[C:6]([H:14])=[C:7]1[H:15]>>[O:1]=[C:2]([C:3]([C:4]([C:5]([H:12])([H:13])[H:14])([H:10])[H:11])([H:8])[H:9])[C:7](=[C:6])[H:15]"
O        0.94172170      -2.38750376       1.03125054
C        0.61889411      -1.40517109       0.41093612
C       -0.82065254      -1.02694369       0.16887541
C       -1.11362919       0.39648265      -0.25239007
C       -0.15071845       1.50727285       0.10469735
C        1.48130384       0.58917542      -0.79570957
C        1.63596870      -0.64423471      -0.37038140
H       -1.18149288      -1.72141860      -0.59829807
H       -1.36160702      -1.28209458       1.08319088
H       -1.20980159       0.41679553      -1.34751779
H       -2.09976501       0.66214026       0.14026829
H       -0.38945191       2.39949565      -0.48721324
H       -0.27251760       1.80196285       1.14854894
H        1.26675540       1.71567259       0.08942283
H        2.65499243      -1.02163137      -0.32568023
15
Frame=13 idx=008786 GeodesicLength=1.0389335109982 rxn_smarts="[O:1]=[C:2]1[C:3]([H:8])([H:9])[C:4]([H:10])([H:11])[C:5]([H:12])([H:13])[C:6]([H:14])=[C:7]1[H:15]>>[O:1]=[C:2]([C:3]([C:4]([C:5]([H:12])([H:13])[H:14])([H:10])[H:11])([H:8])[H:9])[C:7](=[C:6])[H:15]"
O        0.94397306      -2.36726849       1.06635012
C        0.62022695      -1.40324172       0.41913328
C       -0.81808397      -1.03222812       0.15758585
C       -1.11398194       0.39887762      -0.23404762
C       -0.14569742       1.51367606       0.10086595
C        1.46032636       0.57099088      -0.81602588
C        1.63454980      -0.65611355      -0.38039753
H       -1.15399612      -1.70805285      -0.63763854
H       -1.37624735      -1.32092566       1.05085637
H       -1.23667597       0.43095314      -1.32684448
H       -2.08974612       0.65988374       0.18643441
H       -0.38092184       2.39055809      -0.51541685
H       -0.28618057       1.84221107       1.13254727
H        1.28469168       1.70094695       0.12176429
H        2.65776346      -1.02026716      -0.32516665
15
Frame=14 idx=008786 GeodesicLength=1.120069221797681 rxn_smarts="[O:1]=[C:2]1[C:3]([H:8])([H:9])[C:4]([H:10])([H:11])[C:5]([H:12])([H:13])[C:6]([H:14])=[C:7]1[H:15]>>[O:1]=[C:2]([C:3]([C:4]([C:5]([H:12])([H:13])[H:14])([H:10])[H:11])([H:8])[H:9])[C:7](=[C:6])[H:15]"
O        0.94521504      -2.34690321       1.10017616
C        0.62117626      -1.40209478       0.42607782
C       -0.81560800      -1.03746451       0.14603995
C       -1.11392263       0.40105649      -0.21510775
C       -0.14069981       1.52016031       0.09651300
C        1.43939793       0.55264728      -0.83505090
C        1.63339140      -0.66780456      -0.38936512
H       -1.12684394      -1.69297147      -0.67633093
H       -1.38963463      -1.35957038       1.01704280
H       -1.26395923       0.44491191      -1.30470132
H       -2.07805115       0.65693944       0.23413964
H       -0.37305210       2.38042399      -0.54435304
H       -0.29958295       1.88357467       1.11410395
H        1.30156036       1.68550304       0.15462509
H        2.66061344      -1.01840822      -0.32380935
15
Frame=15 idx=008786 GeodesicLength=1.201395322510982 rxn_smarts="[O:1]=[C:2]1[C:3]([H:8])([H:9])[C:4]([H:10])([H:11])[C:5]([H:12])([H:13])[C:6]([H:14])=[C:7]1[H:15]>>[O:1]=[C:2]([C:3]([C:4]([C:5]([H:12])([H:13])[H:14])([H:10])[H:11])([H:8])[H:9])[C:7](=[C:6])[H:15]"
O        0.94542575      -2.32650325       1.13261974
C        0.62175655      -1.40182535       0.43170707
C       -0.81324601      -1.04261083       0.13426475
C       -1.11338779       0.40300970      -0.19566325
C       -0.13573641       1.52671304       0.09158474
C        1.41856002       0.53418333      -0.85290027
C        1.63250405      -0.67926651      -0.39741287
H       -1.10029437      -1.67622711      -0.71418989
H       -1.40169951      -1.39767524       0.98197390
H       -1.29151698       0.45858241      -1.28112683
H       -2.06451229       0.65330769       0.28321828
H       -0.36591904       2.36906349      -0.57396485
H       -0.31273787       1.92578769       1.09309783
H        1.31724078       1.66940810       0.18837452
H        2.66356312      -1.01594715      -0.32158285
15
Frame=16 idx=008786 GeodesicLength=1.2828741031116409 rxn_smarts="[O:1]=[C:2]1[C:3]([H:8])([H:9])[C:4]([H:10])([H:11])[C:5]([H:12])([H:13])[C:6]([H:14])=[C:7]1[H:15]>>[O:1]=[C:2]([C:3]([C:4]([C:5]([H:12])([H:13])[H:14])([H:10])[H:11])([H:8])[H:9])[C:7](=[C:6])[H:15]"
O        0.94462816      -2.30604377       1.16370746
C        0.62200473      -1.40245487       0.43604660
C       -0.81099823      -1.04761044       0.12231307
C       -1.11230739       0.40473950      -0.17582360
C       -0.13082230       1.53332949       0.08605426
C        1.39787530       0.51567454      -0.86963419
C        1.63186880      -0.69045320      -0.40467106
H       -1.07448325      -1.65789769      -0.75104206
H       -1.41243460      -1.43491214       0.94587653
H       -1.31914054       0.47188195      -1.25619019
H       -2.04898577       0.64900319       0.33340904
H       -0.35956637       2.35646829      -0.60416727
H       -0.32574783       1.96855391       1.06944493
H        1.33155707       1.65269067       0.22346501
H        2.66655223      -1.01296943      -0.31878853
