14
Frame=0 idx=011110 GeodesicLength=0.0 rxn_smarts="[C:1]1([H:8])([H:9])[C@:2]2([H:10])[C@@:3]3([H:11])[C@:4]2([H:12])[N:5]2[C@:6]1([H:13])[C@@:7]32[H:14]>>[C:1]1([H:9])=[C:6]([H:13])[C@@:7]2([H:14])[C@@:3]([H:11])([C:2]1([H:8])[H:10])[C:4]([H:12])=[N:5]2"
C        1.24329447      -0.23801905      -0.53442718
C        0.02944301      -1.06079007      -0.52682627
C       -1.13821954      -0.21524053      -0.20719079
C       -0.90820279      -0.50945794       1.23926754
N       -0.36192448       0.63352753       1.60617702
C        0.94579742       1.06645932      -0.09354522
C       -0.49282217       1.15441682       0.23489134
H        0.90181865      -0.27616371      -1.64446867
H        2.22979546      -0.68115381      -0.45952578
H       -0.01404002      -2.08593756      -0.86297879
H       -2.07908273      -0.31745968      -0.74254252
H       -0.98466598      -1.41989253       1.82535022
H        1.66107249       1.85840355       0.05547550
H       -1.03226385       2.09130770       0.11034356
14
Frame=1 idx=011110 GeodesicLength=0.06857560873648327 rxn_smarts="[C:1]1([H:8])([H:9])[C@:2]2([H:10])[C@@:3]3([H:11])[C@:4]2([H:12])[N:5]2[C@:6]1([H:13])[C@@:7]32[H:14]>>[C:1]1([H:9])=[C:6]([H:13])[C@@:7]2([H:14])[C@@:3]([H:11])([C:2]1([H:8])[H:10])[C:4]([H:12])=[N:5]2"
C        1.24641631      -0.23281262      -0.54042716
C        0.03123405      -1.05698136      -0.53197728
C       -1.13863794      -0.21116566      -0.21130825
C       -0.89728559      -0.51497637       1.23113511
N       -0.35144417       0.63211836       1.60031335
C        0.94527220       1.06421955      -0.08090912
C       -0.49678186       1.15710854       0.23095235
H        0.88761114      -0.29026228      -1.65907205
H        2.23253943      -0.67613520      -0.46106505
H       -0.00824155      -2.09034793      -0.84261709
H       -2.08139254      -0.31581983      -0.74188322
H       -0.99470178      -1.41848371       1.82425964
H        1.65873799       1.85764687       0.07078546
H       -1.03332567       2.09589165       0.11181331
14
Frame=2 idx=011110 GeodesicLength=0.13715317270408256 rxn_smarts="[C:1]1([H:8])([H:9])[C@:2]2([H:10])[C@@:3]3([H:11])[C@:4]2([H:12])[N:5]2[C@:6]1([H:13])[C@@:7]32[H:14]>>[C:1]1([H:9])=[C:6]([H:13])[C@@:7]2([H:14])[C@@:3]([H:11])([C:2]1([H:8])[H:10])[C:4]([H:12])=[N:5]2"
C        1.24949253      -0.22734473      -0.54671289
C        0.03317767      -1.05328793      -0.53699814
C       -1.13891907      -0.20716676      -0.21530149
C       -0.88642284      -0.52062988       1.22301641
N       -0.34113757       0.63060050       1.59462940
C        0.94469891       1.06189462      -0.06834397
C       -0.50054998       1.15967314       0.22729817
H        0.87335382      -0.30513611      -1.67378764
H        2.23521832      -0.67085172      -0.46259600
H       -0.00220585      -2.09408787      -0.82253595
H       -2.08350231      -0.31416269      -0.74117989
H       -1.00522947      -1.41663088       1.82313972
H        1.65630828       1.85686619       0.08587327
H       -1.03428242       2.10026412       0.11349901
14
Frame=3 idx=011110 GeodesicLength=0.2057348486226992 rxn_smarts="[C:1]1([H:8])([H:9])[C@:2]2([H:10])[C@@:3]3([H:11])[C@:4]2([H:12])[N:5]2[C@:6]1([H:13])[C@@:7]32[H:14]>>[C:1]1([H:9])=[C:6]([H:13])[C@@:7]2([H:14])[C@@:3]([H:11])([C:2]1([H:8])[H:10])[C:4]([H:12])=[N:5]2"
C        1.25251617      -0.22161660      -0.55324791
C        0.03526778      -1.04970579      -0.54187699
C       -1.13907111      -0.20324167      -0.21916777
C       -0.87563380      -0.52640836       1.21492213
N       -0.33102114       0.62898518       1.58913126
C        0.94408240       1.05947808      -0.05583034
C       -0.50413855       1.16211602       0.22392239
H        0.85905744      -0.32082140      -1.68856833
H        2.23782328      -0.66530798      -0.46412228
H        0.00404187      -2.09717084      -0.80282253
H       -2.08541803      -0.31248874      -0.74043762
H       -1.01615147      -1.41431275       1.82197046
H        1.65378549       1.85606086       0.10074590
H       -1.03514036       2.10443400       0.11538164
14
Frame=4 idx=011110 GeodesicLength=0.2743399517294681 rxn_smarts="[C:1]1([H:8])([H:9])[C@:2]2([H:10])[C@@:3]3([H:11])[C@:4]2([H:12])[N:5]2[C@:6]1([H:13])[C@@:7]32[H:14]>>[C:1]1([H:9])=[C:6]([H:13])[C@@:7]2([H:14])[C@@:3]([H:11])([C:2]1([H:8])[H:10])[C:4]([H:12])=[N:5]2"
C        1.25548093      -0.21563197      -0.55998891
C        0.03749601      -1.04622840      -0.54660610
C       -1.13910400      -0.19938487      -0.22290719
C       -0.86494110      -0.53229919       1.20686182
N       -0.32111174       0.62728427       1.58382543
C        0.94342603       1.05696484      -0.04334987
C       -0.50755910       1.16444462       0.22081769
H        0.84473181      -0.33735251      -1.70336863
H        2.24034689      -0.65951072      -0.46564496
H        0.01047426      -2.09961633      -0.78355341
H       -2.08714772      -0.31079373      -0.73966513
H       -1.02735797      -1.41152114       1.82072875
H        1.65117034       1.85523139       0.11540836
H       -1.03590464       2.10841375       0.11744214
14
Frame=5 idx=011110 GeodesicLength=0.3429942650579069 rxn_smarts="[C:1]1([H:8])([H:9])[C@:2]2([H:10])[C@@:3]3([H:11])[C@:4]2([H:12])[N:5]2[C@:6]1([H:13])[C@@:7]32[H:14]>>[C:1]1([H:9])=[C:6]([H:13])[C@@:7]2([H:14])[C@@:3]([H:11])([C:2]1([H:8])[H:10])[C:4]([H:12])=[N:5]2"
C        1.25838410      -0.20939615      -0.56688884
C        0.03985542      -1.04284653      -0.55118316
C       -1.13902972      -0.19558712      -0.22652160
C       -0.85437055      -0.53829113       1.19884891
N       -0.31142680       0.62550724       1.57872304
C        0.94272996       1.05435051      -0.03088616
C       -0.51082397       1.16666892       0.21797626
H        0.83039748      -0.35476607      -1.71814751
H        2.24278340      -0.65346745      -0.46716750
H        0.01705775      -2.10144910      -0.76479148
H       -2.08870498      -0.30906754      -0.73887285
H       -1.03873054      -1.40825359       1.81938406
H        1.64846252       1.85437886       0.12986410
H       -1.03658406       2.11221916       0.11966274
14
Frame=6 idx=011110 GeodesicLength=0.4113211641618756 rxn_smarts="[C:1]1([H:8])([H:9])[C@:2]2([H:10])[C@@:3]3([H:11])[C@:4]2([H:12])[N:5]2[C@:6]1([H:13])[C@@:7]32[H:14]>>[C:1]1([H:9])=[C:6]([H:13])[C@@:7]2([H:14])[C@@:3]([H:11])([C:2]1([H:8])[H:10])[C:4]([H:12])=[N:5]2"
C        1.26118604      -0.20288776      -0.57399417
C        0.04232274      -1.03955051      -0.55560641
C       -1.13884963      -0.19184466      -0.23002359
C       -0.84394502      -0.54437763       1.19083205
N       -0.30197212       0.62365086       1.57378594
C        0.94201205       1.05162247      -0.01843052
C       -0.51393435       1.16878996       0.21539781
H        0.81608506      -0.37298786      -1.73274956
H        2.24509943      -0.64716941      -0.46877792
H        0.02378287      -2.10274987      -0.74646963
H       -2.09007223      -0.30731350      -0.73808130
H       -1.05023394      -1.40451681       1.81793996
H        1.64567663       1.85349492       0.14413436
H       -1.03715753       2.11583980       0.12204299
14
Frame=7 idx=011110 GeodesicLength=0.47976090874184885 rxn_smarts="[C:1]1([H:8])([H:9])[C@:2]2([H:10])[C@@:3]3([H:11])[C@:4]2([H:12])[N:5]2[C@:6]1([H:13])[C@@:7]32[H:14]>>[C:1]1([H:9])=[C:6]([H:13])[C@@:7]2([H:14])[C@@:3]([H:11])([C:2]1([H:8])[H:10])[C:4]([H:12])=[N:5]2"
C        1.26390768      -0.19613912      -0.58119700
C        0.04489890      -1.03633537      -0.55988106
C       -1.13858301      -0.18813997      -0.23341950
C       -0.83369244      -0.55052955       1.18286562
N       -0.29276822       0.62174051       1.56905375
C        0.94125564       1.04879444      -0.00597749
C       -0.51690809       1.17082629       0.21305783
H        0.80176245      -0.39213279      -1.74727083
H        2.24732609      -0.64061610      -0.47045021
H        0.03063926      -2.10350142      -0.72865611
H       -2.09128403      -0.30550248      -0.73730322
H       -1.06171557      -1.40034565       1.81635407
H        1.64281006       1.85255770       0.15827460
H       -1.03764872       2.11932350       0.12454956
14
Frame=8 idx=011110 GeodesicLength=0.5482357059330998 rxn_smarts="[C:1]1([H:8])([H:9])[C@:2]2([H:10])[C@@:3]3([H:11])[C@:4]2([H:12])[N:5]2[C@:6]1([H:13])[C@@:7]32[H:14]>>[C:1]1([H:9])=[C:6]([H:13])[C@@:7]2([H:14])[C@@:3]([H:11])([C:2]1([H:8])[H:10])[C:4]([H:12])=[N:5]2"
C        1.26653056      -0.18913328      -0.58849333
C        0.04757380      -1.03318336      -0.56399925
C       -1.13823850      -0.18446167      -0.23671922
C       -0.82363881      -0.55673606       1.17493531
N       -0.28381925       0.61978099       1.56451229
C        0.94046383       1.04586062       0.00647610
C       -0.51975423       1.17279187       0.21094819
H        0.78743662      -0.41223728      -1.76163186
H        2.24945816      -0.63378298      -0.47224988
H        0.03761717      -2.10375900      -0.71133757
H       -2.09234582      -0.30363033      -0.73655670
H       -1.07310736      -1.39574704       1.81460057
H        1.63987625       1.85155397       0.17233671
H       -1.03805242       2.12268355       0.12717864
14
Frame=9 idx=011110 GeodesicLength=0.6166152292243394 rxn_smarts="[C:1]1([H:8])([H:9])[C@:2]2([H:10])[C@@:3]3([H:11])[C@:4]2([H:12])[N:5]2[C@:6]1([H:13])[C@@:7]32[H:14]>>[C:1]1([H:9])=[C:6]([H:13])[C@@:7]2([H:14])[C@@:3]([H:11])([C:2]1([H:8])[H:10])[C:4]([H:12])=[N:5]2"
C        1.26904201      -0.18187530      -0.59587698
C        0.05033633      -1.03009696      -0.56797351
C       -1.13781749      -0.18080566      -0.23993335
C       -0.81379758      -0.56298585       1.16702595
N       -0.27512627       0.61777293       1.56015377
C        0.93964333       1.04281562       0.01892936
C       -0.52247527       1.17468875       0.20906441
H        0.77311449      -0.43322785      -1.77576262
H        2.25149166      -0.62667707      -0.47423616
H        0.04471705      -2.10357759      -0.69445930
H       -2.09325089      -0.30168925      -0.73585990
H       -1.08439230      -1.39074212       1.81267823
H        1.63687954       1.85047665       0.18632781
H       -1.03836461       2.12592368       0.12992230
14
Frame=10 idx=011110 GeodesicLength=0.6850072867966336 rxn_smarts="[C:1]1([H:8])([H:9])[C@:2]2([H:10])[C@@:3]3([H:11])[C@:4]2([H:12])[N:5]2[C@:6]1([H:13])[C@@:7]32[H:14]>>[C:1]1([H:9])=[C:6]([H:13])[C@@:7]2([H:14])[C@@:3]([H:11])([C:2]1([H:8])[H:10])[C:4]([H:12])=[N:5]2"
C        1.27143736      -0.17437186      -0.60331035
C        0.05317489      -1.02705277      -0.57180562
C       -1.13733579      -0.17714895      -0.24307428
C       -0.80419573      -0.56925840       1.15914048
N       -0.26669880       0.61572766       1.55597641
C        0.93878573       1.03966886       0.03138244
C       -0.52508340       1.17653509       0.20739009
H        0.75879279      -0.45519514      -1.78963924
H        2.25343159      -0.61928334      -0.47640771
H        0.05191651      -2.10295497      -0.67802368
H       -2.09402140      -0.29965564      -0.73522749
H       -1.09544297      -1.38539313       1.81054522
H        1.63382851       1.84931082       0.20028487
H       -1.03858926       2.12907177       0.13276888
14
Frame=11 idx=011110 GeodesicLength=0.7533769400650415 rxn_smarts="[C:1]1([H:8])([H:9])[C@:2]2([H:10])[C@@:3]3([H:11])[C@:4]2([H:12])[N:5]2[C@:6]1([H:13])[C@@:7]32[H:14]>>[C:1]1([H:9])=[C:6]([H:13])[C@@:7]2([H:14])[C@@:3]([H:11])([C:2]1([H:8])[H:10])[C:4]([H:12])=[N:5]2"
C        1.27370882      -0.16662212      -0.61077340
C        0.05608133      -1.02404823      -0.57550465
C       -1.13679859      -0.17348193      -0.24615371
C       -0.79485136      -0.57553978       1.15127351
N       -0.25854212       0.61365502       1.55197825
C        0.93789436       1.03641821       0.04383232
C       -0.52758385       1.17834530       0.20591620
H        0.74447245      -0.47811768      -1.80321467
H        2.25528506      -0.61160341      -0.47881136
H        0.05921287      -2.10194228      -0.66200605
H       -2.09466001      -0.29751673      -0.73467798
H       -1.10622526      -1.37974928       1.80820922
H        1.63072750       1.84805370       0.21422612
H       -1.03872119       2.13214921       0.13570619
14
Frame=12 idx=011110 GeodesicLength=0.8217029091684315 rxn_smarts="[C:1]1([H:8])([H:9])[C@:2]2([H:10])[C@@:3]3([H:11])[C@:4]2([H:12])[N:5]2[C@:6]1([H:13])[C@@:7]32[H:14]>>[C:1]1([H:9])=[C:6]([H:13])[C@@:7]2([H:14])[C@@:3]([H:11])([C:2]1([H:8])[H:10])[C:4]([H:12])=[N:5]2"
C        1.27584662      -0.15862780      -0.61823523
C        0.05904366      -1.02107219      -0.57907535
C       -1.13621169      -0.16979554      -0.24918337
C       -0.78577514      -0.58180904       1.14341051
N       -0.25065399       0.61156326       1.54814561
C        0.93697000       1.03305756       0.05627642
C       -0.52997921       1.18012264       0.20462843
H        0.73013964      -0.50197155      -1.81642583
H        2.25705332      -0.60363559      -0.48146639
H        0.06659126      -2.10056084      -0.64638727
H       -2.09517251      -0.29526221      -0.73422688
H       -1.11668022      -1.37386063       1.80566063
H        1.62757983       1.84669255       0.22816357
H       -1.03875157       2.13515937       0.13871515
14
Frame=13 idx=011110 GeodesicLength=0.8900202064994737 rxn_smarts="[C:1]1([H:8])([H:9])[C@:2]2([H:10])[C@@:3]3([H:11])[C@:4]2([H:12])[N:5]2[C@:6]1([H:13])[C@@:7]32[H:14]>>[C:1]1([H:9])=[C:6]([H:13])[C@@:7]2([H:14])[C@@:3]([H:11])([C:2]1([H:8])[H:10])[C:4]([H:12])=[N:5]2"
C        1.27785234      -0.15039449      -0.62568983
C        0.06205978      -1.01811791      -0.58253073
C       -1.13558262      -0.16607618      -0.25217211
C       -0.77697769      -0.58805907       1.13555650
N       -0.24303409       0.60945799       1.54448112
C        0.93600966       1.02960193       0.06870267
C       -0.53227893       1.18188640       0.20351922
H        0.71579094      -0.52680258      -1.82925712
H        2.25875303      -0.59536589      -0.48441408
H        0.07406208      -2.09883006      -0.63112854
H       -2.09557121      -0.29287576      -0.73388212
H       -1.12679281      -1.36777387       1.80287934
H        1.62440032       1.84521749       0.24213705
H       -1.03869080       2.13813201       0.14179862
14
Frame=14 idx=011110 GeodesicLength=0.9583294698143766 rxn_smarts="[C:1]1([H:8])([H:9])[C@:2]2([H:10])[C@@:3]3([H:11])[C@:4]2([H:12])[N:5]2[C@:6]1([H:13])[C@@:7]32[H:14]>>[C:1]1([H:9])=[C:6]([H:13])[C@@:7]2([H:14])[C@@:3]([H:11])([C:2]1([H:8])[H:10])[C:4]([H:12])=[N:5]2"
C        1.27971740      -0.14191793      -0.63312959
C        0.06512690      -1.01517516      -0.58588161
C       -1.13490982      -0.16231705      -0.25513544
C       -0.76846264      -0.59428504       1.12769621
N       -0.23567582       0.60733490       1.54097414
C        0.93501074       1.02604798       0.08110401
C       -0.53448559       1.18363738       0.20257796
H        0.70139874      -0.55261166      -1.84166134
H        2.26038872      -0.58677342      -0.48768950
H        0.08162626      -2.09676630      -0.61619758
H       -2.09585377      -0.29035245      -0.73366038
H       -1.13654119      -1.36149173       1.79986226
H        1.62119542       1.84360420       0.25618864
H       -1.03853537       2.14106627       0.14495223
14
Frame=15 idx=011110 GeodesicLength=1.0266197251177323 rxn_smarts="[C:1]1([H:8])([H:9])[C@:2]2([H:10])[C@@:3]3([H:11])[C@:4]2([H:12])[N:5]2[C@:6]1([H:13])[C@@:7]32[H:14]>>[C:1]1([H:9])=[C:6]([H:13])[C@@:7]2([H:14])[C@@:3]([H:11])([C:2]1([H:8])[H:10])[C:4]([H:12])=[N:5]2"
C        1.28144565      -0.13321351      -0.64051203
C        0.06823249      -1.01223069      -0.58914639
C       -1.13420022      -0.15850466      -0.25807907
C       -0.76022652      -0.60046457       1.11982523
N       -0.22857451       0.60521056       1.53761695
C        0.93397114       1.02240379       0.09346608
C       -0.53660352       1.18538915       0.20179139
H        0.68696094      -0.57936797      -1.85359590
H        2.26195609      -0.57789497      -0.49124200
H        0.08926072      -2.09437719      -0.60161050
H       -2.09603191      -0.28768098      -0.73355897
H       -1.14586798      -1.35511259       1.79660430
H        1.61796169       1.84186330       0.27028117
H       -1.03828407       2.14398033       0.14815974
14
Frame=16 idx=011110 GeodesicLength=1.0949006309328606 rxn_smarts="[C:1]1([H:8])([H:9])[C@:2]2([H:10])[C@@:3]3([H:11])[C@:4]2([H:12])[N:5]2[C@:6]1([H:13])[C@@:7]32[H:14]>>[C:1]1([H:9])=[C:6]([H:13])[C@@:7]2([H:14])[C@@:3]([H:11])([C:2]1([H:8])[H:10])[C:4]([H:12])=[N:5]2"
C        1.28304132      -0.12428038      -0.64783148
C        0.07137760      -1.00928061      -0.59234051
C       -1.13345715      -0.15463336      -0.26101354
C       -0.75227277      -0.60660050       1.11193345
N       -0.22172191       0.60307992       1.53440426
C        0.93289446       1.01867525       0.10578114
C       -0.53863783       1.18715020       0.20115566
H        0.67245574      -0.60708354      -1.86502693
H        2.26347438      -0.56871704      -0.49509287
H        0.09696909      -2.09168466      -0.58734231
H       -2.09611513      -0.28485295      -0.73358618
H       -1.15477840      -1.34865522       1.79309942
H        1.61471060       1.83999543       0.28443210
H       -1.03794000       2.14688746       0.15142779
