14
Frame=0 idx=006194 GeodesicLength=0.0 rxn_smarts="[C:1]1([H:7])([H:8])[C:2]([H:9])([H:10])[C:3]1([C@@:4]1([H:12])[C:5]([H:13])([H:14])[O:6]1)[H:11]>>[C:1]1([H:7])([H:8])[C:2]([H:9])([H:10])[C:3]1([C:4][C:5]([O:6][H:12])([H:13])[H:14])[H:11]"
C       -1.68644379      -0.22920603      -0.31077185
C       -1.31333639       1.20159022      -0.34506721
C       -0.39230220       0.19869769       0.34024917
C        0.85478835      -0.03916181      -0.37200654
C        2.05306904      -0.34325237       0.43554761
O        1.58142529      -1.63630354       0.04833855
H       -1.60554561      -0.80067571      -1.22524707
H       -2.47684403      -0.54044535       0.35863368
H       -1.83139104       1.89444026       0.30352029
H       -0.96288525       1.61580066      -1.28019247
H       -0.38453321       0.22794537       1.42664639
H        1.14632023      -1.23750312      -0.94043102
H        3.03751506      -0.08912001       0.04522134
H        1.98016350      -0.22280623       1.51555913
14
Frame=1 idx=006194 GeodesicLength=0.04100735450901043 rxn_smarts="[C:1]1([H:7])([H:8])[C:2]([H:9])([H:10])[C:3]1([C@@:4]1([H:12])[C:5]([H:13])([H:14])[O:6]1)[H:11]>>[C:1]1([H:7])([H:8])[C:2]([H:9])([H:10])[C:3]1([C:4][C:5]([O:6][H:12])([H:13])[H:14])[H:11]"
C       -1.69062692      -0.22700071      -0.30593892
C       -1.31096748       1.20172704      -0.34801181
C       -0.39381334       0.19904705       0.34251619
C        0.85177515      -0.05018293      -0.36652175
C        2.05043139      -0.34679398       0.44029481
O        1.60006485      -1.64033669       0.03527287
H       -1.61249126      -0.80391017      -1.21721397
H       -2.48169153      -0.53152237       0.36576377
H       -1.82595016       1.90018102       0.29704834
H       -0.95987272       1.60960210      -1.28570137
H       -0.38619012       0.23313840       1.42880846
H        1.15648321      -1.23984018      -0.95966083
H        3.02856580      -0.06614537       0.05181074
H        1.97428314      -0.23796322       1.52153348
14
Frame=2 idx=006194 GeodesicLength=0.08205332905177772 rxn_smarts="[C:1]1([H:7])([H:8])[C:2]([H:9])([H:10])[C:3]1([C@@:4]1([H:12])[C:5]([H:13])([H:14])[O:6]1)[H:11]>>[C:1]1([H:7])([H:8])[C:2]([H:9])([H:10])[C:3]1([C:4][C:5]([O:6][H:12])([H:13])[H:14])[H:11]"
C       -1.69485266      -0.22479662      -0.30078217
C       -1.30854973       1.20174308      -0.35119105
C       -0.39529229       0.19951645       0.34485297
C        0.84865152      -0.06146529      -0.36089985
C        2.04769339      -0.35060640       0.44512466
O        1.61923324      -1.64398136       0.02139638
H       -1.61959425      -0.80748908      -1.20859414
H       -2.48652540      -0.52226090       0.37335809
H       -1.82032294       1.90605419       0.29008927
H       -0.95687564       1.60287854      -1.29159154
H       -0.38769329       0.23882684       1.43100379
H        1.16703639      -1.24126167      -0.97957205
H        3.01890524      -0.04292786       0.05927520
H        1.96818642      -0.25422992       1.52753046
14
Frame=3 idx=006194 GeodesicLength=0.12318823718088254 rxn_smarts="[C:1]1([H:7])([H:8])[C:2]([H:9])([H:10])[C:3]1([C@@:4]1([H:12])[C:5]([H:13])([H:14])[O:6]1)[H:11]>>[C:1]1([H:7])([H:8])[C:2]([H:9])([H:10])[C:3]1([C:4][C:5]([O:6][H:12])([H:13])[H:14])[H:11]"
C       -1.69914175      -0.22259906      -0.29524223
C       -1.30609498       1.20162813      -0.35464788
C       -0.39673219       0.20013311       0.34726352
C        0.84542267      -0.07301188      -0.35512612
C        2.04485178      -0.35474428       0.45006309
O        1.63899515      -1.64721226       0.00656531
H       -1.62689367      -0.81149035      -1.19927744
H       -2.49136417      -0.51260107       0.38150252
H       -1.81450130       1.91210386       0.28255478
H       -0.95392884       1.59554715      -1.29793636
H       -0.38901377       0.24510560       1.43322766
H        1.17806647      -1.24162303      -1.00026830
H        3.00852662      -0.01942656       0.06776606
H        1.96180799      -0.27180935       1.53355537
14
Frame=4 idx=006194 GeodesicLength=0.16430841755586895 rxn_smarts="[C:1]1([H:7])([H:8])[C:2]([H:9])([H:10])[C:3]1([C@@:4]1([H:12])[C:5]([H:13])([H:14])[O:6]1)[H:11]>>[C:1]1([H:7])([H:8])[C:2]([H:9])([H:10])[C:3]1([C:4][C:5]([O:6][H:12])([H:13])[H:14])[H:11]"
C       -1.70344679      -0.22043129      -0.28923141
C       -1.30359443       1.20132318      -0.35846708
C       -0.39809856       0.20095732       0.34975160
C        0.84209275      -0.08477724      -0.34917834
C        2.04185333      -0.35928027       0.45516369
O        1.65934296      -1.64983197      -0.00941752
H       -1.63434493      -0.81602450      -1.18909388
H       -2.49611640      -0.50249767       0.39033029
H       -1.80845488       1.91831185       0.27428547
H       -0.95107746       1.58743952      -1.30487154
H       -0.39007434       0.25213617       1.43547587
H        1.18954646      -1.24053054      -1.02188022
H        2.99724050       0.00424803       0.07751674
H        1.95513179      -0.29104260       1.53961633
14
Frame=5 idx=006194 GeodesicLength=0.2054832390951982 rxn_smarts="[C:1]1([H:7])([H:8])[C:2]([H:9])([H:10])[C:3]1([C@@:4]1([H:12])[C:5]([H:13])([H:14])[O:6]1)[H:11]>>[C:1]1([H:7])([H:8])[C:2]([H:9])([H:10])[C:3]1([C:4][C:5]([O:6][H:12])([H:13])[H:14])[H:11]"
C       -1.70781159      -0.21824523      -0.28282548
C       -1.30100961       1.20083962      -0.36255799
C       -0.39942321       0.20188645       0.35229999
C        0.83860288      -0.09694757      -0.34309636
C        2.03871398      -0.36413686       0.46033545
O        1.68035105      -1.65190190      -0.02630846
H       -1.64202667      -0.82092041      -1.17818620
H       -2.50086342      -0.49193263       0.39970756
H       -1.80213110       1.92463955       0.26543056
H       -0.94821484       1.57865235      -1.31222917
H       -0.39093872       0.25973454       1.43771405
H        1.20152538      -1.23829703      -1.04421386
H        2.98510790       0.02817855       0.08834700
H        1.94811796      -0.31154943       1.54558291
14
Frame=6 idx=006194 GeodesicLength=0.2468390509500884 rxn_smarts="[C:1]1([H:7])([H:8])[C:2]([H:9])([H:10])[C:3]1([C@@:4]1([H:12])[C:5]([H:13])([H:14])[O:6]1)[H:11]>>[C:1]1([H:7])([H:8])[C:2]([H:9])([H:10])[C:3]1([C:4][C:5]([O:6][H:12])([H:13])[H:14])[H:11]"
C       -1.71224135      -0.21606930      -0.27592532
C       -1.29838727       1.20016029      -0.36702681
C       -0.40067457       0.20301109       0.35491229
C        0.83498266      -0.10945651      -0.33684455
C        2.03543446      -0.36942648       0.46566004
O        1.70206980      -1.65332991      -0.04437323
H       -1.64996416      -0.82634339      -1.16635863
H       -2.50556712      -0.48086037       0.40979137
H       -1.79556092       1.93115181       0.25579353
H       -0.94545912       1.56904182      -1.32017936
H       -0.39150931       0.26812242       1.43994088
H        1.21404935      -1.23456023      -1.06747928
H        2.97205686       0.05230130       0.10056284
H        1.94077071      -0.33374253       1.55152624
14
Frame=7 idx=006194 GeodesicLength=0.28810319947533647 rxn_smarts="[C:1]1([H:7])([H:8])[C:2]([H:9])([H:10])[C:3]1([C@@:4]1([H:12])[C:5]([H:13])([H:14])[O:6]1)[H:11]>>[C:1]1([H:7])([H:8])[C:2]([H:9])([H:10])[C:3]1([C:4][C:5]([O:6][H:12])([H:13])[H:14])[H:11]"
C       -1.71671392      -0.21391939      -0.26843376
C       -1.29571545       1.19921854      -0.37195750
C       -0.40182240       0.20437249       0.35757916
C        0.83122478      -0.12233733      -0.33042553
C        2.03196433      -0.37524460       0.47116406
O        1.72454200      -1.65386326      -0.06376869
H       -1.65816104      -0.83239920      -1.15342382
H       -2.51017241      -0.46920294       0.42072637
H       -1.78870021       1.93783446       0.24521332
H       -0.94283266       1.55842328      -1.32884480
H       -0.39171183       0.27746724       1.44212531
H        1.22716713      -1.22886140      -1.09170393
H        2.95792382       0.07650030       0.11443034
H        1.93300786      -0.35798818       1.55731948
14
Frame=8 idx=006194 GeodesicLength=0.32947525991330134 rxn_smarts="[C:1]1([H:7])([H:8])[C:2]([H:9])([H:10])[C:3]1([C@@:4]1([H:12])[C:5]([H:13])([H:14])[O:6]1)[H:11]>>[C:1]1([H:7])([H:8])[C:2]([H:9])([H:10])[C:3]1([C:4][C:5]([O:6][H:12])([H:13])[H:14])[H:11]"
C       -1.72126134      -0.21175804      -0.26039987
C       -1.29297437       1.19801873      -0.37730079
C       -0.40288091       0.20590493       0.36028398
C        0.82728214      -0.13572474      -0.32385439
C        2.02831918      -0.38154042       0.47679909
O        1.74784215      -1.65351840      -0.08435176
H       -1.66668240      -0.83897581      -1.13946076
H       -2.51472328      -0.45693231       0.43242168
H       -1.78151056       1.94465876       0.23376886
H       -0.94028659       1.54684427      -1.33812290
H       -0.39155927       0.28764872       1.44423509
H        1.24088690      -1.22138936      -1.11678937
H        2.94269983       0.10080302       0.12986241
H        1.92484853      -0.38403937       1.56290872
14
Frame=9 idx=006194 GeodesicLength=0.3709361784102528 rxn_smarts="[C:1]1([H:7])([H:8])[C:2]([H:9])([H:10])[C:3]1([C@@:4]1([H:12])[C:5]([H:13])([H:14])[O:6]1)[H:11]>>[C:1]1([H:7])([H:8])[C:2]([H:9])([H:10])[C:3]1([C:4][C:5]([O:6][H:12])([H:13])[H:14])[H:11]"
C       -1.72591577      -0.20955469      -0.25190469
C       -1.29011655       1.19655052      -0.38299946
C       -0.40386767       0.20750785       0.36300720
C        0.82309762      -0.14980849      -0.31714744
C        2.02452260      -0.38824123       0.48250932
O        1.77202270      -1.65219494      -0.10588284
H       -1.67559745      -0.84593959      -1.12460254
H       -2.51927432      -0.44403911       0.44474155
H       -1.77391714       1.95156633       0.22156519
H       -0.93772036       1.53435974      -1.34789229
H       -0.39107247       0.29849009       1.44624345
H        1.25512744      -1.21225659      -1.14251835
H        2.92629115       0.12516388       0.14669947
H        1.91642023      -0.41160378       1.56818144
14
Frame=10 idx=006194 GeodesicLength=0.4123935570980052 rxn_smarts="[C:1]1([H:7])([H:8])[C:2]([H:9])([H:10])[C:3]1([C@@:4]1([H:12])[C:5]([H:13])([H:14])[O:6]1)[H:11]>>[C:1]1([H:7])([H:8])[C:2]([H:9])([H:10])[C:3]1([C:4][C:5]([O:6][H:12])([H:13])[H:14])[H:11]"
C       -1.73069163      -0.20725060      -0.24305420
C       -1.28709829       1.19481140      -0.38898056
C       -0.40480866       0.20904207       0.36572598
C        0.81857969      -0.16481193      -0.31029621
C        2.02059111      -0.39525986       0.48822098
O        1.79718561      -1.64979117      -0.12803323
H       -1.68496228      -0.85308116      -1.10900656
H       -2.52384154      -0.43049415       0.45749173
H       -1.76584066       1.95848654       0.20871840
H       -0.93505350       1.52106019      -1.35798338
H       -0.39027749       0.30972169       1.44809879
H        1.26979847      -1.20163191      -1.16855862
H        2.90852248       0.14953826       0.16467744
H        1.90789668      -0.44033936       1.57297943
14
Frame=11 idx=006194 GeodesicLength=0.45407652595673553 rxn_smarts="[C:1]1([H:7])([H:8])[C:2]([H:9])([H:10])[C:3]1([C@@:4]1([H:12])[C:5]([H:13])([H:14])[O:6]1)[H:11]>>[C:1]1([H:7])([H:8])[C:2]([H:9])([H:10])[C:3]1([C:4][C:5]([O:6][H:12])([H:13])[H:14])[H:11]"
C       -1.73558445      -0.20491072      -0.23365473
C       -1.28391666       1.19274179      -0.39541336
C       -0.40564483       0.21064088       0.36844609
C        0.81377740      -0.18066570      -0.30329305
C        2.01646700      -0.40275160       0.49404048
O        1.82331838      -1.64614103      -0.15128880
H       -1.69480879      -0.86071657      -1.09234653
H       -2.52837625      -0.41621819       0.47101510
H       -1.75722810       1.96551358       0.19494505
H       -0.93235621       1.50665335      -1.36871643
H       -0.38904713       0.32173418       1.44983177
H        1.28499146      -1.18892787      -1.19531563
H        2.88933535       0.17391781       0.18433218
H        1.89907282      -0.47086990       1.57741787
14
Frame=12 idx=006194 GeodesicLength=0.495639431067188 rxn_smarts="[C:1]1([H:7])([H:8])[C:2]([H:9])([H:10])[C:3]1([C@@:4]1([H:12])[C:5]([H:13])([H:14])[O:6]1)[H:11]>>[C:1]1([H:7])([H:8])[C:2]([H:9])([H:10])[C:3]1([C:4][C:5]([O:6][H:12])([H:13])[H:14])[H:11]"
C       -1.74067982      -0.20238583      -0.22398393
C       -1.28046508       1.19032996      -0.40205792
C       -0.40647109       0.21196254       0.37112817
C        0.80852218      -0.19783970      -0.29610150
C        2.01223418      -0.41045037       0.49976859
O        1.85060337      -1.64111318      -0.17487293
H       -1.70528062      -0.86831508      -1.07504759
H       -2.53304286      -0.40112910       0.48478922
H       -1.74792596       1.97245188       0.18061163
H       -0.92936447       1.49137157      -1.37958597
H       -0.38755021       0.33382769       1.45132134
H        1.30053673      -1.17474571      -1.22201419
H        2.86852796       0.19828290       0.20490273
H        1.89035571      -0.50224758       1.58114234
14
Frame=13 idx=006194 GeodesicLength=0.5375164513772599 rxn_smarts="[C:1]1([H:7])([H:8])[C:2]([H:9])([H:10])[C:3]1([C@@:4]1([H:12])[C:5]([H:13])([H:14])[O:6]1)[H:11]>>[C:1]1([H:7])([H:8])[C:2]([H:9])([H:10])[C:3]1([C:4][C:5]([O:6][H:12])([H:13])[H:14])[H:11]"
C       -1.74598264      -0.19985963      -0.21363644
C       -1.27678188       1.18754448      -0.40927851
C       -0.40718784       0.21332450       0.37380761
C        0.80296731      -0.21613546      -0.28877723
C        2.00779856      -0.41871796       0.50563751
O        1.87907513      -1.63444704      -0.19974172
H       -1.71640954      -0.87663264      -1.05646865
H       -2.53779487      -0.38514777       0.49956353
H       -1.73792231       1.97963711       0.16514343
H       -0.92624903       1.47473545      -1.39131761
H       -0.38557733       0.34686480       1.45269416
H        1.31671797      -1.15789887      -1.24944218
H        2.84602159       0.22258318       0.22745162
H        1.88132489      -0.53585013       1.58436447
14
Frame=14 idx=006194 GeodesicLength=0.579415678698713 rxn_smarts="[C:1]1([H:7])([H:8])[C:2]([H:9])([H:10])[C:3]1([C@@:4]1([H:12])[C:5]([H:13])([H:14])[O:6]1)[H:11]>>[C:1]1([H:7])([H:8])[C:2]([H:9])([H:10])[C:3]1([C:4][C:5]([O:6][H:12])([H:13])[H:14])[H:11]"
C       -1.75139176      -0.19706582      -0.20277610
C       -1.27282486       1.18415340      -0.41697823
C       -0.40775631       0.21446207       0.37636732
C        0.79683454      -0.23585855      -0.28106658
C        2.00311206      -0.42743341       0.51155378
O        1.90875536      -1.62583138      -0.22544993
H       -1.72826077      -0.88497567      -1.03663867
H       -2.54232613      -0.36795755       0.51486560
H       -1.72702273       1.98654045       0.14852033
H       -0.92311394       1.45657488      -1.40346164
H       -0.38294247       0.36031806       1.45356627
H        1.33320282      -1.13844312      -1.27700985
H        2.82143571       0.24670698       0.25169893
H        1.87229848      -0.57119033       1.58680877
14
Frame=15 idx=006194 GeodesicLength=0.6215076169424975 rxn_smarts="[C:1]1([H:7])([H:8])[C:2]([H:9])([H:10])[C:3]1([C@@:4]1([H:12])[C:5]([H:13])([H:14])[O:6]1)[H:11]>>[C:1]1([H:7])([H:8])[C:2]([H:9])([H:10])[C:3]1([C:4][C:5]([O:6][H:12])([H:13])[H:14])[H:11]"
C       -1.75705461      -0.19411684      -0.19137886
C       -1.26849370       1.18023242      -0.42518146
C       -0.40822621       0.21531697       0.37884326
C        0.79020266      -0.25724282      -0.27308609
C        1.99824026      -0.43657373       0.51749180
O        1.93973329      -1.61507345      -0.25199137
H       -1.74098326      -0.89363372      -1.01563754
H       -2.54694638      -0.34961269       0.53084607
H       -1.71509992       1.99342923       0.13081063
H       -0.91968305       1.43691564      -1.41618408
H       -0.37979480       0.37423132       1.45411029
H        1.35001883      -1.11621008      -1.30468755
H        2.79472117       0.27061548       0.27761954
H        1.86336573      -0.60827773       1.58842538
14
Frame=16 idx=006194 GeodesicLength=0.6638214513572345 rxn_smarts="[C:1]1([H:7])([H:8])[C:2]([H:9])([H:10])[C:3]1([C@@:4]1([H:12])[C:5]([H:13])([H:14])[O:6]1)[H:11]>>[C:1]1([H:7])([H:8])[C:2]([H:9])([H:10])[C:3]1([C:4][C:5]([O:6][H:12])([H:13])[H:14])[H:11]"
C       -1.76301346      -0.19094169      -0.17962992
C       -1.26364517       1.17575403      -0.43377222
C       -0.40863778       0.21559926       0.38122124
C        0.78294336      -0.28067478      -0.26476181
C        1.99322355      -0.44592609       0.52335044
O        1.97198811      -1.60199895      -0.27893719
H       -1.75470444      -0.90232453      -0.99376060
H       -2.55172196      -0.33005798       0.54719818
H       -1.70189958       2.00019567       0.11222572
H       -0.91571967       1.41586094      -1.42924857
H       -0.37621318       0.38810067       1.45430995
H        1.36683010      -1.09145521      -1.33204107
H        2.76564547       0.29436321       0.30471525
H        1.85492466      -0.64649457       1.58913061
