16
Frame=0 idx=003240 GeodesicLength=0.0 rxn_smarts="[C:1]([C@@:2]1([H:10])[C:3]([H:11])([H:12])[C:4]([H:13])([H:14])[O:5][C:6]1([H:15])[H:16])([H:7])([H:8])[H:9]>>[C:1]([C:2]([C:3]([C:4]([O+:5]=[C-:6][H:16])([H:13])[H:14])([H:11])[H:12])([H:10])[H:15])([H:7])([H:8])[H:9]"
C        1.77646037      -0.14736856       0.05520215
C        0.53331749       0.70903661       0.14063714
C       -0.52839789       0.50942271      -0.92276422
C       -1.54611702      -0.53367735      -0.45177439
O       -1.82177253      -0.18497160       0.89407958
C       -0.71353486      -0.22111705       1.65935098
H        2.46154577       0.23685788      -0.70545172
H        2.31394675      -0.15744971       1.00539584
H        1.53574863      -1.18024403      -0.20294319
H        0.79914140       1.76612912       0.23308238
H       -1.05550886       1.44554129      -1.11138862
H       -0.07077522       0.18875861      -1.86250668
H       -1.12483075      -1.54630822      -0.49351180
H       -2.47697978      -0.50436268      -1.01914167
H        0.04040515       0.74427864       1.35613809
H       -0.12264869      -1.12452570       1.42559620
16
Frame=1 idx=003240 GeodesicLength=0.09869389110637883 rxn_smarts="[C:1]([C@@:2]1([H:10])[C:3]([H:11])([H:12])[C:4]([H:13])([H:14])[O:5][C:6]1([H:15])[H:16])([H:7])([H:8])[H:9]>>[C:1]([C:2]([C:3]([C:4]([O+:5]=[C-:6][H:16])([H:13])[H:14])([H:11])[H:12])([H:10])[H:15])([H:7])([H:8])[H:9]"
C        1.79709806      -0.12153840       0.05582581
C        0.52970002       0.69923005       0.14803937
C       -0.51707354       0.48362325      -0.92634299
C       -1.57201953      -0.51515043      -0.44799912
O       -1.82213607      -0.17961897       0.90672522
C       -0.70956481      -0.25727863       1.66126674
H        2.46727642       0.28047506      -0.70886869
H        2.34112300      -0.11483405       1.00231730
H        1.58471222      -1.16150811      -0.19906074
H        0.77034680       1.76309521       0.23704863
H       -1.01349070       1.42479986      -1.16705332
H       -0.05588269       0.11740447      -1.84773568
H       -1.19995452      -1.54565873      -0.50928844
H       -2.50973226      -0.43234008      -0.99918610
H        0.05120538       0.73172766       1.37839010
H       -0.14160777      -1.17242814       1.41592190
16
Frame=2 idx=003240 GeodesicLength=0.19663392710753508 rxn_smarts="[C:1]([C@@:2]1([H:10])[C:3]([H:11])([H:12])[C:4]([H:13])([H:14])[O:5][C:6]1([H:15])[H:16])([H:7])([H:8])[H:9]>>[C:1]([C:2]([C:3]([C:4]([O+:5]=[C-:6][H:16])([H:13])[H:14])([H:11])[H:12])([H:10])[H:15])([H:7])([H:8])[H:9]"
C        1.81789560      -0.09386757       0.05641665
C        0.52608821       0.68865571       0.15536252
C       -0.50542598       0.45577214      -0.92970371
C       -1.59816916      -0.49466585      -0.44406158
O       -1.82176849      -0.17551356       0.91984919
C       -0.70533803      -0.29562111       1.66185071
H        2.47142920       0.32535478      -0.71338325
H        2.36859955      -0.06793441       0.99869801
H        1.63563427      -1.14082025      -0.19352407
H        0.73978347       1.75898312       0.24114196
H       -0.96816821       1.39903379      -1.22427705
H       -0.04165912       0.04173775      -1.82952663
H       -1.27985165      -1.54139314      -0.52585539
H       -2.53958301      -0.35459683      -0.97768462
H        0.06249279       0.71726687       1.40071967
H       -0.16195946      -1.22239144       1.40397759
16
Frame=3 idx=003240 GeodesicLength=0.29367796905597876 rxn_smarts="[C:1]([C@@:2]1([H:10])[C:3]([H:11])([H:12])[C:4]([H:13])([H:14])[O:5][C:6]1([H:15])[H:16])([H:7])([H:8])[H:9]>>[C:1]([C:2]([C:3]([C:4]([O+:5]=[C-:6][H:16])([H:13])[H:14])([H:11])[H:12])([H:10])[H:15])([H:7])([H:8])[H:9]"
C        1.83863458      -0.06434925       0.05685139
C        0.52250941       0.67733660       0.16261319
C       -0.49348320       0.42583812      -0.93276419
C       -1.62419064      -0.47215175      -0.44000689
O       -1.82069868      -0.17299899       0.93327911
C       -0.70099459      -0.33611183       1.66096426
H        2.47371722       0.37120355      -0.71925447
H        2.39608054      -0.01665043       0.99430382
H        1.68821445      -1.11801033      -0.18633242
H        0.70745867       1.75368829       0.24529855
H       -0.91966351       1.36766539      -1.28270686
H       -0.02830278      -0.03808638      -1.80737747
H       -1.36409270      -1.53276180      -0.54323390
H       -2.56552828      -0.27115807      -0.95456328
H        0.07421952       0.70085161       1.42308131
H       -0.18388002      -1.27430474       1.38984787
16
Frame=4 idx=003240 GeodesicLength=0.3896811138890024 rxn_smarts="[C:1]([C@@:2]1([H:10])[C:3]([H:11])([H:12])[C:4]([H:13])([H:14])[O:5][C:6]1([H:15])[H:16])([H:7])([H:8])[H:9]>>[C:1]([C:2]([C:3]([C:4]([O+:5]=[C-:6][H:16])([H:13])[H:14])([H:11])[H:12])([H:10])[H:15])([H:7])([H:8])[H:9]"
C        1.85901503      -0.03306543       0.05696190
C        0.51899123       0.66530384       0.16979907
C       -0.48126988       0.39386066      -0.93541315
C       -1.64961199      -0.44763169      -0.43589974
O       -1.81900250      -0.17239595       0.94676944
C       -0.69674330      -0.37858229       1.65849877
H        2.47378834       0.41761211      -0.72677768
H        2.42318862       0.03908211       0.98880882
H        1.74199405      -1.09298764      -0.17758441
H        0.67347206       1.74710418       0.24944140
H       -0.86822005       1.33024924      -1.34164654
H       -0.01602178      -0.12171454      -1.78078508
H       -1.45192602      -1.51904088      -0.56148496
H       -2.58637240      -0.18235569      -0.92984976
H        0.08632777       0.68251486       1.44541992
H       -0.20760919      -1.32795288       1.37374201
16
Frame=5 idx=003240 GeodesicLength=0.4845128149748305 rxn_smarts="[C:1]([C@@:2]1([H:10])[C:3]([H:11])([H:12])[C:4]([H:13])([H:14])[O:5][C:6]1([H:15])[H:16])([H:7])([H:8])[H:9]>>[C:1]([C:2]([C:3]([C:4]([O+:5]=[C-:6][H:16])([H:13])[H:14])([H:11])[H:12])([H:10])[H:15])([H:7])([H:8])[H:9]"
C        1.87870752      -0.00020521       0.05655301
C        0.51556441       0.65264349       0.17692826
C       -0.46886797       0.36001030      -0.93754267
C       -1.67385680      -0.42125398      -0.43183841
O       -1.81680052      -0.17396491       0.95998347
C       -0.69282076      -0.42270508       1.65440168
H        2.47142113       0.46408847      -0.73612136
H        2.44940960       0.09887415       0.98192306
H        1.79642180      -1.06569959      -0.16759875
H        0.63803618       1.73915532       0.25345212
H       -0.81442486       1.28652177      -1.40031988
H       -0.00506214      -0.20833137      -1.74939216
H       -1.54215395      -1.49961822      -0.58057936
H       -2.60091557      -0.08894454      -0.90360598
H        0.09871423       0.66242740       1.46765181
H       -0.23337229      -1.38299802       1.35610516
16
Frame=6 idx=003240 GeodesicLength=0.5781803202143937 rxn_smarts="[C:1]([C@@:2]1([H:10])[C:3]([H:11])([H:12])[C:4]([H:13])([H:14])[O:5][C:6]1([H:15])[H:16])([H:7])([H:8])[H:9]>>[C:1]([C:2]([C:3]([C:4]([O+:5]=[C-:6][H:16])([H:13])[H:14])([H:11])[H:12])([H:10])[H:15])([H:7])([H:8])[H:9]"
C        1.89736241       0.03391090       0.05541043
C        0.51228068       0.63944872       0.18400544
C       -0.45634904       0.32459560      -0.93904162
C       -1.69634472      -0.39333567      -0.42793426
O       -1.81431130      -0.17784062       0.97253864
C       -0.68954487      -0.46799162       1.64873895
H        2.46640823       0.51006666      -0.74745558
H        2.47424998       0.16223542       0.97331920
H        1.85080024      -1.03625259      -0.15681749
H        0.60154928       1.72979649       0.25720824
H       -0.75901160       1.23663684      -1.45761720
H        0.00436406      -0.29679636      -1.71305844
H       -1.63323043      -1.47413693      -0.60054401
H       -2.60805532       0.00779170      -0.87606310
H        0.11129186       0.64086674       1.48971183
H       -0.26145946      -1.43899529       1.33759899
16
Frame=7 idx=003240 GeodesicLength=0.6707488825147863 rxn_smarts="[C:1]([C@@:2]1([H:10])[C:3]([H:11])([H:12])[C:4]([H:13])([H:14])[O:5][C:6]1([H:15])[H:16])([H:7])([H:8])[H:9]>>[C:1]([C:2]([C:3]([C:4]([O+:5]=[C-:6][H:16])([H:13])[H:14])([H:11])[H:12])([H:10])[H:15])([H:7])([H:8])[H:9]"
C        1.91465316       0.06886626       0.05331446
C        0.50919779       0.62587473       0.19105428
C       -0.44382733       0.28805262      -0.93981688
C       -1.71649252      -0.36434900      -0.42433171
O       -1.81175810      -0.18397645       0.98402777
C       -0.68722819      -0.51378983       1.64166816
H        2.45875486       0.55500404      -0.76073580
H        2.49715266       0.22815177       0.96278591
H        1.90440889      -1.00483046      -0.14596996
H        0.56453349       1.71907109       0.26063789
H       -0.70300574       1.18109039      -1.51245851
H        0.01208460      -0.38558164      -1.67199084
H       -1.72328984      -1.44260439      -0.62128744
H       -2.60698219       0.10611456      -0.84751308
H        0.12394165       0.61829545       1.51154258
H       -0.29214318      -1.49538912       1.31907316
16
Frame=8 idx=003240 GeodesicLength=0.7623493779880873 rxn_smarts="[C:1]([C@@:2]1([H:10])[C:3]([H:11])([H:12])[C:4]([H:13])([H:14])[O:5][C:6]1([H:15])[H:16])([H:7])([H:8])[H:9]>>[C:1]([C:2]([C:3]([C:4]([O+:5]=[C-:6][H:16])([H:13])[H:14])([H:11])[H:12])([H:10])[H:15])([H:7])([H:8])[H:9]"
C        1.93032711       0.10416712       0.05010011
C        0.50638455       0.61203844       0.19808659
C       -0.43139586       0.25092014      -0.93979766
C       -1.73386180      -0.33485283      -0.42115286
O       -1.80939587      -0.19212085       0.99407692
C       -0.68616664      -0.55942540       1.63345447
H        2.44849821       0.59841501      -0.77586811
H        2.51772869       0.29558282       0.95016988
H        1.95655077      -0.97176107      -0.13575321
H        0.52759757       1.70702998       0.26367706
H       -0.64742513       1.12088283      -1.56372942
H        0.01802320      -0.47302123      -1.62671029
H       -1.81041900      -1.40539568      -0.64271891
H       -2.59737749       0.20397683      -0.81841484
H        0.13660270       0.59516936       1.53310248
H       -0.32567100      -1.55160545       1.30147778
16
Frame=9 idx=003240 GeodesicLength=0.8529755290835254 rxn_smarts="[C:1]([C@@:2]1([H:10])[C:3]([H:11])([H:12])[C:4]([H:13])([H:14])[O:5][C:6]1([H:15])[H:16])([H:7])([H:8])[H:9]>>[C:1]([C:2]([C:3]([C:4]([O+:5]=[C-:6][H:16])([H:13])[H:14])([H:11])[H:12])([H:10])[H:15])([H:7])([H:8])[H:9]"
C        1.94418429       0.13936280       0.04569604
C        0.50389937       0.59802694       0.20512912
C       -0.41914822       0.21370267      -0.93895030
C       -1.74817534      -0.30536736      -0.41850795
O       -1.80732165      -0.20186719       1.00237822
C       -0.68647831      -0.60426954       1.62434768
H        2.43573161       0.64002324      -0.79251645
H        2.53564830       0.36335094       0.93551684
H        2.00665873      -0.93732771      -0.12691797
H        0.49129605       1.69369491       0.26635245
H       -0.59318922       1.05711767      -1.61068962
H        0.02218358      -0.55762386      -1.57793261
H       -1.89294755      -1.36312370      -0.66470403
H       -2.57945611       0.29941956      -0.78916587
H        0.14929001       0.57191312       1.55435446
H       -0.36217554      -1.60703250       1.28560997
16
Frame=10 idx=003240 GeodesicLength=0.9430888206760188 rxn_smarts="[C:1]([C@@:2]1([H:10])[C:3]([H:11])([H:12])[C:4]([H:13])([H:14])[O:5][C:6]1([H:15])[H:16])([H:7])([H:8])[H:9]>>[C:1]([C:2]([C:3]([C:4]([O+:5]=[C-:6][H:16])([H:13])[H:14])([H:11])[H:12])([H:10])[H:15])([H:7])([H:8])[H:9]"
C        1.95627160       0.17412060       0.04002718
C        0.50183335       0.58395185       0.21223295
C       -0.40711076       0.17682958      -0.93727353
C       -1.75939536      -0.27637878      -0.41646939
O       -1.80576109      -0.21272744       1.00885233
C       -0.68837982      -0.64792751       1.61467902
H        2.42078394       0.67971295      -0.81049710
H        2.55091265       0.43059775       0.91887527
H        2.05446710      -0.90190227      -0.12003670
H        0.45613803       1.67928597       0.26879919
H       -0.54094003       0.99104661      -1.65282419
H        0.02471707      -0.63822686      -1.52660269
H       -1.96972487      -1.31672491      -0.68706847
H       -2.55389920       0.39080062      -0.76022026
H        0.16199477       0.54888628       1.57539220
H       -0.40190738      -1.66134444       1.27213419
16
Frame=11 idx=003240 GeodesicLength=1.0329004044679224 rxn_smarts="[C:1]([C@@:2]1([H:10])[C:3]([H:11])([H:12])[C:4]([H:13])([H:14])[O:5][C:6]1([H:15])[H:16])([H:7])([H:8])[H:9]>>[C:1]([C:2]([C:3]([C:4]([O+:5]=[C-:6][H:16])([H:13])[H:14])([H:11])[H:12])([H:10])[H:15])([H:7])([H:8])[H:9]"
C        1.96667051       0.20820809       0.03310592
C        0.50025799       0.56987464       0.21945164
C       -0.39530815       0.14062892      -0.93478419
C       -1.76760419      -0.24824237      -0.41508157
O       -1.80478833      -0.22420365       1.01350017
C       -0.69192952      -0.69015579       1.60468461
H        2.40392884       0.71750876      -0.82952491
H        2.56361564       0.49660904       0.90040179
H        2.09984751      -0.86576315      -0.11551603
H        0.42248601       1.66396006       0.27119596
H       -0.49108689       0.92378681      -1.68995744
H        0.02579511      -0.71404900      -1.47365198
H       -2.04000385      -1.26713245      -0.70960287
H       -2.52167620       0.47688929      -0.73196813
H        0.17478151       0.52631032       1.59629347
H       -0.44498599      -1.71422950       1.26145355
16
Frame=12 idx=003240 GeodesicLength=1.1225489922430052 rxn_smarts="[C:1]([C@@:2]1([H:10])[C:3]([H:11])([H:12])[C:4]([H:13])([H:14])[O:5][C:6]1([H:15])[H:16])([H:7])([H:8])[H:9]>>[C:1]([C:2]([C:3]([C:4]([O+:5]=[C-:6][H:16])([H:13])[H:14])([H:11])[H:12])([H:10])[H:15])([H:7])([H:8])[H:9]"
C        1.97550109       0.24152416       0.02500659
C        0.49923297       0.55578043       0.22682730
C       -0.38370778       0.10527689      -0.93152228
C       -1.77300355      -0.22113572      -0.41432903
O       -1.80438065      -0.23587766       1.01641498
C       -0.69707832      -0.73091923       1.59451366
H        2.38532905       0.75356462      -0.84936100
H        2.57390798       0.56105433       0.88028583
H        2.14284350      -0.82907552      -0.11355119
H        0.39053539       1.64778489       0.27371888
H       -0.44370247       0.85617975      -1.72222668
H        0.02566102      -0.78480959      -1.41980406
H       -2.10354392      -1.21512359      -0.73219714
H       -2.48388750       0.55703750      -0.70462179
H        0.18777279       0.50420693       1.61713975
H       -0.49147959      -1.76546819       1.25370619
16
Frame=13 idx=003240 GeodesicLength=1.21210029155616 rxn_smarts="[C:1]([C@@:2]1([H:10])[C:3]([H:11])([H:12])[C:4]([H:13])([H:14])[O:5][C:6]1([H:15])[H:16])([H:7])([H:8])[H:9]>>[C:1]([C:2]([C:3]([C:4]([O+:5]=[C-:6][H:16])([H:13])[H:14])([H:11])[H:12])([H:10])[H:15])([H:7])([H:8])[H:9]"
C        1.98287266       0.27403420       0.01581749
C        0.49880396       0.54168505       0.23439205
C       -0.37228058       0.07088658      -0.92753458
C       -1.77580182      -0.19516338      -0.41418332
O       -1.80445515      -0.24741602       1.01774297
C       -0.70374200      -0.77026164       1.58423905
H        2.36517300       0.78812742      -0.86970984
H        2.58192765       0.62360383       0.85877822
H        2.18352824      -0.79195500      -0.11431535
H        0.36040616       1.63087814       0.27654014
H       -0.39873287       0.78882688      -1.74994339
H        0.02453676      -0.85047342      -1.36567974
H       -2.16032504      -1.16143747      -0.75468246
H       -2.44160664       0.63092236      -0.67831083
H        0.20107352       0.48259336       1.63798793
H       -0.54137784      -1.81485090       1.24886165
16
Frame=14 idx=003240 GeodesicLength=1.3016447219241365 rxn_smarts="[C:1]([C@@:2]1([H:10])[C:3]([H:11])([H:12])[C:4]([H:13])([H:14])[O:5][C:6]1([H:15])[H:16])([H:7])([H:8])[H:9]>>[C:1]([C:2]([C:3]([C:4]([O+:5]=[C-:6][H:16])([H:13])[H:14])([H:11])[H:12])([H:10])[H:15])([H:7])([H:8])[H:9]"
C        1.98894540       0.30576524       0.00563432
C        0.49902012       0.52754526       0.24218239
C       -0.36097593       0.03748440      -0.92287172
C       -1.77624655      -0.17035919      -0.41459821
O       -1.80494870      -0.25857614       1.01766495
C       -0.71183818      -0.80833989       1.57390497
H        2.34356966       0.82136405      -0.89044722
H        2.58789327       0.68428964       0.83604865
H        2.22207859      -0.75446747      -0.11774642
H        0.33213783       1.61328961       0.27982873
H       -0.35601376       0.72219287      -1.77342826
H        0.02266195      -0.91121067      -1.31176729
H       -2.21058469      -1.10663576      -0.77700726
H       -2.39584073       0.69853802      -0.65313942
H        0.21481198       0.46134941       1.65892760
H       -0.59467027      -1.86222938       1.24681422
16
Frame=15 idx=003240 GeodesicLength=1.391204943362494 rxn_smarts="[C:1]([C@@:2]1([H:10])[C:3]([H:11])([H:12])[C:4]([H:13])([H:14])[O:5][C:6]1([H:15])[H:16])([H:7])([H:8])[H:9]>>[C:1]([C:2]([C:3]([C:4]([O+:5]=[C-:6][H:16])([H:13])[H:14])([H:11])[H:12])([H:10])[H:15])([H:7])([H:8])[H:9]"
C        1.99382184       0.33676798      -0.00544348
C        0.49991153       0.51333534       0.25022141
C       -0.34974852       0.00506101      -0.91758289
C       -1.77454280      -0.14671351      -0.41552302
O       -1.80575362      -0.26920642       1.01635476
C       -0.72126734      -0.84533099       1.56349353
H        2.32059647       0.85345597      -0.91141225
H        2.59194633       0.74313210       0.81228131
H        2.25863139      -0.71664184      -0.12377354
H        0.30572631       1.59508101       0.28372468
H       -0.31533448       0.65654645      -1.79306221
H        0.02022715      -0.96731212      -1.25842513
H       -2.25462383      -1.05118437      -0.79910143
H       -2.34742886       0.76007328      -0.62912632
H        0.22909264       0.44036705       1.68000924
H       -0.65125423      -1.90743093       1.24736535
16
Frame=16 idx=003240 GeodesicLength=1.4807955220947229 rxn_smarts="[C:1]([C@@:2]1([H:10])[C:3]([H:11])([H:12])[C:4]([H:13])([H:14])[O:5][C:6]1([H:15])[H:16])([H:7])([H:8])[H:9]>>[C:1]([C:2]([C:3]([C:4]([O+:5]=[C-:6][H:16])([H:13])[H:14])([H:11])[H:12])([H:10])[H:15])([H:7])([H:8])[H:9]"
C        1.99759120       0.36710016      -0.01731640
C        0.50150247       0.49902237       0.25852405
C       -0.33855561      -0.02641728      -0.91172287
C       -1.77088083      -0.12419749      -0.41690693
O       -1.80676784      -0.27922520       1.01397602
C       -0.73193621      -0.88142068       1.55296601
H        2.29630273       0.88454346      -0.93247843
H        2.59421127       0.80021644       0.78764208
H        2.29331594      -0.67848838      -0.13227547
H        0.28114445       1.57629638       0.28834300
H       -0.27647154       0.59205717      -1.80921487
H        0.01739400      -1.01912369      -1.20592725
H       -2.29279482      -0.99545321      -0.82093025
H       -2.29708731       0.81583028      -0.60624809
H        0.24400821       0.41953310       1.70127638
H       -0.71097609      -1.95027344       1.25029302
