14
Frame=0 idx=003983 GeodesicLength=0.0 rxn_smarts="[C:1]([O:2][C:3]([C:4]([C:5](=[O:6])[H:14])([H:12])[H:13])([H:10])[H:11])([H:7])([H:8])[H:9]>>[C:1]([O:2][C:3](=[C:4]([H:12])[H:13])[H:10])([H:7])([H:8])[H:9].[C:5](=[O:6])([H:11])[H:14]"
C        2.06762019       0.36335845      -0.09859087
O        1.01210752      -0.56666200      -0.32449114
C       -0.13434496      -0.06202412      -0.70637184
C       -1.32439341      -0.81425034      -0.48296912
C       -1.34053378       0.01652102       0.95975466
O       -0.95384342      -0.60316541       1.97167998
H        2.98064871      -0.21789578      -0.00919664
H        1.87298154       0.90379819       0.82962819
H        2.15057472       1.06212690      -0.93535806
H       -0.11286499       0.83468223      -1.32442259
H       -0.60027520       0.93757997       0.62066400
H       -1.19084619      -1.86244172      -0.24670798
H       -2.15172358      -0.59231646      -1.14683821
H       -2.27510713       0.60068904       0.89321964
14
Frame=1 idx=003983 GeodesicLength=0.14946078639091423 rxn_smarts="[C:1]([O:2][C:3]([C:4]([C:5](=[O:6])[H:14])([H:12])[H:13])([H:10])[H:11])([H:7])([H:8])[H:9]>>[C:1]([O:2][C:3](=[C:4]([H:12])[H:13])[H:10])([H:7])([H:8])[H:9].[C:5](=[O:6])([H:11])[H:14]"
C        2.07441085       0.35905607      -0.09671219
O        1.00944977      -0.56201292      -0.30590638
C       -0.13171442      -0.05261661      -0.71042591
C       -1.32712636      -0.79740177      -0.50023874
C       -1.33843539       0.00766657       0.98727306
O       -0.90352527      -0.56123893       2.00618293
H        2.97539042      -0.23292353       0.03656933
H        1.87217378       0.94325294       0.80311107
H        2.18772735       1.01752471      -0.96231950
H       -0.08975964       0.82544794      -1.35326535
H       -0.62922516       0.97084504       0.59777076
H       -1.21444757      -1.85472620      -0.29643774
H       -2.15155350      -0.54914470      -1.15915636
H       -2.33336485       0.48627140       0.95355502
14
Frame=2 idx=003983 GeodesicLength=0.2982057700154438 rxn_smarts="[C:1]([O:2][C:3]([C:4]([C:5](=[O:6])[H:14])([H:12])[H:13])([H:10])[H:11])([H:7])([H:8])[H:9]>>[C:1]([O:2][C:3](=[C:4]([H:12])[H:13])[H:10])([H:7])([H:8])[H:9].[C:5](=[O:6])([H:11])[H:14]"
C        2.08040757       0.35430237      -0.09419940
O        1.00582997      -0.55690520      -0.28798325
C       -0.12947312      -0.04249367      -0.71524518
C       -1.33059108      -0.77899398      -0.51799872
C       -1.33633537      -0.00041676       1.01481629
O       -0.85449211      -0.50995247       2.04108432
H        2.96804939      -0.24629533       0.08419758
H        1.87125287       0.98162100       0.77466082
H        2.22469535       0.97026281      -0.98630080
H       -0.06568542       0.81487792      -1.38338014
H       -0.66000253       1.00334066       0.57365984
H       -1.23922969      -1.84431078      -0.34854780
H       -2.15251299      -0.50277561      -1.16968471
H       -2.38191284       0.35773905       1.01492113
14
Frame=3 idx=003983 GeodesicLength=0.4458997476861814 rxn_smarts="[C:1]([O:2][C:3]([C:4]([C:5](=[O:6])[H:14])([H:12])[H:13])([H:10])[H:11])([H:7])([H:8])[H:9]>>[C:1]([O:2][C:3](=[C:4]([H:12])[H:13])[H:10])([H:7])([H:8])[H:9].[C:5](=[O:6])([H:11])[H:14]"
C        2.08581458       0.34904286      -0.09143111
O        1.00119475      -0.55126035      -0.27035256
C       -0.12768319      -0.03147688      -0.72026878
C       -1.33474897      -0.75908862      -0.53611132
C       -1.33503829      -0.00761232       1.04250058
O       -0.81005073      -0.44865133       2.07668530
H        2.95884363      -0.25806165       0.13253315
H        1.87112738       1.01859508       0.74411792
H        2.26109691       0.92052299      -1.00747633
H       -0.04088878       0.80302003      -1.41402998
H       -0.69211026       1.03496036       0.54924483
H       -1.26501567      -1.83109802      -0.40312676
H       -2.15448596      -0.45346469      -1.17818671
H       -2.41805541       0.21457254       1.07590176
14
Frame=4 idx=003983 GeodesicLength=0.5924500572277954 rxn_smarts="[C:1]([O:2][C:3]([C:4]([C:5](=[O:6])[H:14])([H:12])[H:13])([H:10])[H:11])([H:7])([H:8])[H:9]>>[C:1]([O:2][C:3](=[C:4]([H:12])[H:13])[H:10])([H:7])([H:8])[H:9].[C:5](=[O:6])([H:11])[H:14]"
C        2.09019368       0.34313776      -0.08801109
O        0.99534259      -0.54532147      -0.25348641
C       -0.12658138      -0.01972219      -0.72579062
C       -1.33985750      -0.73775681      -0.55466551
C       -1.33443379      -0.01409708       1.07031668
O       -0.77120107      -0.37596710       2.11274603
H        2.94739935      -0.26829877       0.18163019
H        1.87121763       1.05342783       0.71225249
H        2.29645522       0.86878650      -1.02502419
H       -0.01562434       0.78942300      -1.44549112
H       -0.72558068       1.06591498       0.52403741
H       -1.29205374      -1.81498580      -0.46063833
H       -2.15793689      -0.40116048      -1.18410361
H       -2.43733906       0.05661961       1.13622808
14
Frame=5 idx=003983 GeodesicLength=0.7376690617041333 rxn_smarts="[C:1]([O:2][C:3]([C:4]([C:5](=[O:6])[H:14])([H:12])[H:13])([H:10])[H:11])([H:7])([H:8])[H:9]>>[C:1]([O:2][C:3](=[C:4]([H:12])[H:13])[H:10])([H:7])([H:8])[H:9].[C:5](=[O:6])([H:11])[H:14]"
C        2.09326193       0.33650412      -0.08384751
O        0.98816697      -0.53933173      -0.23774864
C       -0.12638461      -0.00735909      -0.73182225
C       -1.34610763      -0.71517372      -0.57363372
C       -1.33452675      -0.02025714       1.09835230
O       -0.74085384      -0.29146566       2.14927403
H        2.93351806      -0.27708060       0.23123128
H        1.87123271       1.08561074       0.67955886
H        2.33031653       0.81555795      -1.03860261
H        0.00972214       0.77373789      -1.47764781
H       -0.76015608       1.09616247       0.49819682
H       -1.32046195      -1.79590773      -0.52146555
H       -2.16313727      -0.34618143      -1.18695645
H       -2.43459020      -0.11481607       1.19511125
14
Frame=6 idx=003983 GeodesicLength=0.8817668670074756 rxn_smarts="[C:1]([O:2][C:3]([C:4]([C:5](=[O:6])[H:14])([H:12])[H:13])([H:10])[H:11])([H:7])([H:8])[H:9]>>[C:1]([O:2][C:3](=[C:4]([H:12])[H:13])[H:10])([H:7])([H:8])[H:9].[C:5](=[O:6])([H:11])[H:14]"
C        2.09554625       0.32906869      -0.07980923
O        0.97958437      -0.53293064      -0.22206210
C       -0.12718730       0.00607134      -0.73719954
C       -1.35340786      -0.69138045      -0.59269125
C       -1.33657054      -0.02649227       1.12703247
O       -0.72543054      -0.19627840       2.18722731
H        2.91765277      -0.28462855       0.28035758
H        1.87276195       1.11591676       0.64466445
H        2.36264305       0.75970742      -1.04978905
H        0.03470992       0.75634829      -1.50909399
H       -0.79553498       1.12570622       0.47339760
H       -1.34976369      -1.77358286      -0.58584590
H       -2.16965938      -0.28917573      -1.18677464
H       -2.40534403      -0.29834982       1.25058630
14
Frame=7 idx=003983 GeodesicLength=1.025249708263336 rxn_smarts="[C:1]([O:2][C:3]([C:4]([C:5](=[O:6])[H:14])([H:12])[H:13])([H:10])[H:11])([H:7])([H:8])[H:9]>>[C:1]([O:2][C:3](=[C:4]([H:12])[H:13])[H:10])([H:7])([H:8])[H:9].[C:5](=[O:6])([H:11])[H:14]"
C        2.09691175       0.32077939      -0.07608290
O        0.96968804      -0.52634793      -0.20687632
C       -0.12918972       0.02037404      -0.74179611
C       -1.36183612      -0.66679305      -0.61156582
C       -1.34049541      -0.03364617       1.15654903
O       -0.73006128      -0.09239610       2.22715467
H        2.89996361      -0.29092105       0.32830699
H        1.87571219       1.14374845       0.60788374
H        2.39285301       0.70178277      -1.05858804
H        0.05872093       0.73696732      -1.53952607
H       -0.83111536       1.15442794       0.45024603
H       -1.37990031      -1.74801596      -0.65358702
H       -2.17750585      -0.23118539      -1.18340900
H       -2.34374548      -0.48877427       1.30129082
14
Frame=8 idx=003983 GeodesicLength=1.1687478856846938 rxn_smarts="[C:1]([O:2][C:3]([C:4]([C:5](=[O:6])[H:14])([H:12])[H:13])([H:10])[H:11])([H:7])([H:8])[H:9]>>[C:1]([O:2][C:3](=[C:4]([H:12])[H:13])[H:10])([H:7])([H:8])[H:9].[C:5](=[O:6])([H:11])[H:14]"
C        2.09666366       0.31152837      -0.07209968
O        0.95868607      -0.52052494      -0.19383592
C       -0.13258952       0.03465010      -0.74655741
C       -1.37168363      -0.64202480      -0.63005971
C       -1.34521234      -0.04202030       1.18661996
O       -0.75786641       0.01684701       2.26810343
H        2.88038755      -0.29622077       0.37444022
H        1.87843772       1.16727374       0.57171833
H        2.42000531       0.64443356      -1.06361032
H        0.08116078       0.71476157      -1.56959432
H       -0.86583481       1.18240840       0.42803074
H       -1.41165622      -1.71943021      -0.72337792
H       -2.18689129      -0.17342765      -1.17689169
H       -2.24360686      -0.67825409       1.34711427
14
Frame=9 idx=003983 GeodesicLength=1.3134143865165817 rxn_smarts="[C:1]([O:2][C:3]([C:4]([C:5](=[O:6])[H:14])([H:12])[H:13])([H:10])[H:11])([H:7])([H:8])[H:9]>>[C:1]([O:2][C:3](=[C:4]([H:12])[H:13])[H:10])([H:7])([H:8])[H:9].[C:5](=[O:6])([H:11])[H:14]"
C        2.09476548       0.30141760      -0.06804581
O        0.94697303      -0.51597816      -0.18356598
C       -0.13736152       0.04827435      -0.75169584
C       -1.38290748      -0.61770156      -0.64772695
C       -1.35068208      -0.05186970       1.21721300
O       -0.81292584       0.12444864       2.30949576
H        2.85935587      -0.30068562       0.41797222
H        1.88039170       1.18610215       0.53712116
H        2.44377583       0.58914050      -1.06517850
H        0.10144829       0.68935575      -1.59920413
H       -0.89810154       1.20960652       0.40737617
H       -1.44561030      -1.68830072      -0.79271006
H       -2.19733804      -0.11726290      -1.16786398
H       -2.10178341      -0.85654686       1.38681295
14
Frame=10 idx=003983 GeodesicLength=1.462066876736922 rxn_smarts="[C:1]([O:2][C:3]([C:4]([C:5](=[O:6])[H:14])([H:12])[H:13])([H:10])[H:11])([H:7])([H:8])[H:9]>>[C:1]([O:2][C:3](=[C:4]([H:12])[H:13])[H:10])([H:7])([H:8])[H:9].[C:5](=[O:6])([H:11])[H:14]"
C        2.09313047       0.29101294      -0.06628871
O        0.93539479      -0.51135510      -0.17391752
C       -0.14295116       0.06197655      -0.75531766
C       -1.39441552      -0.59430302      -0.66378880
C       -1.35886226      -0.06505184       1.24912074
O       -0.90303827       0.21875541       2.35340560
H        2.83859398      -0.30303863       0.45818572
H        1.88498014       1.20351836       0.49878167
H        2.46539276       0.53221872      -1.06753253
H        0.11933012       0.66159287      -1.62644939
H       -0.92638785       1.23540447       0.39239718
H       -1.48025580      -1.65538691      -0.85859606
H       -2.20724701      -0.06402040      -1.15727865
H       -1.92366439      -1.01132343       1.41727840
14
Frame=11 idx=003983 GeodesicLength=1.614539584173003 rxn_smarts="[C:1]([O:2][C:3]([C:4]([C:5](=[O:6])[H:14])([H:12])[H:13])([H:10])[H:11])([H:7])([H:8])[H:9]>>[C:1]([O:2][C:3](=[C:4]([H:12])[H:13])[H:10])([H:7])([H:8])[H:9].[C:5](=[O:6])([H:11])[H:14]"
C        2.09251937       0.28076830      -0.06725669
O        0.92451353      -0.50579672      -0.16493236
C       -0.14899481       0.07612250      -0.75779895
C       -1.40543214      -0.57237752      -0.67838016
C       -1.37000507      -0.08352837       1.28164569
O       -1.02486469       0.28906330       2.39668539
H        2.81845754      -0.30241156       0.49574377
H        1.89326359       1.22074092       0.45476889
H        2.48603176       0.47218120      -1.07132329
H        0.13486062       0.63310735      -1.65086516
H       -0.95031971       1.25943102       0.38426954
H       -1.51446241      -1.62213892      -0.91799783
H       -2.21570719      -0.01470794      -1.14650108
H       -1.71986040      -1.13045355       1.44194224
14
Frame=12 idx=003983 GeodesicLength=1.7693855379115186 rxn_smarts="[C:1]([O:2][C:3]([C:4]([C:5](=[O:6])[H:14])([H:12])[H:13])([H:10])[H:11])([H:7])([H:8])[H:9]>>[C:1]([O:2][C:3](=[C:4]([H:12])[H:13])[H:10])([H:7])([H:8])[H:9].[C:5](=[O:6])([H:11])[H:14]"
C        2.09398657       0.27192090      -0.07175003
O        0.91595654      -0.49905436      -0.15582260
C       -0.15412383       0.08974792      -0.75915213
C       -1.41446219      -0.55274849      -0.69048021
C       -1.38264725      -0.10523771       1.31565720
O       -1.16887922       0.32350184       2.43982237
H        2.80127184      -0.29650456       0.52909297
H        1.90516612       1.23801567       0.40495405
H        2.50551977       0.41174300      -1.07725885
H        0.14899103       0.60077090      -1.67386968
H       -0.96787160       1.28221011       0.38271657
H       -1.54703560      -1.59029627      -0.96836634
H       -2.22166681       0.02961992      -1.13457667
H       -1.51420537      -1.20368888       1.45903335
14
Frame=13 idx=003983 GeodesicLength=1.9226716871862566 rxn_smarts="[C:1]([O:2][C:3]([C:4]([C:5](=[O:6])[H:14])([H:12])[H:13])([H:10])[H:11])([H:7])([H:8])[H:9]>>[C:1]([O:2][C:3](=[C:4]([H:12])[H:13])[H:10])([H:7])([H:8])[H:9].[C:5](=[O:6])([H:11])[H:14]"
C        2.09739217       0.26471161      -0.07863523
O        0.90863060      -0.48920956      -0.14470589
C       -0.15854644       0.10442069      -0.75955795
C       -1.42147382      -0.53475438      -0.70143029
C       -1.39784580      -0.13222964       1.35001128
O       -1.31775098       0.32297421       2.47741770
H        2.78541936      -0.28388103       0.56196531
H        1.92190443       1.25773113       0.34540393
H        2.52522657       0.34532282      -1.08399913
H        0.16232800       0.56742796      -1.69441565
H       -0.98289704       1.30401351       0.38659087
H       -1.57650763      -1.55934596      -1.01363526
H       -2.22526365       0.07025151      -1.12247308
H       -1.32061578      -1.23743288       1.47746338
14
Frame=14 idx=003983 GeodesicLength=2.0729834243969685 rxn_smarts="[C:1]([O:2][C:3]([C:4]([C:5](=[O:6])[H:14])([H:12])[H:13])([H:10])[H:11])([H:7])([H:8])[H:9]>>[C:1]([O:2][C:3](=[C:4]([H:12])[H:13])[H:10])([H:7])([H:8])[H:9].[C:5](=[O:6])([H:11])[H:14]"
C        2.10110513       0.25868865      -0.08562248
O        0.90245346      -0.47853234      -0.13377660
C       -0.16218630       0.11819615      -0.76112556
C       -1.42704407      -0.51873523      -0.71181071
C       -1.41334155      -0.16024562       1.38459520
O       -1.45712538       0.29409987       2.51037084
H        2.77122383      -0.26793483       0.59162127
H        1.93894573       1.27474776       0.28651203
H        2.54310504       0.28200668      -1.08797491
H        0.17530224       0.53101487      -1.71437808
H       -0.99629310       1.32648560       0.38967982
H       -1.60418943      -1.53023885      -1.05355322
H       -2.22757168       0.10660066      -1.11048234
H       -1.14438392      -1.23615338       1.49594474
14
Frame=15 idx=003983 GeodesicLength=2.2214181458067697 rxn_smarts="[C:1]([O:2][C:3]([C:4]([C:5](=[O:6])[H:14])([H:12])[H:13])([H:10])[H:11])([H:7])([H:8])[H:9]>>[C:1]([O:2][C:3](=[C:4]([H:12])[H:13])[H:10])([H:7])([H:8])[H:9].[C:5](=[O:6])([H:11])[H:14]"
C        2.10526802       0.25325949      -0.09280193
O        0.89702159      -0.46679256      -0.12263860
C       -0.16519417       0.13167859      -0.76346017
C       -1.43143799      -0.50405602      -0.72216704
C       -1.42953686      -0.19120554       1.41924327
O       -1.58727305       0.24320124       2.53867858
H        2.75817299      -0.24900129       0.61913578
H        1.95708109       1.28951248       0.22630733
H        2.55972006       0.21900941      -1.08941761
H        0.18789276       0.49321915      -1.73272935
H       -1.00935692       1.34957069       0.39179961
H       -1.63020455      -1.50168012      -1.09177385
H       -2.22884568       0.14018775      -1.09823814
H       -0.98330729      -1.20690325       1.51806210
14
Frame=16 idx=003983 GeodesicLength=2.3685967989578423 rxn_smarts="[C:1]([O:2][C:3]([C:4]([C:5](=[O:6])[H:14])([H:12])[H:13])([H:10])[H:11])([H:7])([H:8])[H:9]>>[C:1]([O:2][C:3](=[C:4]([H:12])[H:13])[H:10])([H:7])([H:8])[H:9].[C:5](=[O:6])([H:11])[H:14]"
C        2.10975123       0.24795895      -0.10007155
O        0.89227935      -0.45453130      -0.11177633
C       -0.16756470       0.14462529      -0.76679839
C       -1.43495758      -0.49034288      -0.73265938
C       -1.44540095      -0.22536431       1.45408206
O       -1.70895663       0.17279684       2.56301057
H        2.74602327      -0.22761383       0.64474415
H        1.97590955       1.30142933       0.16516109
H        2.57524842       0.15637026      -1.08809464
H        0.20016741       0.45411480      -1.74956954
H       -1.02199086       1.37362909       0.39203031
H       -1.65536913      -1.47295177      -1.12936576
H       -2.22938676       0.17184050      -1.08519838
H       -0.83575263      -1.15196099       1.54450576
