12
Frame=0 idx=002162 GeodesicLength=0.0 rxn_smarts="[O:1]=[C:2]([C:3]1([H:8])[C:4]([H:9])([H:10])[O:5][C:6]1([H:11])[H:12])[H:7]>>[H:11][H:12].[O:1]=[C:2]([C@@:3]1([H:8])[C:4]([H:9])([H:10])[O+:5]=[C-:6]1)[H:7]"
O        2.48697137      -0.70253655       0.14744264
C        1.32764649      -0.58966330       0.43009486
C        0.25342899      -0.27670371      -0.56588183
C       -1.20493822      -0.57919265      -0.20424011
O       -1.54338274       0.81031684      -0.40333682
C       -0.26049035       1.18123284      -0.59280656
H        0.97645564      -0.68454948       1.47989819
H        0.56169075      -0.59000300      -1.56244620
H       -1.77244141      -1.23316435      -0.86521093
H       -1.36229959      -0.85226114       0.84367434
H        0.30710152       1.52251954       1.04393361
H        0.23025759       1.99400495       0.24887881
12
Frame=1 idx=002162 GeodesicLength=0.05599959465124027 rxn_smarts="[O:1]=[C:2]([C:3]1([H:8])[C:4]([H:9])([H:10])[O:5][C:6]1([H:11])[H:12])[H:7]>>[H:11][H:12].[O:1]=[C:2]([C@@:3]1([H:8])[C:4]([H:9])([H:10])[O+:5]=[C-:6]1)[H:7]"
O        2.48199146      -0.72031570       0.14877871
C        1.32393046      -0.59550560       0.43153943
C        0.25157408      -0.27728344      -0.56484582
C       -1.20571702      -0.58850756      -0.20595779
O       -1.54916280       0.80209507      -0.38681444
C       -0.26701427       1.17881449      -0.57677889
H        0.97441637      -0.67859874       1.48293739
H        0.56315033      -0.58256419      -1.56286123
H       -1.76981698      -1.23490125      -0.87739113
H       -1.36432995      -0.87878488       0.83701138
H        0.31333978       1.55157614       1.03842882
H        0.24763854       2.02397566       0.23595357
12
Frame=2 idx=002162 GeodesicLength=0.11201170372459734 rxn_smarts="[O:1]=[C:2]([C:3]1([H:8])[C:4]([H:9])([H:10])[O:5][C:6]1([H:11])[H:12])[H:7]>>[H:11][H:12].[O:1]=[C:2]([C@@:3]1([H:8])[C:4]([H:9])([H:10])[O+:5]=[C-:6]1)[H:7]"
O        2.47676493      -0.73835953       0.15038496
C        1.32007323      -0.60153754       0.43320300
C        0.24965823      -0.27777847      -0.56358275
C       -1.20650967      -0.59802410      -0.20775422
O       -1.55500114       0.79351903      -0.36938204
C       -0.27367863       1.17634563      -0.55971524
H        0.97230973      -0.67276926       1.48609116
H        0.56468752      -0.57446549      -1.56310771
H       -1.76721518      -1.23622159      -0.88996042
H       -1.36623890      -0.90613129       0.82979959
H        0.32017246       1.58165543       1.03228825
H        0.26497743       2.05376717       0.22173542
12
Frame=3 idx=002162 GeodesicLength=0.16804316876126318 rxn_smarts="[O:1]=[C:2]([C:3]1([H:8])[C:4]([H:9])([H:10])[O:5][C:6]1([H:11])[H:12])[H:7]>>[H:11][H:12].[O:1]=[C:2]([C@@:3]1([H:8])[C:4]([H:9])([H:10])[O+:5]=[C-:6]1)[H:7]"
O        2.47128981      -0.75668717       0.15225993
C        1.31608602      -0.60776754       0.43509751
C        0.24769236      -0.27817178      -0.56206735
C       -1.20730393      -0.60772160      -0.20963007
O       -1.56087566       0.78457528      -0.35100219
C       -0.28046233       1.17381264      -0.54156445
H        0.97014663      -0.66713957       1.48936579
H        0.56631021      -0.56568578      -1.56314247
H       -1.76463038      -1.23706143      -0.90291721
H       -1.36801022      -0.93429238       0.82199237
H        0.32760606       1.61277495       1.02545494
H        0.28215143       2.08336438       0.20615321
12
Frame=4 idx=002162 GeodesicLength=0.22408314797854886 rxn_smarts="[O:1]=[C:2]([C:3]1([H:8])[C:4]([H:9])([H:10])[O:5][C:6]1([H:11])[H:12])[H:7]>>[H:11][H:12].[O:1]=[C:2]([C@@:3]1([H:8])[C:4]([H:9])([H:10])[O+:5]=[C-:6]1)[H:7]"
O        2.46555497      -0.77534582       0.15439746
C        1.31198491      -0.61420456       0.43723646
C        0.24569157      -0.27844283      -0.56027000
C       -1.20808527      -0.61757563      -0.21158731
O       -1.56675589       0.77524627      -0.33162801
C       -0.28733922       1.17120073      -0.52226414
H        0.96794329      -0.66178931       1.49277244
H        0.56803089      -0.55619261      -1.56291253
H       -1.76205345      -1.23734401      -0.91626605
H       -1.36962202      -0.96326319       0.81354301
H        0.33563621       1.64495805       1.01785408
H        0.29901400       2.11275293       0.18912458
12
Frame=5 idx=002162 GeodesicLength=0.2801442718845011 rxn_smarts="[O:1]=[C:2]([C:3]1([H:8])[C:4]([H:9])([H:10])[O:5][C:6]1([H:11])[H:12])[H:7]>>[H:11][H:12].[O:1]=[C:2]([C@@:3]1([H:8])[C:4]([H:9])([H:10])[O+:5]=[C-:6]1)[H:7]"
O        2.45956907      -0.79435394       0.15679337
C        1.30778450      -0.62086782       0.43963295
C        0.24367187      -0.27857653      -0.55816163
C       -1.20884020      -0.62755817      -0.21362400
O       -1.57261285       0.76552329      -0.31122770
C       -0.29427370       1.16849543      -0.50174865
H        0.96571046      -0.65682290       1.49632165
H        0.56986287      -0.54595685      -1.56237213
H       -1.75948033      -1.23699615      -0.92999465
H       -1.37105990      -0.99301752       0.80440171
H        0.34425327       1.67821303       1.00941477
H        0.31541494       2.14191813       0.17056431
12
Frame=6 idx=002162 GeodesicLength=0.336202662460256 rxn_smarts="[O:1]=[C:2]([C:3]1([H:8])[C:4]([H:9])([H:10])[O:5][C:6]1([H:11])[H:12])[H:7]>>[H:11][H:12].[O:1]=[C:2]([C@@:3]1([H:8])[C:4]([H:9])([H:10])[O+:5]=[C-:6]1)[H:7]"
O        2.45332031      -0.81377869       0.15943151
C        1.30351089      -0.62777636       0.44230053
C        0.24165781      -0.27855340      -0.55570340
C       -1.20954797      -0.63763108      -0.21573850
O       -1.57839798       0.75539244      -0.28976147
C       -0.30121759       1.16568476      -0.47993563
H        0.96347490      -0.65234461       1.50003167
H        0.57182426      -0.53494286      -1.56146209
H       -1.75689913      -1.23591791      -0.94409597
H       -1.37229982      -1.02353129       0.79451779
H        0.35341096       1.71255392       1.00003653
H        0.33116335       2.17084508       0.15037905
12
Frame=7 idx=002162 GeodesicLength=0.39227112908365913 rxn_smarts="[O:1]=[C:2]([C:3]1([H:8])[C:4]([H:9])([H:10])[O:5][C:6]1([H:11])[H:12])[H:7]>>[H:11][H:12].[O:1]=[C:2]([C@@:3]1([H:8])[C:4]([H:9])([H:10])[O+:5]=[C-:6]1)[H:7]"
O        2.44681931      -0.83365352       0.16229427
C        1.29918701      -0.63496168       0.44524877
C        0.23967273      -0.27835889      -0.55286090
C       -1.21018908      -0.64775148      -0.21792546
O       -1.58406522       0.74485101      -0.26721865
C       -0.30811079       1.16276091      -0.45674079
H        0.96125672      -0.64848711       1.50391743
H        0.57393375      -0.52311728      -1.56012945
H       -1.75430009      -1.23402601      -0.95853956
H       -1.37332871      -1.05474738       0.78384393
H        0.36304734       1.74797871       0.98963034
H        0.34607703       2.19951272       0.12848008
12
Frame=8 idx=002162 GeodesicLength=0.448334101294885 rxn_smarts="[O:1]=[C:2]([C:3]1([H:8])[C:4]([H:9])([H:10])[O:5][C:6]1([H:11])[H:12])[H:7]>>[H:11][H:12].[O:1]=[C:2]([C@@:3]1([H:8])[C:4]([H:9])([H:10])[O+:5]=[C-:6]1)[H:7]"
O        2.44004857      -0.85404653       0.16535084
C        1.29484153      -0.64246158       0.44848792
C        0.23775439      -0.27798021      -0.54958950
C       -1.21073917      -0.65787135      -0.22017945
O       -1.58955706       0.73389386      -0.24357608
C       -0.31488538       1.15971391      -0.43205795
H        0.95907799      -0.64538267       1.50799952
H        0.57623238      -0.51044354      -1.55830560
H       -1.75166661      -1.23121216      -0.97330200
H       -1.37413014      -1.08661071       0.77232631
H        0.37310858       1.78449564       0.97806692
H        0.35991492       2.22790534       0.10477909
12
Frame=9 idx=002162 GeodesicLength=0.5043126662412722 rxn_smarts="[O:1]=[C:2]([C:3]1([H:8])[C:4]([H:9])([H:10])[O:5][C:6]1([H:11])[H:12])[H:7]>>[H:11][H:12].[O:1]=[C:2]([C@@:3]1([H:8])[C:4]([H:9])([H:10])[O+:5]=[C-:6]1)[H:7]"
O        2.43319103      -0.87474100       0.16863856
C        1.29047600      -0.65031882       0.45203815
C        0.23590121      -0.27744144      -0.54585996
C       -1.21120349      -0.66790286      -0.22249657
O       -1.59480518       0.72256424      -0.21881789
C       -0.32146186       1.15651991      -0.40584864
H        0.95691956      -0.64325865       1.51226870
H        0.57867265      -0.49696265      -1.55597403
H       -1.74904738      -1.22735866      -0.98830841
H       -1.37470789      -1.11903909       0.75990403
H        0.38341510       1.82207322       0.96515433
H        0.37265025       2.25586580       0.07930174
12
Frame=10 idx=002162 GeodesicLength=0.5601962875345846 rxn_smarts="[O:1]=[C:2]([C:3]1([H:8])[C:4]([H:9])([H:10])[O:5][C:6]1([H:11])[H:12])[H:7]>>[H:11][H:12].[O:1]=[C:2]([C@@:3]1([H:8])[C:4]([H:9])([H:10])[O+:5]=[C-:6]1)[H:7]"
O        2.42609948      -0.89608259       0.17207035
C        1.28615721      -0.65858912       0.45590187
C        0.23419241      -0.27667827      -0.54160930
C       -1.21152300      -0.67779811      -0.22486397
O       -1.59974514       0.71083762      -0.19296010
C       -0.32774195       1.15316723      -0.37792979
H        0.95486313      -0.64220100       1.51678044
H        0.58136010      -0.48255183      -1.55302346
H       -1.74635577      -1.22234308      -1.00355529
H       -1.37504057      -1.15192771       0.74653090
H        0.39395886       1.86073155       0.95081685
H        0.38377524       2.28343530       0.05184150
12
Frame=11 idx=002162 GeodesicLength=0.616022448901782 rxn_smarts="[O:1]=[C:2]([C:3]1([H:8])[C:4]([H:9])([H:10])[O:5][C:6]1([H:11])[H:12])[H:7]>>[H:11][H:12].[O:1]=[C:2]([C@@:3]1([H:8])[C:4]([H:9])([H:10])[O+:5]=[C-:6]1)[H:7]"
O        2.41880132      -0.91815429       0.17561437
C        1.28192439      -0.66733486       0.46008364
C        0.23266887      -0.27566755      -0.53679062
C       -1.21166486      -0.68747336      -0.22727136
O       -1.60431122       0.69874209      -0.16604275
C       -0.33362411       1.14962976      -0.34820282
H        0.95295651      -0.64237579       1.52156274
H        0.58431938      -0.46717176      -1.54938441
H       -1.74355794      -1.21605150      -1.01899453
H       -1.37512740      -1.18514324       0.73216761
H        0.40461692       1.90044618       0.93492975
H        0.39299812       2.31055432       0.02232839
12
Frame=12 idx=002162 GeodesicLength=0.6717865478873739 rxn_smarts="[O:1]=[C:2]([C:3]1([H:8])[C:4]([H:9])([H:10])[O:5][C:6]1([H:11])[H:12])[H:7]>>[H:11][H:12].[O:1]=[C:2]([C@@:3]1([H:8])[C:4]([H:9])([H:10])[O+:5]=[C-:6]1)[H:7]"
O        2.41130457      -0.94109401       0.17923106
C        1.27782858      -0.67662766       0.46459474
C        0.23139088      -0.27438431      -0.53134195
C       -1.21159008      -0.69683329      -0.22970761
O       -1.60841045       0.68630975      -0.13808091
C       -0.33897306       1.14587997      -0.31653066
H        0.95125452      -0.64396614       1.52664853
H        0.58759854      -0.45076799      -1.54497298
H       -1.74061231      -1.20831949      -1.03458389
H       -1.37496518      -1.21855156       0.71676703
H        0.41522962       1.94120283       0.91731746
H        0.39994437       2.33715189      -0.00934081
12
Frame=13 idx=002162 GeodesicLength=0.7274969773940752 rxn_smarts="[O:1]=[C:2]([C:3]1([H:8])[C:4]([H:9])([H:10])[O:5][C:6]1([H:11])[H:12])[H:7]>>[H:11][H:12].[O:1]=[C:2]([C@@:3]1([H:8])[C:4]([H:9])([H:10])[O+:5]=[C-:6]1)[H:7]"
O        2.40363686      -0.96499997       0.18288890
C        1.27391155      -0.68656365       0.46944727
C        0.23042429      -0.27280553      -0.52520111
C       -1.21126005      -0.70577128      -0.23216248
O       -1.61195597       0.67360205      -0.10910142
C       -0.34364219       1.14188888      -0.28274224
H        0.94979862      -0.64718100       1.53207098
H        0.59126035      -0.43327791      -1.53970421
H       -1.73747528      -1.19899475      -1.05027685
H       -1.37457129      -1.25199819       0.70027990
H        0.42566917       1.98296868       0.89777206
H        0.40420393       2.36313268      -0.04327080
12
Frame=14 idx=002162 GeodesicLength=0.7832229049931172 rxn_smarts="[O:1]=[C:2]([C:3]1([H:8])[C:4]([H:9])([H:10])[O:5][C:6]1([H:11])[H:12])[H:7]>>[H:11][H:12].[O:1]=[C:2]([C@@:3]1([H:8])[C:4]([H:9])([H:10])[O+:5]=[C-:6]1)[H:7]"
O        2.39581174      -0.99002605       0.18652973
C        1.27023134      -0.69724017       0.47464482
C        0.22985236      -0.27090588      -0.51830056
C       -1.21062126      -0.71415549      -0.23462053
O       -1.61482752       0.66069488      -0.07914293
C       -0.34746030       1.13763022      -0.24671565
H        0.94865139      -0.65222880       1.53785862
H        0.59538041      -0.41467985      -1.53348184
H       -1.73408926      -1.18788295      -1.06600560
H       -1.37395390      -1.28528812       0.68266361
H        0.43568805       2.02570271       0.87612323
H        0.40533694       2.38837950      -0.07955290
12
Frame=15 idx=002162 GeodesicLength=0.839023639979684 rxn_smarts="[O:1]=[C:2]([C:3]1([H:8])[C:4]([H:9])([H:10])[O:5][C:6]1([H:11])[H:12])[H:7]>>[H:11][H:12].[O:1]=[C:2]([C@@:3]1([H:8])[C:4]([H:9])([H:10])[O+:5]=[C-:6]1)[H:7]"
O        2.38786229      -1.01630210       0.19010577
C        1.26683695      -0.70877805       0.48019294
C        0.22976587      -0.26865896      -0.51056977
C       -1.20961934      -0.72184102      -0.23706153
O       -1.61689626       0.64770295      -0.04824813
C       -0.35023201       1.13308164      -0.20829545
H        0.94786569      -0.65933795       1.54404117
H        0.60004923      -0.39493885      -1.52621440
H       -1.73038683      -1.17478814      -1.08170342
H       -1.37314290      -1.31820474       0.66387421
H        0.44504549       2.06933916       0.85216102
H        0.40285183       2.41272606      -0.11828240
12
Frame=16 idx=002162 GeodesicLength=0.8949445736954195 rxn_smarts="[O:1]=[C:2]([C:3]1([H:8])[C:4]([H:9])([H:10])[O:5][C:6]1([H:11])[H:12])[H:7]>>[H:11][H:12].[O:1]=[C:2]([C@@:3]1([H:8])[C:4]([H:9])([H:10])[O+:5]=[C-:6]1)[H:7]"
O        2.37982204      -1.04400243       0.19358484
C        1.26378613      -0.72131073       0.48610813
C        0.23028222      -0.26603187      -0.50192708
C       -1.20819106      -0.72864929      -0.23947107
O       -1.61798712       0.63475914      -0.01639908
C       -0.35171618       1.12822032      -0.16730503
H        0.94749805      -0.66874681       1.55065665
H        0.60538671      -0.37401847      -1.51780133
H       -1.72631167      -1.15944274      -1.09731926
H       -1.37216889      -1.35052939       0.64384147
H        0.45344872       2.11380253       0.82560799
H        0.39615104       2.43594973      -0.15957625
