17
Frame=0 idx=008417 GeodesicLength=0.0 rxn_smarts="[O:1]([C@@:2]1([H:9])[C:3]([H:10])([H:11])[C:4]([H:12])([H:13])[C:5]([H:14])([H:15])[C:6]([H:16])=[C:7]1[H:17])[H:8]>>[O:1](/[C:2](=[C:7](/[C@:6]1([H:16])[C@@:4]([C:3]([H:10])([H:11])[H:13])([H:12])[C:5]1([H:14])[H:15])[H:17])[H:9])[H:8]"
O        2.75369774      -0.75506123      -0.10879211
C        1.54037687      -0.17019691      -0.37772541
C       -0.52462762      -1.40735691       0.11795484
C       -1.38624080      -0.25042481       0.28701149
C       -1.26771839       0.87756341      -0.69670784
C       -0.21862587       1.45415232       0.17089134
C        1.05507443       0.91152897       0.31379235
H        3.02817501      -0.50563683       0.77619127
H        1.22625057      -0.40582825      -1.38323435
H       -0.22442927      -2.00649723       0.96686239
H       -0.32248169      -1.79022548      -0.87093060
H       -1.82281717      -0.05512156       1.25590950
H       -1.85057774      -1.44051167       0.00832921
H       -0.95523711       0.54141672      -1.68687973
H       -2.15826386       1.49451799      -0.78065401
H       -0.52120764       2.23811793       0.85335865
H        1.64865259       1.26956355       1.15462306
17
Frame=1 idx=008417 GeodesicLength=0.047324477514199326 rxn_smarts="[O:1]([C@@:2]1([H:9])[C:3]([H:10])([H:11])[C:4]([H:12])([H:13])[C:5]([H:14])([H:15])[C:6]([H:16])=[C:7]1[H:17])[H:8]>>[O:1](/[C:2](=[C:7](/[C@:6]1([H:16])[C@@:4]([C:3]([H:10])([H:11])[H:13])([H:12])[C:5]1([H:14])[H:15])[H:17])[H:9])[H:8]"
O        2.75489679      -0.75753734      -0.09222502
C        1.53811971      -0.18164597      -0.37132181
C       -0.51916093      -1.40653809       0.11127522
C       -1.38223291      -0.24935019       0.29308067
C       -1.27716073       0.87672514      -0.69396924
C       -0.22188825       1.44676118       0.17133440
C        1.05641829       0.91269161       0.30668076
H        3.01139198      -0.52102187       0.80170238
H        1.25147816      -0.39704911      -1.39010924
H       -0.22673949      -2.01767744       0.95488215
H       -0.32494857      -1.78015580      -0.88334186
H       -1.81261898      -0.05994782       1.26624649
H       -1.85358255      -1.44459496       0.01063277
H       -0.97042986       0.54622147      -1.68751865
H       -2.16896455       1.49330115      -0.76727779
H       -0.51595789       2.24485148       0.84138736
H        1.66137977       1.29496655       1.12854140
17
Frame=2 idx=008417 GeodesicLength=0.09467343501825407 rxn_smarts="[O:1]([C@@:2]1([H:9])[C:3]([H:10])([H:11])[C:4]([H:12])([H:13])[C:5]([H:14])([H:15])[C:6]([H:16])=[C:7]1[H:17])[H:8]>>[O:1](/[C:2](=[C:7](/[C@:6]1([H:16])[C@@:4]([C:3]([H:10])([H:11])[H:13])([H:12])[C:5]1([H:14])[H:15])[H:17])[H:9])[H:8]"
O        2.75451450      -0.76144936      -0.07436149
C        1.53605659      -0.19217613      -0.36606256
C       -0.51313074      -1.40545103       0.10451370
C       -1.37777148      -0.24824177       0.29927473
C       -1.28678924       0.87591516      -0.69099413
C       -0.22504053       1.43969922       0.17142731
C        1.05791143       0.91433775       0.29868108
H        2.99317776      -0.53628658       0.82745678
H        1.27749239      -0.38800089      -1.39687407
H       -0.22795759      -2.02826096       0.94261516
H       -0.32700070      -1.76964809      -0.89574636
H       -1.80158041      -0.06480621       1.27680006
H       -1.85604061      -1.44880359       0.01322920
H       -0.98626965       0.55112608      -1.68800973
H       -2.17988872       1.49191544      -0.75331848
H       -0.51048350       2.25179591       0.82864413
H        1.67280049       1.31833506       1.10272468
17
Frame=3 idx=008417 GeodesicLength=0.14206689146429366 rxn_smarts="[O:1]([C@@:2]1([H:9])[C:3]([H:10])([H:11])[C:4]([H:12])([H:13])[C:5]([H:14])([H:15])[C:6]([H:16])=[C:7]1[H:17])[H:8]>>[O:1](/[C:2](=[C:7](/[C@:6]1([H:16])[C@@:4]([C:3]([H:10])([H:11])[H:13])([H:12])[C:5]1([H:14])[H:15])[H:17])[H:9])[H:8]"
O        2.75293387      -0.76630127      -0.05554459
C        1.53415439      -0.20203143      -0.36171754
C       -0.50673120      -1.40416536       0.09767388
C       -1.37296294      -0.24710481       0.30555299
C       -1.29654663       0.87512674      -0.68777987
C       -0.22805893       1.43287201       0.17125806
C        1.05951239       0.91627146       0.28996997
H        2.97378887      -0.55118014       0.85329350
H        1.30429487      -0.37887641      -1.40334786
H       -0.22841112      -2.03837144       0.93008770
H       -0.32879025      -1.75877596      -0.90812355
H       -1.78986640      -0.06968119       1.28748876
H       -1.85813324      -1.45310377       0.01601953
H       -1.00265283       0.55611367      -1.68832276
H       -2.19091295       1.49042195      -0.73883443
H       -0.50477953       2.25884536       0.81520106
H        1.68316163       1.33994058       1.07712515
17
Frame=4 idx=008417 GeodesicLength=0.18951130350289844 rxn_smarts="[O:1]([C@@:2]1([H:9])[C:3]([H:10])([H:11])[C:4]([H:12])([H:13])[C:5]([H:14])([H:15])[C:6]([H:16])=[C:7]1[H:17])[H:8]>>[O:1](/[C:2](=[C:7](/[C@:6]1([H:16])[C@@:4]([C:3]([H:10])([H:11])[H:13])([H:12])[C:5]1([H:14])[H:15])[H:17])[H:9])[H:8]"
O        2.75037419      -0.77178374      -0.03599458
C        1.53240031      -0.21134301      -0.35816598
C       -0.50006031      -1.40271586       0.09075792
C       -1.36785651      -0.24593974       0.31189431
C       -1.30640103       0.87435478      -0.68432610
C       -0.23092896       1.42623494       0.17086326
C        1.06119858       0.91839215       0.28063992
H        2.95331919      -0.56561766       0.87913436
H        1.33188085      -0.36978457      -1.40943262
H       -0.22826747      -2.04807022       0.91731648
H       -0.33039622      -1.74758051      -0.92045928
H       -1.77755395      -0.07455944       1.29826897
H       -1.85995178      -1.45747704       0.01895760
H       -1.01952714       0.56116965      -1.68843747
H       -2.20196917       1.48885031      -0.72385747
H       -0.49885108       2.26593873       0.80108548
H        1.69259052       1.35993123       1.05175522
17
Frame=5 idx=008417 GeodesicLength=0.23701607189366036 rxn_smarts="[O:1]([C@@:2]1([H:9])[C:3]([H:10])([H:11])[C:4]([H:12])([H:13])[C:5]([H:14])([H:15])[C:6]([H:16])=[C:7]1[H:17])[H:8]>>[O:1](/[C:2](=[C:7](/[C@:6]1([H:16])[C@@:4]([C:3]([H:10])([H:11])[H:13])([H:12])[C:5]1([H:14])[H:15])[H:17])[H:9])[H:8]"
O        2.74696365      -0.77768941      -0.01583934
C        1.53078942      -0.22020550      -0.35532329
C       -0.49318365      -1.40113108       0.08375511
C       -1.36248091      -0.24475230       0.31828188
C       -1.31633068       0.87359395      -0.68062255
C       -0.23364360       1.41975183       0.17027437
C        1.06295168       0.92062608       0.27075177
H        2.93177412      -0.57956134       0.90494755
H        1.36025940      -0.36080524      -1.41505370
H       -0.22764749      -2.05741686       0.90429722
H       -0.33187472      -1.73608658      -0.93275778
H       -1.76468627      -0.07944286       1.30910808
H       -1.86155525      -1.46191472       0.02200499
H       -1.03686078       0.56628789      -1.68833040
H       -2.21300632       1.48721903      -0.70839146
H       -0.49271082       2.27301518       0.78633307
H        1.70124223       1.37851192       1.02656448
17
Frame=6 idx=008417 GeodesicLength=0.2845876733048 rxn_smarts="[O:1]([C@@:2]1([H:9])[C:3]([H:10])([H:11])[C:4]([H:12])([H:13])[C:5]([H:14])([H:15])[C:6]([H:16])=[C:7]1[H:17])[H:8]>>[O:1](/[C:2](=[C:7](/[C@:6]1([H:16])[C@@:4]([C:3]([H:10])([H:11])[H:13])([H:12])[C:5]1([H:14])[H:15])[H:17])[H:9])[H:8]"
O        2.74280839      -0.78386715       0.00481669
C        1.52931374      -0.22869361      -0.35312206
C       -0.48615533      -1.39943086       0.07666080
C       -1.35686358      -0.24354510       0.32470295
C       -1.32632058       0.87284258      -0.67666730
C       -0.23619812       1.41340126       0.16951093
C        1.06475794       0.92292202       0.26035124
H        2.90922443      -0.59295719       0.93068065
H        1.38943140      -0.35199990      -1.42014875
H       -0.22664538      -2.06644905       0.89103494
H       -0.33326910      -1.72431392      -0.94501710
H       -1.75130529      -0.08432949       1.31997991
H       -1.86299625      -1.46640834       0.02513393
H       -1.05462889       0.57146340      -1.68798647
H       -2.22398957       1.48554483      -0.69245201
H       -0.48636837       2.28003003       0.77096465
H        1.70920458       1.39579049       1.00155698
17
Frame=7 idx=008417 GeodesicLength=0.33223987472527994 rxn_smarts="[O:1]([C@@:2]1([H:9])[C:3]([H:10])([H:11])[C:4]([H:12])([H:13])[C:5]([H:14])([H:15])[C:6]([H:16])=[C:7]1[H:17])[H:8]>>[O:1](/[C:2](=[C:7](/[C@:6]1([H:16])[C@@:4]([C:3]([H:10])([H:11])[H:13])([H:12])[C:5]1([H:14])[H:15])[H:17])[H:9])[H:8]"
O        2.73792040      -0.79023343       0.02592785
C        1.52797708      -0.23684406      -0.35153802
C       -0.47899138      -1.39762568       0.06946191
C       -1.35100276      -0.24232256       0.33115173
C       -1.33636122       0.87209540      -0.67245164
C       -0.23858815       1.40717456       0.16857424
C        1.06660838       0.92525561       0.24945259
H        2.88560366      -0.60582094       0.95632998
H        1.41940944      -0.34340136      -1.42468127
H       -0.22529492      -2.07519162       0.87751901
H       -0.33459873      -1.71226856      -0.95724691
H       -1.73740490      -0.08922237       1.33087042
H       -1.86428813      -1.47095769       0.02833410
H       -1.07282693       0.57669017      -1.68738743
H       -2.23489495       1.48382776      -0.67602788
H       -0.47984358       2.28694557       0.75499720
H        1.71657670       1.41189920       0.97671412
17
Frame=8 idx=008417 GeodesicLength=0.3799862612863961 rxn_smarts="[O:1]([C@@:2]1([H:9])[C:3]([H:10])([H:11])[C:4]([H:12])([H:13])[C:5]([H:14])([H:15])[C:6]([H:16])=[C:7]1[H:17])[H:8]>>[O:1](/[C:2](=[C:7](/[C@:6]1([H:16])[C@@:4]([C:3]([H:10])([H:11])[H:13])([H:12])[C:5]1([H:14])[H:15])[H:17])[H:9])[H:8]"
O        2.73233424      -0.79670973       0.04744021
C        1.52677973      -0.24468396      -0.35055292
C       -0.47170640      -1.39572132       0.06215154
C       -1.34490057      -0.24108590       0.33762239
C       -1.34644700       0.87134940      -0.66797223
C       -0.24081091       1.40107072       0.16746111
C        1.06849686       0.92761564       0.23806361
H        2.86088220      -0.61816991       0.98187994
H        1.45020392      -0.33503811      -1.42861729
H       -0.22362557      -2.08365900       0.86374895
H       -0.33588013      -1.69995689      -0.96944798
H       -1.72298090      -0.09412139       1.34176907
H       -1.86544318      -1.47556227       0.03160189
H       -1.09145219       0.58196127      -1.68651789
H       -2.24570580       1.48207006      -0.65911964
H       -0.47315203       2.29373644       0.73843779
H        1.72340773       1.42690494       0.95205146
17
Frame=9 idx=008417 GeodesicLength=0.427853382221061 rxn_smarts="[O:1]([C@@:2]1([H:9])[C:3]([H:10])([H:11])[C:4]([H:12])([H:13])[C:5]([H:14])([H:15])[C:6]([H:16])=[C:7]1[H:17])[H:8]>>[O:1](/[C:2](=[C:7](/[C@:6]1([H:16])[C@@:4]([C:3]([H:10])([H:11])[H:13])([H:12])[C:5]1([H:14])[H:15])[H:17])[H:9])[H:8]"
O        2.72588824      -0.80335220       0.06942543
C        1.52572640      -0.25229312      -0.35009326
C       -0.46433139      -1.39374301       0.05469611
C       -1.33856449      -0.23984708       0.34410905
C       -1.35657119       0.87060503      -0.66321163
C       -0.24286016       1.39506354       0.16617408
C        1.07041844       0.92996040       0.22618084
H        2.83518047      -0.62985203       1.00729938
H        1.48185801      -0.32693746      -1.43189248
H       -0.22171746      -2.09192901       0.84967508
H       -0.33712959      -1.68736802      -0.98166788
H       -1.70804014      -0.09905001       1.35266615
H       -1.86649031      -1.48021802       0.03489906
H       -1.11050121       0.58728406      -1.68535202
H       -2.25639462       1.48029251      -0.64169786
H       -0.46632369       2.30032867       0.72136635
H        1.72985271       1.44105576       0.92742360
17
Frame=10 idx=008417 GeodesicLength=0.47585631171814224 rxn_smarts="[O:1]([C@@:2]1([H:9])[C:3]([H:10])([H:11])[C:4]([H:12])([H:13])[C:5]([H:14])([H:15])[C:6]([H:16])=[C:7]1[H:17])[H:8]>>[O:1](/[C:2](=[C:7](/[C@:6]1([H:16])[C@@:4]([C:3]([H:10])([H:11])[H:13])([H:12])[C:5]1([H:14])[H:15])[H:17])[H:9])[H:8]"
O        2.71873338      -0.80999784       0.09175025
C        1.52482332      -0.25963233      -0.35020944
C       -0.45684314      -1.39167218       0.04710934
C       -1.33196998      -0.23859602       0.35061172
C       -1.36672864       0.86985226      -0.65817462
C       -0.24473476       1.38917693       0.16469352
C        1.07237181       0.93231710       0.21380051
H        2.80825811      -0.64105852       1.03258827
H        1.51435423      -0.31911018      -1.43449795
H       -0.21951974      -2.09994640       0.83533298
H       -0.33834571      -1.67451448      -0.99386998
H       -1.69253943      -0.10398216       1.36355528
H       -1.86740710      -1.48492780       0.03826502
H       -1.12998047       0.59263480      -1.68388405
H       -2.26695565       1.47846952      -0.62377511
H       -0.45936331       2.30674476       0.70372156
H        1.73584707       1.45424254       0.90298269
17
Frame=11 idx=008417 GeodesicLength=0.524025759123663 rxn_smarts="[O:1]([C@@:2]1([H:9])[C:3]([H:10])([H:11])[C:4]([H:12])([H:13])[C:5]([H:14])([H:15])[C:6]([H:16])=[C:7]1[H:17])[H:8]>>[O:1](/[C:2](=[C:7](/[C@:6]1([H:16])[C@@:4]([C:3]([H:10])([H:11])[H:13])([H:12])[C:5]1([H:14])[H:15])[H:17])[H:9])[H:8]"
O        2.71083759      -0.81662120       0.11441024
C        1.52407951      -0.26671750      -0.35089505
C       -0.44923796      -1.38951017       0.03938008
C       -1.32510193      -0.23733175       0.35712957
C       -1.37691666       0.86908508      -0.65285524
C       -0.24643033       1.38341012       0.16300389
C        1.07435734       0.93468266       0.20090844
H        2.78004221      -0.65180943       1.05772504
H        1.54770545      -0.31156308      -1.43639950
H       -0.21703807      -2.10772143       0.82071136
H       -0.33953146      -1.66139305      -1.00606423
H       -1.67644758      -0.10891313       1.37443430
H       -1.86818523      -1.48969081       0.04170411
H       -1.14989697       0.59800353      -1.68210024
H       -2.27737498       1.47659581      -0.60533784
H       -0.45229295       2.31295869       0.68551408
H        1.74143201       1.46653564       0.87873098
17
Frame=12 idx=008417 GeodesicLength=0.5724038304373642 rxn_smarts="[O:1]([C@@:2]1([H:9])[C:3]([H:10])([H:11])[C:4]([H:12])([H:13])[C:5]([H:14])([H:15])[C:6]([H:16])=[C:7]1[H:17])[H:8]>>[O:1](/[C:2](=[C:7](/[C@:6]1([H:16])[C@@:4]([C:3]([H:10])([H:11])[H:13])([H:12])[C:5]1([H:14])[H:15])[H:17])[H:9])[H:8]"
O        2.70212960      -0.82320590       0.13740734
C        1.52351051      -0.27355427      -0.35215950
C       -0.44150097      -1.38725617       0.03149450
C       -1.31793221      -0.23605467       0.36366188
C       -1.38712974       0.86829510      -0.64724395
C       -0.24793983       1.37776635       0.16108246
C        1.07637893       0.93706461       0.18746863
H        2.75038914      -0.66213374       1.08268876
H        1.58193690      -0.30430134      -1.43756942
H       -0.21425816      -2.11526111       0.80579924
H       -0.34068399      -1.64799831      -1.01826120
H       -1.65971333      -0.11384020       1.38530026
H       -1.86880613      -1.49451024       0.04523225
H       -1.17026440       0.60337663      -1.67998107
H       -2.28763837       1.47465839      -0.58636074
H       -0.44513027       2.31895181       0.66674503
H        1.74665231       1.47800306       0.85469556
17
Frame=13 idx=008417 GeodesicLength=0.6210340744048354 rxn_smarts="[O:1]([C@@:2]1([H:9])[C:3]([H:10])([H:11])[C:4]([H:12])([H:13])[C:5]([H:14])([H:15])[C:6]([H:16])=[C:7]1[H:17])[H:8]>>[O:1](/[C:2](=[C:7](/[C@:6]1([H:16])[C@@:4]([C:3]([H:10])([H:11])[H:13])([H:12])[C:5]1([H:14])[H:15])[H:17])[H:9])[H:8]"
O        2.69257753      -0.82973964       0.16073210
C        1.52312212      -0.28014060      -0.35400731
C       -0.43362039      -1.38490560       0.02344549
C       -1.31044433      -0.23476228       0.37020895
C       -1.39736341       0.86747687      -0.64133603
C       -0.24926229       1.37225306       0.15891167
C        1.07843597       0.93947350       0.17347262
H        2.71922832      -0.67208232       1.10745749
H        1.61705578      -0.29731479      -1.43796733
H       -0.21116715      -2.12255976       0.79059135
H       -0.34179639      -1.63432805      -1.03046085
H       -1.64230519      -0.11875641       1.39615065
H       -1.86925406      -1.49938729       0.04886145
H       -1.19108674       0.60874083      -1.67750986
H       -2.29773262       1.47265163      -0.56683832
H       -0.43789792       2.32470846       0.64742096
H        1.75151079       1.48867239       0.83086698
17
Frame=14 idx=008417 GeodesicLength=0.6699730937583706 rxn_smarts="[O:1]([C@@:2]1([H:9])[C:3]([H:10])([H:11])[C:4]([H:12])([H:13])[C:5]([H:14])([H:15])[C:6]([H:16])=[C:7]1[H:17])[H:8]>>[O:1](/[C:2](=[C:7](/[C@:6]1([H:16])[C@@:4]([C:3]([H:10])([H:11])[H:13])([H:12])[C:5]1([H:14])[H:15])[H:17])[H:9])[H:8]"
O        2.68211030      -0.83621260       0.18438481
C        1.52292612      -0.28648106      -0.35645183
C       -0.42558357      -1.38245787       0.01522026
C       -1.30261306      -0.23345488       0.37677016
C       -1.40761402       0.86662073      -0.63512254
C       -0.25038895       1.36687472       0.15646396
C        1.08053096       0.94191450       0.15888949
H        2.68643608      -0.68167562       1.13199905
H        1.65308604      -0.29060082      -1.43755138
H       -0.20775060      -2.12962092       0.77507890
H       -0.34286765      -1.62037770      -1.04267278
H       -1.62417035      -0.12365666       1.40698328
H       -1.86951237      -1.50432648       0.05260910
H       -1.21237818       0.61407944      -1.67466712
H       -2.30764264       1.47056398      -0.54675140
H       -0.43061727       2.33021666       0.62754275
H        1.75604916       1.49859459       0.80727528
17
Frame=15 idx=008417 GeodesicLength=0.7192901709383834 rxn_smarts="[O:1]([C@@:2]1([H:9])[C:3]([H:10])([H:11])[C:4]([H:12])([H:13])[C:5]([H:14])([H:15])[C:6]([H:16])=[C:7]1[H:17])[H:8]>>[O:1](/[C:2](=[C:7](/[C@:6]1([H:16])[C@@:4]([C:3]([H:10])([H:11])[H:13])([H:12])[C:5]1([H:14])[H:15])[H:17])[H:9])[H:8]"
O        2.67063522      -0.84262599       0.20837083
C        1.52293490      -0.29257272      -0.35951414
C       -0.41737425      -1.37991051       0.00680468
C       -1.29440731      -0.23213180       0.38334574
C       -1.41787705       0.86571679      -0.62859347
C       -0.25131222       1.36163696       0.15370912
C        1.08266755       0.94439714       0.14368587
H        2.65187212      -0.69093738       1.15628043
H        1.69006265      -0.28415041      -1.43627030
H       -0.20398523      -2.13644401       0.75925031
H       -0.34389312      -1.60614112      -1.05490557
H       -1.60524541      -0.12853462       1.41779615
H       -1.86955615      -1.50933249       0.05649874
H       -1.23415505       0.61937387      -1.67143019
H       -2.31735078       1.46838377      -0.52607509
H       -0.42330841       2.33546507       0.60711044
H        1.76029255       1.50780743       0.78393644
17
Frame=16 idx=008417 GeodesicLength=0.7690760559759507 rxn_smarts="[O:1]([C@@:2]1([H:9])[C:3]([H:10])([H:11])[C:4]([H:12])([H:13])[C:5]([H:14])([H:15])[C:6]([H:16])=[C:7]1[H:17])[H:8]>>[O:1](/[C:2](=[C:7](/[C@:6]1([H:16])[C@@:4]([C:3]([H:10])([H:11])[H:13])([H:12])[C:5]1([H:14])[H:15])[H:17])[H:9])[H:8]"
O        2.65807558      -0.84897507       0.23268049
C        1.52316009      -0.29840493      -0.36321680
C       -0.40897039      -1.37725770      -0.00180931
C       -1.28579667      -0.23079013       0.38993839
C       -1.42814791       0.86475424      -0.62174109
C       -0.25202598       1.35654893       0.15061484
C        1.08484978       0.94693648       0.12783638
H        2.61538750      -0.69993008       1.18025646
H        1.72802012      -0.27793999      -1.43406228
H       -0.19984111      -2.14302097       0.74310195
H       -0.34486433      -1.59161321      -1.06716218
H       -1.58547124      -0.13337910       1.42859255
H       -1.86935774      -1.51441097       0.06055828
H       -1.25643010       0.62460065      -1.66777677
H       -2.32684086       1.46609747      -0.50479269
H       -0.41599491       2.34045126       0.58611510
H        1.76424816       1.51633310       0.76086669
