15
Frame=0 idx=010481 GeodesicLength=0.0 rxn_smarts="[C:1]([c:2]1[c:3]([H:11])[n:4]([H:12])[c:5]([N:6]([H:13])[H:14])[c:7]1[H:15])([H:8])([H:9])[H:10]>>[C:1]([C:2]1=[C:7]([H:15])[C@:3]1([N:4]([C:5][N:6]([H:13])[H:14])[H:12])[H:11])([H:8])([H:9])[H:10]"
C       -2.40074798      -0.30270640      -0.35604397
C       -1.04358940      -0.07301851       0.20395496
C       -0.18135324       1.11589516       0.14944611
N        1.15922377       1.04299132      -0.10203219
C        1.79018649      -0.00781148       0.52433292
N        2.61620387      -0.68049965      -0.31178503
C       -0.21412913      -0.52428429       1.09399784
H       -2.35836594      -0.39538043      -1.44487664
H       -2.85153809      -1.20490669       0.05826101
H       -3.05269967       0.54472816      -0.12925731
H       -0.60224288       2.09861457       0.36716523
H        1.62166552       1.64108462      -0.76914419
H        3.21641558      -1.38198626       0.07935511
H        2.51226352      -0.69607204      -1.31747841
H       -0.21129238      -1.17664803       1.95410452
15
Frame=1 idx=010481 GeodesicLength=0.037799464952063884 rxn_smarts="[C:1]([c:2]1[c:3]([H:11])[n:4]([H:12])[c:5]([N:6]([H:13])[H:14])[c:7]1[H:15])([H:8])([H:9])[H:10]>>[C:1]([C:2]1=[C:7]([H:15])[C@:3]1([N:4]([C:5][N:6]([H:13])[H:14])[H:12])[H:11])([H:8])([H:9])[H:10]"
C       -2.40017924      -0.30205128      -0.35688107
C       -1.04482971      -0.06663138       0.20390121
C       -0.18525850       1.12069047       0.16236421
N        1.15578167       1.04205793      -0.09948059
C        1.77764015      -0.01886526       0.51485031
N        2.62454954      -0.67466620      -0.31546374
C       -0.20909913      -0.52249300       1.09051882
H       -2.35178756      -0.41709641      -1.44325999
H       -2.85699419      -1.19454703       0.07175636
H       -3.05100962       0.55122579      -0.15017343
H       -0.60061604       2.10474139       0.38180880
H        1.61793929       1.64006713      -0.76678449
H        3.22275793      -1.37548250       0.08024653
H        2.51159985      -0.70658043      -1.31982165
H       -0.21049444      -1.18036923       1.94641873
15
Frame=2 idx=010481 GeodesicLength=0.07568224211212521 rxn_smarts="[C:1]([c:2]1[c:3]([H:11])[n:4]([H:12])[c:5]([N:6]([H:13])[H:14])[c:7]1[H:15])([H:8])([H:9])[H:10]>>[C:1]([C:2]1=[C:7]([H:15])[C@:3]1([N:4]([C:5][N:6]([H:13])[H:14])[H:12])[H:11])([H:8])([H:9])[H:10]"
C       -2.40024921      -0.30096049      -0.35741303
C       -1.04650591      -0.06034417       0.20384647
C       -0.18923374       1.12501027       0.17527641
N        1.15205048       1.04048199      -0.09755258
C        1.76477900      -0.03042452       0.50449025
N        2.63297362      -0.66906608      -0.31891932
C       -0.20444259      -0.52117329       1.08673943
H       -2.34611283      -0.43897478      -1.44077542
H       -2.86363235      -1.18291843       0.08589123
H       -3.04925602       0.55830249      -0.17134617
H       -0.59871567       2.11045548       0.39667851
H        1.61380680       1.63850643      -0.76504071
H        3.23047518      -1.36765032       0.08209638
H        2.51390837      -0.71625767      -1.32199439
H       -0.20984514      -1.18498690       1.93802295
15
Frame=3 idx=010481 GeodesicLength=0.11369982410649204 rxn_smarts="[C:1]([c:2]1[c:3]([H:11])[n:4]([H:12])[c:5]([N:6]([H:13])[H:14])[c:7]1[H:15])([H:8])([H:9])[H:10]>>[C:1]([C:2]1=[C:7]([H:15])[C@:3]1([N:4]([C:5][N:6]([H:13])[H:14])[H:12])[H:11])([H:8])([H:9])[H:10]"
C       -2.40094289      -0.29944852      -0.35763665
C       -1.04862678      -0.05413444       0.20385062
C       -0.19327143       1.12886276       0.18823321
N        1.14801140       1.03828937      -0.09624784
C        1.75157812      -0.04252069       0.49314232
N        2.64166512      -0.66348643      -0.32213625
C       -0.20013679      -0.52033763       1.08265931
H       -2.34127018      -0.46137050      -1.43732619
H       -2.87155342      -1.16979888       0.10088366
H       -3.04734150       0.56602407      -0.19312479
H       -0.59651995       2.11574671       0.41189654
H        1.60923346       1.63648155      -0.76387512
H        3.23925918      -1.35868156       0.08490900
H        2.51921019      -0.72501394      -1.32405386
H       -0.20929452      -1.19061188       1.92882605
15
Frame=4 idx=010481 GeodesicLength=0.15190601071679619 rxn_smarts="[C:1]([c:2]1[c:3]([H:11])[n:4]([H:12])[c:5]([N:6]([H:13])[H:14])[c:7]1[H:15])([H:8])([H:9])[H:10]>>[C:1]([C:2]1=[C:7]([H:15])[C@:3]1([N:4]([C:5][N:6]([H:13])[H:14])[H:12])[H:11])([H:8])([H:9])[H:10]"
C       -2.40230211      -0.29748218      -0.35752727
C       -1.05122087      -0.04800307       0.20393021
C       -0.19736561       1.13222230       0.20127126
N        1.14363029       1.03545848      -0.09561502
C        1.73799510      -0.05521836       0.48066238
N        2.65080559      -0.65774713      -0.32506140
C       -0.19617578      -0.52006408       1.07820372
H       -2.33731780      -0.48463024      -1.43275645
H       -2.88095423      -1.15484178       0.11700917
H       -3.04515102       0.57451944      -0.21585328
H       -0.59397540       2.12056904       0.42763696
H        1.60415764       1.63400500      -0.76332397
H        3.24907035      -1.34851207       0.08879962
H        2.52761207      -0.73280645      -1.32599334
H       -0.20880821      -1.19746890       1.91861743
15
Frame=5 idx=010481 GeodesicLength=0.19036868968279258 rxn_smarts="[C:1]([c:2]1[c:3]([H:11])[n:4]([H:12])[c:5]([N:6]([H:13])[H:14])[c:7]1[H:15])([H:8])([H:9])[H:10]>>[C:1]([C:2]1=[C:7]([H:15])[C@:3]1([N:4]([C:5][N:6]([H:13])[H:14])[H:12])[H:11])([H:8])([H:9])[H:10]"
C       -2.40443032      -0.29499648      -0.35702607
C       -1.05434337      -0.04196803       0.20408428
C       -0.20151527       1.13502791       0.21439988
N        1.13885751       1.03191482      -0.09576771
C        1.72397143      -0.06862754       0.46684676
N        2.66061745      -0.65167665      -0.32759908
C       -0.19256812      -0.52046894       1.07325568
H       -2.33443902      -0.50903319      -1.42684562
H       -2.89208356      -1.13763881       0.13454429
H       -3.04259511       0.58391988      -0.23979741
H       -0.59101691       2.12484286       0.44405031
H        1.59850214       1.63103769      -0.76348805
H        3.25993457      -1.33702474       0.09397834
H        2.53947313      -0.73948914      -1.32777167
H       -0.20836454      -1.20581966       1.90713606
15
Frame=6 idx=010481 GeodesicLength=0.2288637944861806 rxn_smarts="[C:1]([c:2]1[c:3]([H:11])[n:4]([H:12])[c:5]([N:6]([H:13])[H:14])[c:7]1[H:15])([H:8])([H:9])[H:10]>>[C:1]([C:2]1=[C:7]([H:15])[C@:3]1([N:4]([C:5][N:6]([H:13])[H:14])[H:12])[H:11])([H:8])([H:9])[H:10]"
C       -2.40672757      -0.29232060      -0.35638761
C       -1.05755170      -0.03600042       0.20428256
C       -0.20558667       1.13753010       0.22769009
N        1.13393436       1.02826335      -0.09621602
C        1.70980214      -0.08215584       0.45207045
N        2.67030002      -0.64553178      -0.32987240
C       -0.18897687      -0.52120455       1.06804210
H       -2.33203077      -0.53362465      -1.42000330
H       -2.90362857      -1.11939350       0.15220870
H       -3.03965903       0.59321083      -0.26416240
H       -0.58786342       2.12875585       0.46081772
H        1.59240342       1.62789904      -0.76421054
H        3.27038572      -1.32524320       0.09995869
H        2.55294680      -0.74557708      -1.32938009
H       -0.20774787      -1.21460754       1.89516205
15
Frame=7 idx=010481 GeodesicLength=0.2674608671822369 rxn_smarts="[C:1]([c:2]1[c:3]([H:11])[n:4]([H:12])[c:5]([N:6]([H:13])[H:14])[c:7]1[H:15])([H:8])([H:9])[H:10]>>[C:1]([C:2]1=[C:7]([H:15])[C@:3]1([N:4]([C:5][N:6]([H:13])[H:14])[H:12])[H:11])([H:8])([H:9])[H:10]"
C       -2.40936394      -0.28935606      -0.35552553
C       -1.06094686      -0.03012776       0.20450839
C       -0.20958890       1.13963003       0.24110747
N        1.12879325       1.02434831      -0.09713873
C        1.69538880      -0.09596792       0.43610590
N        2.68011702      -0.63917544      -0.33177078
C       -0.18545233      -0.52241216       1.06241261
H       -2.33037594      -0.55858071      -1.41204040
H       -2.91589683      -1.09973284       0.17028603
H       -3.03631304       0.60259195      -0.28908030
H       -0.58441577       2.13220606       0.47806857
H        1.58577703       1.62448885      -0.76562410
H        3.28067634      -1.31291210       0.10700575
H        2.56858133      -0.75089728      -1.33074024
H       -0.20698017      -1.22410294       1.88242536
15
Frame=8 idx=010481 GeodesicLength=0.3062589919922273 rxn_smarts="[C:1]([c:2]1[c:3]([H:11])[n:4]([H:12])[c:5]([N:6]([H:13])[H:14])[c:7]1[H:15])([H:8])([H:9])[H:10]>>[C:1]([C:2]1=[C:7]([H:15])[C@:3]1([N:4]([C:5][N:6]([H:13])[H:14])[H:12])[H:11])([H:8])([H:9])[H:10]"
C       -2.41261152      -0.28594845      -0.35429773
C       -1.06465951      -0.02441494       0.20467617
C       -0.21354010       1.14117073       0.25457716
N        1.12335156       1.01995056      -0.09878287
C        1.68061086      -0.11032523       0.41860442
N        2.69046421      -0.63240814      -0.33311297
C       -0.18206963      -0.52432265       1.05611444
H       -2.32997870      -0.58416206      -1.40265224
H       -2.92933465      -1.07806511       0.18925245
H       -3.03254094       0.61236161      -0.31473435
H       -0.58055797       2.13502632       0.49595335
H        1.57852642       1.62067124      -0.76791362
H        3.29118088      -1.29966282       0.11553121
H        2.58726627      -0.75515104      -1.33172026
H       -0.20610719      -1.23472002       1.86850482
15
Frame=9 idx=010481 GeodesicLength=0.3453687868541721 rxn_smarts="[C:1]([c:2]1[c:3]([H:11])[n:4]([H:12])[c:5]([N:6]([H:13])[H:14])[c:7]1[H:15])([H:8])([H:9])[H:10]>>[C:1]([C:2]1=[C:7]([H:15])[C@:3]1([N:4]([C:5][N:6]([H:13])[H:14])[H:12])[H:11])([H:8])([H:9])[H:10]"
C       -2.41676697      -0.28192127      -0.35252186
C       -1.06883084      -0.01892113       0.20471116
C       -0.21743095       1.14197826       0.26800122
N        1.11750053       1.01481611      -0.10152514
C        1.66532311      -0.12549871       0.39908879
N        2.70174951      -0.62500399      -0.33360662
C       -0.17888658      -0.52718781       1.04882798
H       -2.33144718      -0.61037081      -1.39151454
H       -2.94428955      -1.05389601       0.20944473
H       -3.02839357       0.62273382      -0.34102893
H       -0.57610191       2.13702824       0.51461624
H        1.57047736       1.61621622      -0.77147083
H        3.30212627      -1.28515311       0.12614152
H        2.61011714      -0.75794511      -1.33206927
H       -0.20514638      -1.24687470       1.85290556
15
Frame=10 idx=010481 GeodesicLength=0.38497011066243336 rxn_smarts="[C:1]([c:2]1[c:3]([H:11])[n:4]([H:12])[c:5]([N:6]([H:13])[H:14])[c:7]1[H:15])([H:8])([H:9])[H:10]>>[C:1]([C:2]1=[C:7]([H:15])[C@:3]1([N:4]([C:5][N:6]([H:13])[H:14])[H:12])[H:11])([H:8])([H:9])[H:10]"
C       -2.42227489      -0.27702358      -0.34991877
C       -1.07363741      -0.01377557       0.20442428
C       -0.22125374       1.14177575       0.28120459
N        1.11110650       1.00859149      -0.10586723
C        1.64933849      -0.14192671       0.37682199
N        2.71456659      -0.61661367      -0.33282190
C       -0.17598135      -0.53140657       1.04004816
H       -2.33575550      -0.63735471      -1.37812110
H       -2.96129334      -1.02639464       0.23151977
H       -3.02392216       0.63407555      -0.36793032
H       -0.57081693       2.13790536       0.53420852
H        1.56144814       1.61085535      -0.77674741
H        3.31379363      -1.26893427       0.13968671
H        2.63880042      -0.75859768      -1.33140270
H       -0.20411845      -1.26117610       1.83489540
15
Frame=11 idx=010481 GeodesicLength=0.42492315403296005 rxn_smarts="[C:1]([c:2]1[c:3]([H:11])[n:4]([H:12])[c:5]([N:6]([H:13])[H:14])[c:7]1[H:15])([H:8])([H:9])[H:10]>>[C:1]([C:2]1=[C:7]([H:15])[C@:3]1([N:4]([C:5][N:6]([H:13])[H:14])[H:12])[H:11])([H:8])([H:9])[H:10]"
C       -2.42882706      -0.27139486      -0.34655186
C       -1.07883198      -0.00894861       0.20380934
C       -0.22489374       1.14067529       0.29421329
N        1.10428685       1.00162147      -0.11167079
C        1.63280690      -0.15926762       0.35176054
N        2.72839891      -0.60735794      -0.33065010
C       -0.17310304      -0.53683263       1.02976109
H       -2.34266767      -0.66461419      -1.36259344
H       -2.97958759      -0.99608380       0.25494283
H       -3.01913800       0.64587361      -0.39499510
H       -0.56473422       2.13771232       0.55462185
H        1.55138712       1.60470629      -0.78392000
H        3.32514642      -1.25156928       0.15615945
H        2.67252113      -0.75719104      -1.32942842
H       -0.20276405      -1.27732898       1.81454131
15
Frame=12 idx=010481 GeodesicLength=0.4650778517844068 rxn_smarts="[C:1]([c:2]1[c:3]([H:11])[n:4]([H:12])[c:5]([N:6]([H:13])[H:14])[c:7]1[H:15])([H:8])([H:9])[H:10]>>[C:1]([C:2]1=[C:7]([H:15])[C@:3]1([N:4]([C:5][N:6]([H:13])[H:14])[H:12])[H:11])([H:8])([H:9])[H:10]"
C       -2.43616293      -0.26514960      -0.34244470
C       -1.08418666      -0.00442202       0.20281786
C       -0.22823994       1.13876774       0.30698302
N        1.09714651       0.99420223      -0.11889295
C        1.61587264      -0.17717186       0.32386264
N        2.74279622      -0.59735177      -0.32691697
C       -0.17001759      -0.54332889       1.01789700
H       -2.35201644      -0.69146050      -1.34515468
H       -2.99840365      -0.96365563       0.27918230
H       -3.01417208       0.65769719      -0.42149593
H       -0.55786367       2.13649694       0.57567537
H        1.54023591       1.59784248      -0.79324333
H        3.33525004      -1.23357524       0.17563964
H        2.71060296      -0.75383365      -1.32575891
H       -0.20084132      -1.29505744       1.79184962
15
Frame=13 idx=010481 GeodesicLength=0.5052900471325874 rxn_smarts="[C:1]([c:2]1[c:3]([H:11])[n:4]([H:12])[c:5]([N:6]([H:13])[H:14])[c:7]1[H:15])([H:8])([H:9])[H:10]>>[C:1]([C:2]1=[C:7]([H:15])[C@:3]1([N:4]([C:5][N:6]([H:13])[H:14])[H:12])[H:11])([H:8])([H:9])[H:10]"
C       -2.44395582      -0.25846875      -0.33767668
C       -1.08944157      -0.00018174       0.20140465
C       -0.23119439       1.13616828       0.31950534
N        1.08983551       0.98670636      -0.12731278
C        1.59870921      -0.19523498       0.29320814
N        2.75717436      -0.58678004      -0.32160089
C       -0.16648450      -0.55070835       1.00446357
H       -2.36343857      -0.71773158      -1.32596065
H       -3.01711111      -0.92956782       0.30396251
H       -3.00899128       0.66916868      -0.44726661
H       -0.55027373       2.13431139       0.59725050
H        1.52806107       1.59053620      -0.80462283
H        3.34313895      -1.21557600       0.19786842
H        2.75207229      -0.74860626      -1.32013684
H       -0.19810041      -1.31403541       1.76691415
15
Frame=14 idx=010481 GeodesicLength=0.5453844425802477 rxn_smarts="[C:1]([c:2]1[c:3]([H:11])[n:4]([H:12])[c:5]([N:6]([H:13])[H:14])[c:7]1[H:15])([H:8])([H:9])[H:10]>>[C:1]([C:2]1=[C:7]([H:15])[C@:3]1([N:4]([C:5][N:6]([H:13])[H:14])[H:12])[H:11])([H:8])([H:9])[H:10]"
C       -2.45175658      -0.25161398      -0.33240930
C       -1.09427839       0.00382720       0.19954596
C       -0.23367139       1.13309886       0.33178027
N        1.08254515       0.97962553      -0.13660644
C        1.58159684      -0.21281186       0.26023879
N        2.77079694      -0.57595833      -0.31480089
C       -0.16223339      -0.55863227       0.98960968
H       -2.37628208      -0.74307299      -1.30541808
H       -3.03487713      -0.89471749       0.32873275
H       -3.00364030       0.67981137      -0.47192986
H       -0.54212482       2.13134118       0.61911991
H        1.51502579       1.58318090      -0.81781485
H        3.34787925      -1.19829147       0.22233222
H        2.79530330      -0.74202587      -1.31238849
H       -0.19428320      -1.33376080       1.74000834
15
Frame=15 idx=010481 GeodesicLength=0.585459907113001 rxn_smarts="[C:1]([c:2]1[c:3]([H:11])[n:4]([H:12])[c:5]([N:6]([H:13])[H:14])[c:7]1[H:15])([H:8])([H:9])[H:10]>>[C:1]([C:2]1=[C:7]([H:15])[C@:3]1([N:4]([C:5][N:6]([H:13])[H:14])[H:12])[H:11])([H:8])([H:9])[H:10]"
C       -2.45954660      -0.24464344      -0.32656752
C       -1.09864229       0.00756222       0.19714683
C       -0.23566440       1.12953546       0.34370681
N        1.07530045       0.97305841      -0.14683560
C        1.56455498      -0.22979642       0.22473820
N        2.78352996      -0.56494093      -0.30643186
C       -0.15718641      -0.56710943       0.97317797
H       -2.39057330      -0.76794131      -1.28325546
H       -3.05172539      -0.85877097       0.35392270
H       -2.99803622       0.68959691      -0.49586232
H       -0.53344512       2.12751452       0.64128388
H        1.50128874       1.57611574      -0.83257619
H        3.34901700      -1.18210963       0.24893161
H        2.84039421      -0.73377203      -1.30228612
H       -0.18926562      -1.35429909       1.71090706
15
Frame=16 idx=010481 GeodesicLength=0.6253010671380657 rxn_smarts="[C:1]([c:2]1[c:3]([H:11])[n:4]([H:12])[c:5]([N:6]([H:13])[H:14])[c:7]1[H:15])([H:8])([H:9])[H:10]>>[C:1]([C:2]1=[C:7]([H:15])[C@:3]1([N:4]([C:5][N:6]([H:13])[H:14])[H:12])[H:11])([H:8])([H:9])[H:10]"
C       -2.46579649      -0.23845045      -0.32109396
C       -1.10172150       0.01133914       0.19447623
C       -0.23713492       1.12633811       0.35569561
N        1.06861806       0.96836311      -0.15625135
C        1.54841731      -0.24418334       0.18963797
N        2.79330919      -0.55485471      -0.29787075
C       -0.15090703      -0.57474656       0.95656650
H       -2.40343807      -0.79193054      -1.26102203
H       -3.06570429      -0.82435568       0.37734350
H       -2.99186255       0.69711520      -0.51902765
H       -0.52502514       2.12367896       0.66317963
H        1.48764169       1.57054443      -0.84700014
H        3.34559142      -1.16825270       0.27488834
H        2.88084041      -0.72689650      -1.29098230
H       -0.18282811      -1.37370848       1.68146040
