8
Frame=0 idx=004718 GeodesicLength=0.0 rxn_smarts="[O:1]([c:2]1[n:3][o:4][c:5]([H:8])[n:6]1)[H:7]>>[O:1]([C:2]1=[N:3][N:6]1[C:5](=[O:4])[H:8])[H:7]"
O        1.90245650       0.42156686       0.57917834
C        0.77015139      -0.15184391       0.21035126
N        0.50492945      -1.25553851      -0.30936148
O       -1.73209360      -0.69493328      -0.95515148
C       -1.48590669       0.27082999      -0.25630721
N       -0.40339911       0.47432843       0.49439628
H        2.64334503      -0.17025120       0.40364467
H       -2.19948296       1.10584163      -0.16675037
8
Frame=1 idx=004718 GeodesicLength=0.036796252135544716 rxn_smarts="[O:1]([c:2]1[n:3][o:4][c:5]([H:8])[n:6]1)[H:7]>>[O:1]([C:2]1=[N:3][N:6]1[C:5](=[O:4])[H:8])[H:7]"
O        1.91366451       0.42197090       0.55534364
C        0.77058885      -0.13876307       0.20309807
N        0.47590251      -1.26782694      -0.24348995
O       -1.68913290      -0.66637860      -1.00653815
C       -1.47597287       0.28184316      -0.27070917
N       -0.39777011       0.49799859       0.48415921
H        2.64185418      -0.19048190       0.39840420
H       -2.23913417       1.06163787      -0.12026787
8
Frame=2 idx=004718 GeodesicLength=0.07394113948751804 rxn_smarts="[O:1]([c:2]1[n:3][o:4][c:5]([H:8])[n:6]1)[H:7]>>[O:1]([C:2]1=[N:3][N:6]1[C:5](=[O:4])[H:8])[H:7]"
O        1.92484623       0.41996385       0.53161700
C        0.76980024      -0.12778708       0.20115739
N        0.44441423      -1.27385737      -0.17872059
O       -1.64414675      -0.63599809      -1.05526719
C       -1.46566327       0.29535312      -0.28628837
N       -0.39144399       0.52600450       0.47165379
H        2.63936029      -0.21219676       0.39072707
H       -2.27716697       1.00851782      -0.07487911
8
Frame=3 idx=004718 GeodesicLength=0.11155690157926648 rxn_smarts="[O:1]([c:2]1[n:3][o:4][c:5]([H:8])[n:6]1)[H:7]>>[O:1]([C:2]1=[N:3][N:6]1[C:5](=[O:4])[H:8])[H:7]"
O        1.93547498       0.41645940       0.50808842
C        0.76817680      -0.11717473       0.20108687
N        0.41200310      -1.27329482      -0.11949475
O       -1.60019446      -0.60634927      -1.09790193
C       -1.45591488       0.31009780      -0.30122639
N       -0.38507595       0.55536369       0.45879987
H        2.63542033      -0.23521499       0.38403590
H       -2.30988993       0.95011293      -0.03338799
8
Frame=4 idx=004718 GeodesicLength=0.1498493243774721 rxn_smarts="[O:1]([c:2]1[n:3][o:4][c:5]([H:8])[n:6]1)[H:7]>>[O:1]([C:2]1=[N:3][N:6]1[C:5](=[O:4])[H:8])[H:7]"
O        1.94516686       0.41127564       0.48644640
C        0.76573400      -0.10649360       0.20243502
N        0.37918998      -1.26743305      -0.06528364
O       -1.55784209      -0.57806864      -1.13445450
C       -1.44661830       0.32633388      -0.31578590
N       -0.37915082       0.58490540       0.44667023
H        2.63021150      -0.25852316       0.37646542
H       -2.33669113       0.88800353       0.00350698
8
Frame=5 idx=004718 GeodesicLength=0.18891914209469013 rxn_smarts="[O:1]([c:2]1[n:3][o:4][c:5]([H:8])[n:6]1)[H:7]>>[O:1]([C:2]1=[N:3][N:6]1[C:5](=[O:4])[H:8])[H:7]"
O        1.95435470       0.40602207       0.46256241
C        0.76311105      -0.09492982       0.20173639
N        0.34691735      -1.25685202      -0.01797209
O       -1.51872763      -0.55155297      -1.16506271
C       -1.43862514       0.34306159      -0.32890615
N       -0.37317808       0.61425898       0.43427628
H        2.62323859      -0.28328280       0.37542662
H       -2.35709084       0.82327497       0.03793926
8
Frame=6 idx=004718 GeodesicLength=0.22857819160687104 rxn_smarts="[O:1]([c:2]1[n:3][o:4][c:5]([H:8])[n:6]1)[H:7]>>[O:1]([C:2]1=[N:3][N:6]1[C:5](=[O:4])[H:8])[H:7]"
O        1.96228655       0.40019019       0.43916496
C        0.75984894      -0.08380805       0.20219759
N        0.31580284      -1.24370475       0.02416236
O       -1.48157224      -0.52673063      -1.19096506
C       -1.43206491       0.35848431      -0.33920857
N       -0.36836686       0.64124281       0.42470155
H        2.61527185      -0.30650061       0.37389384
H       -2.37120617       0.76082673       0.06605332
8
Frame=7 idx=004718 GeodesicLength=0.2694563095802177 rxn_smarts="[O:1]([c:2]1[n:3][o:4][c:5]([H:8])[n:6]1)[H:7]>>[O:1]([C:2]1=[N:3][N:6]1[C:5](=[O:4])[H:8])[H:7]"
O        1.96964815       0.39447246       0.41108480
C        0.75621946      -0.07270733       0.20223383
N        0.28569941      -1.22839888       0.06157481
O       -1.44600832      -0.50219399      -1.21332082
C       -1.42667961       0.37326144      -0.34702934
N       -0.36412428       0.66660423       0.41696067
H        2.60586000      -0.32961765       0.37771057
H       -2.38061481       0.69857973       0.09078547
8
Frame=8 idx=004718 GeodesicLength=0.3109032899229822 rxn_smarts="[O:1]([c:2]1[n:3][o:4][c:5]([H:8])[n:6]1)[H:7]>>[O:1]([C:2]1=[N:3][N:6]1[C:5](=[O:4])[H:8])[H:7]"
O        1.97593090       0.38768286       0.38517805
C        0.75242292      -0.06157377       0.20185881
N        0.25680202      -1.21154149       0.09515519
O       -1.41269777      -0.47949819      -1.23201485
C       -1.42242204       0.38706071      -0.35331218
N       -0.36039901       0.69074935       0.40999579
H        2.59578032      -0.35124312       0.38118058
H       -2.38541733       0.63836363       0.11195861
8
Frame=9 idx=004718 GeodesicLength=0.3529069515588861 rxn_smarts="[O:1]([c:2]1[n:3][o:4][c:5]([H:8])[n:6]1)[H:7]>>[O:1]([C:2]1=[N:3][N:6]1[C:5](=[O:4])[H:8])[H:7]"
O        1.98126001       0.38052753       0.35744539
C        0.74830845      -0.05113244       0.20256710
N        0.22948650      -1.19435825       0.12527580
O       -1.38057446      -0.45788861      -1.24766130
C       -1.41887645       0.39953123      -0.35742292
N       -0.35776123       0.71218490       0.40623066
H        2.58522303      -0.37082362       0.38531879
H       -2.38706584       0.58195925       0.12824649
8
Frame=10 idx=004718 GeodesicLength=0.3953175884377255 rxn_smarts="[O:1]([c:2]1[n:3][o:4][c:5]([H:8])[n:6]1)[H:7]>>[O:1]([C:2]1=[N:3][N:6]1[C:5](=[O:4])[H:8])[H:7]"
O        1.98536338       0.37268429       0.33207177
C        0.74390419      -0.04099344       0.20467196
N        0.20332978      -1.17676332       0.15356055
O       -1.34922815      -0.43779689      -1.26072460
C       -1.41584480       0.41089495      -0.36040628
N       -0.35604072       0.73208166       0.40430008
H        2.57464609      -0.38884132       0.38613019
H       -2.38612977       0.52873407       0.14039633
8
Frame=11 idx=004718 GeodesicLength=0.4382496163954856 rxn_smarts="[O:1]([c:2]1[n:3][o:4][c:5]([H:8])[n:6]1)[H:7]>>[O:1]([C:2]1=[N:3][N:6]1[C:5](=[O:4])[H:8])[H:7]"
O        1.98868743       0.36432603       0.30475317
C        0.73941674      -0.03125073       0.20723787
N        0.17846093      -1.15910299       0.17922538
O       -1.31882712      -0.41837573      -1.27165211
C       -1.41332488       0.42130368      -0.36196988
N       -0.35493428       0.75028914       0.40420188
H        2.56376433      -0.40535218       0.38850134
H       -2.38324316       0.47816279       0.14970237
8
Frame=12 idx=004718 GeodesicLength=0.4816486680833135 rxn_smarts="[O:1]([c:2]1[n:3][o:4][c:5]([H:8])[n:6]1)[H:7]>>[O:1]([C:2]1=[N:3][N:6]1[C:5](=[O:4])[H:8])[H:7]"
O        1.99080976       0.35547965       0.27920213
C        0.73463086      -0.02172551       0.21202148
N        0.15447336      -1.14135736       0.20435765
O       -1.28818241      -0.40006633      -1.28070144
C       -1.41096120       0.43073076      -0.36281613
N       -0.35477282       0.76733096       0.40594994
H        2.55298792      -0.42077541       0.38675131
H       -2.37898547       0.43038323       0.15523508
8
Frame=13 idx=004718 GeodesicLength=0.5256190955167033 rxn_smarts="[O:1]([c:2]1[n:3][o:4][c:5]([H:8])[n:6]1)[H:7]>>[O:1]([C:2]1=[N:3][N:6]1[C:5](=[O:4])[H:8])[H:7]"
O        1.99194834       0.34604573       0.25242491
C        0.72971923      -0.01245281       0.21816161
N        0.13139666      -1.12369154       0.22822759
O       -1.25756913      -0.38223288      -1.28815638
C       -1.40879184       0.43940005      -0.36281816
N       -0.35526460       0.78320929       0.40931442
H        2.54209513      -0.43502920       0.38467176
H       -2.37353379       0.38475136       0.15817425
8
Frame=14 idx=004718 GeodesicLength=0.5702583146076333 rxn_smarts="[O:1]([c:2]1[n:3][o:4][c:5]([H:8])[n:6]1)[H:7]>>[O:1]([C:2]1=[N:3][N:6]1[C:5](=[O:4])[H:8])[H:7]"
O        1.99168862       0.33631174       0.22681892
C        0.72446496      -0.00316772       0.22742345
N        0.10885999      -1.10593871       0.25266405
O       -1.22570734      -0.36520787      -1.29411227
C       -1.40647103       0.44730834      -0.36254536
N       -0.35678435       0.79837489       0.41449394
H        2.53119371      -0.44884516       0.37769355
H       -2.36724456       0.34116449       0.15756373
8
Frame=15 idx=004718 GeodesicLength=0.615564904934453 rxn_smarts="[O:1]([c:2]1[n:3][o:4][c:5]([H:8])[n:6]1)[H:7]>>[O:1]([C:2]1=[N:3][N:6]1[C:5](=[O:4])[H:8])[H:7]"
O        1.99012089       0.32623576       0.20109634
C        0.71909558       0.00615001       0.23875371
N        0.08704034      -1.08818986       0.27688953
O       -1.19308506      -0.34881001      -1.29858372
C       -1.40405811       0.45451936      -0.36189616
N       -0.35906578       0.81276682       0.42115739
H        2.52011211      -0.46212707       0.36830199
H       -2.36015996       0.29945500       0.15428091
8
Frame=16 idx=004718 GeodesicLength=0.6614176221350737 rxn_smarts="[O:1]([c:2]1[n:3][o:4][c:5]([H:8])[n:6]1)[H:7]>>[O:1]([C:2]1=[N:3][N:6]1[C:5](=[O:4])[H:8])[H:7]"
O        1.98718942       0.31630840       0.17721942
C        0.71368516       0.01573462       0.25215241
N        0.06601354      -1.07031339       0.30139386
O       -1.15955051      -0.33353959      -1.30146070
C       -1.40143796       0.46086236      -0.36111749
N       -0.36215048       0.82657322       0.42902331
H        2.50876003      -0.47548143       0.35457740
H       -2.35250920       0.25985580       0.14821180
