14
Frame=0 idx=011411 GeodesicLength=0.0 rxn_smarts="[O:1]=[C:2]1[C:3]([H:8])([H:9])[C:4]([H:10])=[C:5]([H:11])[C:6]([H:12])([H:13])[N:7]1[H:14]>>[C:3]([C:4]1=[C:5]([H:11])[C:6]([H:12])([H:13])[N:7]1[H:14])([H:8])([H:9])[H:10].[O+:1]#[C-:2]"
O        1.32663016       2.81111559       0.09486474
C        1.28982825       1.66815000       0.00731458
C        1.68580314      -0.70943236       0.02117166
C        0.34916054      -0.96991072       0.00424279
C       -0.93853655      -1.14855006      -0.07060864
C       -1.66055192       0.15631261      -0.04764671
N       -0.67668003       1.13151803       0.34021638
H        2.22306657      -0.67160290       0.96111682
H        2.23036549      -0.59411923      -0.90703973
H        1.23456723      -1.96727323      -0.02006389
H       -1.40894598      -2.12290598      -0.12646561
H       -2.53624020       0.08301203       0.62624313
H       -2.08833176       0.26589291      -1.06355944
H       -1.03013491       2.06779330       0.18021396
14
Frame=1 idx=011411 GeodesicLength=0.06890950826330561 rxn_smarts="[O:1]=[C:2]1[C:3]([H:8])([H:9])[C:4]([H:10])=[C:5]([H:11])[C:6]([H:12])([H:13])[N:7]1[H:14]>>[C:3]([C:4]1=[C:5]([H:11])[C:6]([H:12])([H:13])[N:7]1[H:14])([H:8])([H:9])[H:10].[O+:1]#[C-:2]"
O        1.33352723       2.80298974       0.04796418
C        1.27517582       1.66116767      -0.05947675
C        1.68087104      -0.69665765       0.03184729
C        0.34066330      -0.97012032       0.04978697
C       -0.94216290      -1.15306777      -0.09211213
C       -1.65831775       0.15567486      -0.05932943
N       -0.66069653       1.11008377       0.35397331
H        2.23232805      -0.64111632       0.96339043
H        2.21712350      -0.60380020      -0.90396814
H        1.23661565      -1.96645961       0.01930950
H       -1.41226112      -2.12564696      -0.17534076
H       -2.53968320       0.08226892       0.60601498
H       -2.07106483       0.29323886      -1.07703708
H       -1.03211825       2.05144500       0.29497761
14
Frame=2 idx=011411 GeodesicLength=0.13886653395829435 rxn_smarts="[O:1]=[C:2]1[C:3]([H:8])([H:9])[C:4]([H:10])=[C:5]([H:11])[C:6]([H:12])([H:13])[N:7]1[H:14]>>[C:3]([C:4]1=[C:5]([H:11])[C:6]([H:12])([H:13])[N:7]1[H:14])([H:8])([H:9])[H:10].[O+:1]#[C-:2]"
O        1.33378849       2.79332080      -0.01141647
C        1.25860904       1.65151687      -0.11404613
C        1.67384401      -0.68344361       0.04358634
C        0.33130101      -0.96890928       0.08941679
C       -0.94346940      -1.15485090      -0.11426430
C       -1.65463804       0.15603023      -0.06936035
N       -0.64491720       1.08878609       0.36886778
H        2.23534332      -0.61491881       0.96872578
H        2.20562678      -0.60946042      -0.89656300
H        1.23697545      -1.96378935       0.05289747
H       -1.41245949      -2.12460209      -0.22361157
H       -2.53981897       0.08153213       0.58896066
H       -2.05363445       0.32206454      -1.08713435
H       -1.02655054       2.02672379       0.40394135
14
Frame=3 idx=011411 GeodesicLength=0.208484735475872 rxn_smarts="[O:1]=[C:2]1[C:3]([H:8])([H:9])[C:4]([H:10])=[C:5]([H:11])[C:6]([H:12])([H:13])[N:7]1[H:14]>>[C:3]([C:4]1=[C:5]([H:11])[C:6]([H:12])([H:13])[N:7]1[H:14])([H:8])([H:9])[H:10].[O+:1]#[C-:2]"
O        1.32827733       2.78551006      -0.07921119
C        1.24287795       1.64155275      -0.15836551
C        1.66710815      -0.67090246       0.05618447
C        0.32162900      -0.96782215       0.12361586
C       -0.94394041      -1.15547544      -0.13705513
C       -1.65142748       0.15744033      -0.07803489
N       -0.62967747       1.06883739       0.38376092
H        2.23557024      -0.59308407       0.97696196
H        2.19831315      -0.61246910      -0.88565401
H        1.23712903      -1.96200188       0.08141111
H       -1.41190528      -2.12243968      -0.27086641
H       -2.53935737       0.08136616       0.57510723
H       -2.03889903       0.35194625      -1.09412647
H       -1.01569781       1.99754182       0.50627205
14
Frame=4 idx=011411 GeodesicLength=0.27886266029704193 rxn_smarts="[O:1]=[C:2]1[C:3]([H:8])([H:9])[C:4]([H:10])=[C:5]([H:11])[C:6]([H:12])([H:13])[N:7]1[H:14]>>[C:3]([C:4]1=[C:5]([H:11])[C:6]([H:12])([H:13])[N:7]1[H:14])([H:8])([H:9])[H:10].[O+:1]#[C-:2]"
O        1.32222976       2.77603101      -0.13901075
C        1.22644029       1.63077688      -0.20008981
C        1.65958075      -0.65781677       0.06788786
C        0.31148996      -0.96594199       0.15356564
C       -0.94350687      -1.15492443      -0.15854461
C       -1.64829749       0.15905425      -0.08615921
N       -0.61501128       1.05008446       0.39495730
H        2.23306396      -0.57188741       0.98542129
H        2.19203634      -0.61350661      -0.87417285
H        1.23663808      -1.95926716       0.10695997
H       -1.41014289      -2.11893816      -0.31321562
H       -2.53690545       0.08210759       0.56430929
H       -2.02698453       0.37962262      -1.09915386
H       -1.00063062       1.96460570       0.59724537
14
Frame=5 idx=011411 GeodesicLength=0.3491102819928056 rxn_smarts="[O:1]=[C:2]1[C:3]([H:8])([H:9])[C:4]([H:10])=[C:5]([H:11])[C:6]([H:12])([H:13])[N:7]1[H:14]>>[C:3]([C:4]1=[C:5]([H:11])[C:6]([H:12])([H:13])[N:7]1[H:14])([H:8])([H:9])[H:10].[O+:1]#[C-:2]"
O        1.30796692       2.76774966      -0.21049133
C        1.21178547       1.62004432      -0.23151406
C        1.65236708      -0.64571002       0.08080499
C        0.30121631      -0.96455974       0.18019530
C       -0.94235207      -1.15328247      -0.18024723
C       -1.64477151       0.16181175      -0.09311698
N       -0.60036952       1.03200213       0.40773252
H        2.22866350      -0.55538449       0.99686471
H        2.18857839      -0.61215763      -0.85997962
H        1.23570809      -1.95771740       0.12819157
H       -1.40786351      -2.11397557      -0.35612958
H       -2.53386894       0.08353402       0.55524808
H       -2.01507788       0.40916196      -1.10207055
H       -0.98198234       1.92848350       0.68451218
14
Frame=6 idx=011411 GeodesicLength=0.42013712296366035 rxn_smarts="[O:1]=[C:2]1[C:3]([H:8])([H:9])[C:4]([H:10])=[C:5]([H:11])[C:6]([H:12])([H:13])[N:7]1[H:14]>>[C:3]([C:4]1=[C:5]([H:11])[C:6]([H:12])([H:13])[N:7]1[H:14])([H:8])([H:9])[H:10].[O+:1]#[C-:2]"
O        1.29947130       2.75694551      -0.26394086
C        1.19587749       1.60887282      -0.26588273
C        1.64470639      -0.63235624       0.09146160
C        0.29064715      -0.96205160       0.20421397
C       -0.94118512      -1.15139555      -0.19919454
C       -1.64209858       0.16404720      -0.10041978
N       -0.58679186       1.01533591       0.41523773
H        2.22357370      -0.53659677       1.00590069
H        2.18480464      -0.60991283      -0.84750820
H        1.23471612      -1.95459869       0.14853877
H       -1.40543663      -2.10912177      -0.39176676
H       -2.53026944       0.08601200       0.54767207
H       -2.00619840       0.43442298      -1.10454496
H       -0.96181675       1.89039704       0.76023298
14
Frame=7 idx=011411 GeodesicLength=0.49131937679162635 rxn_smarts="[O:1]=[C:2]1[C:3]([H:8])([H:9])[C:4]([H:10])=[C:5]([H:11])[C:6]([H:12])([H:13])[N:7]1[H:14]>>[C:3]([C:4]1=[C:5]([H:11])[C:6]([H:12])([H:13])[N:7]1[H:14])([H:8])([H:9])[H:10].[O+:1]#[C-:2]"
O        1.28675449       2.74636736      -0.32179783
C        1.18079779       1.59768557      -0.29523220
C        1.63717969      -0.61950362       0.10256833
C        0.27996400      -0.95979654       0.22630414
C       -0.93956964      -1.14882655      -0.21772573
C       -1.63921917       0.16696479      -0.10697014
N       -0.57341434       0.99936816       0.42318631
H        2.21737589      -0.51997900       1.01639315
H        2.18246695      -0.60645868      -0.83383521
H        1.23345353      -1.95213590       0.16688396
H       -1.40249537      -2.10331099      -0.42767321
H       -2.52623368       0.08909215       0.54136918
H       -1.99743272       0.46039123      -1.10566902
H       -0.93962744       1.85014204       0.83219826
14
Frame=8 idx=011411 GeodesicLength=0.5630394029668018 rxn_smarts="[O:1]=[C:2]1[C:3]([H:8])([H:9])[C:4]([H:10])=[C:5]([H:11])[C:6]([H:12])([H:13])[N:7]1[H:14]>>[C:3]([C:4]1=[C:5]([H:11])[C:6]([H:12])([H:13])[N:7]1[H:14])([H:8])([H:9])[H:10].[O+:1]#[C-:2]"
O        1.27526464       2.73436946      -0.37463690
C        1.16507139       1.58598723      -0.32445720
C        1.62938643      -0.60631441       0.11317379
C        0.26909556      -0.95716611       0.24686829
C       -0.93763997      -1.14573423      -0.23527513
C       -1.63662835       0.16986950      -0.11294300
N       -0.56061331       0.98424932       0.42951148
H        2.21023904      -0.50287525       1.02678024
H        2.18038955      -0.60235490      -0.82013018
H        1.23200907      -1.94922138       0.18471253
H       -1.39875544      -2.09673507      -0.46262786
H       -2.52148206       0.09232290       0.53685032
H       -1.99033005       0.48513499      -1.10552783
H       -0.91600651       1.80846794       0.89770142
14
Frame=9 idx=011411 GeodesicLength=0.6349793710571893 rxn_smarts="[O:1]=[C:2]1[C:3]([H:8])([H:9])[C:4]([H:10])=[C:5]([H:11])[C:6]([H:12])([H:13])[N:7]1[H:14]>>[C:3]([C:4]1=[C:5]([H:11])[C:6]([H:12])([H:13])[N:7]1[H:14])([H:8])([H:9])[H:10].[O+:1]#[C-:2]"
O        1.26212514       2.72197659      -0.42802476
C        1.14975971       1.57423708      -0.35100530
C        1.62172775      -0.59332473       0.12376989
C        0.25812764      -0.95462851       0.26611164
C       -0.93545565      -1.14220499      -0.25219278
C       -1.63406907       0.17312868      -0.11837858
N       -0.54818516       0.96980687       0.43578081
H        2.20250697      -0.48672777       1.03770147
H        2.17918152      -0.59743227      -0.80597731
H        1.23042762      -1.94663975       0.20135489
H       -1.39459624      -2.08953335      -0.49714227
H       -2.51658988       0.09593916       0.53329305
H       -1.98353610       0.50990892      -1.10434714
H       -0.89142427       1.76549408       0.95905641
14
Frame=10 idx=011411 GeodesicLength=0.7075196111999709 rxn_smarts="[O:1]=[C:2]1[C:3]([H:8])([H:9])[C:4]([H:10])=[C:5]([H:11])[C:6]([H:12])([H:13])[N:7]1[H:14]>>[C:3]([C:4]1=[C:5]([H:11])[C:6]([H:12])([H:13])[N:7]1[H:14])([H:8])([H:9])[H:10].[O+:1]#[C-:2]"
O        1.24516402       2.70843785      -0.48497575
C        1.13511707       1.56232568      -0.37378875
C        1.61421603      -0.58068719       0.13478099
C        0.24714887      -0.95221954       0.28421568
C       -0.93286181      -1.13786379      -0.26882026
C       -1.63116579       0.17697339      -0.12321764
N       -0.53581394       0.95569943       0.44279833
H        2.19423316      -0.47213153       1.04960453
H        2.17870973      -0.59155278      -0.79087261
H        1.22864113      -1.94435635       0.21667810
H       -1.38987879      -2.08101659      -0.53208092
H       -2.51124643       0.09998296       0.53036862
H       -1.97640156       0.53546050      -1.10196337
H       -0.86586168       1.72094794       1.01727303
14
Frame=11 idx=011411 GeodesicLength=0.7805358030044356 rxn_smarts="[O:1]=[C:2]1[C:3]([H:8])([H:9])[C:4]([H:10])=[C:5]([H:11])[C:6]([H:12])([H:13])[N:7]1[H:14]>>[C:3]([C:4]1=[C:5]([H:11])[C:6]([H:12])([H:13])[N:7]1[H:14])([H:8])([H:9])[H:10].[O+:1]#[C-:2]"
O        1.22757215       2.69361522      -0.54112156
C        1.12038303       1.55009921      -0.39552135
C        1.60671060      -0.56810333       0.14577694
C        0.23608246      -0.94980441       0.30139089
C       -0.92995166      -1.13299038      -0.28496942
C       -1.62833312       0.18102015      -0.12739342
N       -0.52378376       0.94215694       0.44959495
H        2.18539555      -0.45775724       1.06187270
H        2.17869619      -0.58520132      -0.77539767
H        1.22673502      -1.94216091       0.23154177
H       -1.38432271      -2.07154867      -0.56746226
H       -2.50551374       0.10406222       0.52869028
H       -1.96992758       0.56091289      -1.09830165
H       -0.83974243       1.67569964       1.07129979
14
Frame=12 idx=011411 GeodesicLength=0.8539788835732852 rxn_smarts="[O:1]=[C:2]1[C:3]([H:8])([H:9])[C:4]([H:10])=[C:5]([H:11])[C:6]([H:12])([H:13])[N:7]1[H:14]>>[C:3]([C:4]1=[C:5]([H:11])[C:6]([H:12])([H:13])[N:7]1[H:14])([H:8])([H:9])[H:10].[O+:1]#[C-:2]"
O        1.20755673       2.67732704      -0.59974879
C        1.10616758       1.53778220      -0.41510350
C        1.59942266      -0.55581837       0.15718619
C        0.22491865      -0.94762825       0.31772501
C       -0.92667247      -1.12746407      -0.30103364
C       -1.62546332       0.18548559      -0.13072821
N       -0.51194583       0.92909904       0.45698783
H        2.17601829      -0.44422767       1.07508754
H        2.17965133      -0.57834698      -0.75907624
H        1.22468468      -1.94044715       0.24570188
H       -1.37783000      -2.06085701      -0.60440554
H       -2.49957883       0.10812735       0.52823416
H       -1.96365820       0.58700636      -1.09308546
H       -0.81327127       1.62996193       1.12225876
14
Frame=13 idx=011411 GeodesicLength=0.9285196957932695 rxn_smarts="[O:1]=[C:2]1[C:3]([H:8])([H:9])[C:4]([H:10])=[C:5]([H:11])[C:6]([H:12])([H:13])[N:7]1[H:14]>>[C:3]([C:4]1=[C:5]([H:11])[C:6]([H:12])([H:13])[N:7]1[H:14])([H:8])([H:9])[H:10].[O+:1]#[C-:2]"
O        1.18294528       2.65822810      -0.66225320
C        1.09248779       1.52533843      -0.43111973
C        1.59232225      -0.54387708       0.16908555
C        0.21390931      -0.94555341       0.33322124
C       -0.92284823      -1.12087055      -0.31697119
C       -1.62200154       0.19063293      -0.13357003
N       -0.49998243       0.91605847       0.46554737
H        2.16641504      -0.43226311       1.08918244
H        2.18094917      -0.57056111      -0.74181973
H        1.22254988      -1.93889431       0.25868808
H       -1.37056471      -2.04829558      -0.64185065
H       -2.49302784       0.11260401       0.52790419
H       -1.95651949       0.61423355      -1.08668044
H       -0.78663449       1.58321967       1.17063609
14
Frame=14 idx=011411 GeodesicLength=1.0033918399707922 rxn_smarts="[O:1]=[C:2]1[C:3]([H:8])([H:9])[C:4]([H:10])=[C:5]([H:11])[C:6]([H:12])([H:13])[N:7]1[H:14]>>[C:3]([C:4]1=[C:5]([H:11])[C:6]([H:12])([H:13])[N:7]1[H:14])([H:8])([H:9])[H:10].[O+:1]#[C-:2]"
O        1.15855427       2.63730171      -0.72332264
C        1.07878376       1.51284774      -0.44653233
C        1.58529656      -0.53190382       0.18080309
C        0.20282746      -0.94348318       0.34799464
C       -0.91874874      -1.11388683      -0.33246210
C       -1.61866835       0.19588334      -0.13587535
N       -0.48842338       0.90356790       0.47389804
H        2.15645876      -0.42033505       1.10334272
H        2.18262335      -0.56233543      -0.72454902
H        1.22035960      -1.93746053       0.27119727
H       -1.36248601      -2.03495455      -0.67925214
H       -2.48635356       0.11696256       0.52855140
H       -1.94985529       0.64122023      -1.07918249
H       -0.76036844       1.53657590       1.21538892
14
Frame=15 idx=011411 GeodesicLength=1.0787854486497088 rxn_smarts="[O:1]=[C:2]1[C:3]([H:8])([H:9])[C:4]([H:10])=[C:5]([H:11])[C:6]([H:12])([H:13])[N:7]1[H:14]>>[C:3]([C:4]1=[C:5]([H:11])[C:6]([H:12])([H:13])[N:7]1[H:14])([H:8])([H:9])[H:10].[O+:1]#[C-:2]"
O        1.13228583       2.61383521      -0.78529339
C        1.06546482       1.50057879      -0.45981023
C        1.57852792      -0.52006522       0.19256028
C        0.19183942      -0.94150634       0.36204304
C       -0.91429901      -1.10632466      -0.34765576
C       -1.61515418       0.20151271      -0.13779327
N       -0.47705205       0.89137702       0.48280632
H        2.14647025      -0.40924017       1.11780383
H        2.18470324      -0.55340138      -0.70704392
H        1.21821606      -1.93626993       0.28271865
H       -1.35381803      -2.02058959      -0.71637688
H       -2.47956253       0.12149315       0.52948405
H       -1.94284933       0.66860284      -1.07074464
H       -0.73477243       1.48999758       1.25730193
14
Frame=16 idx=011411 GeodesicLength=1.1547487317294758 rxn_smarts="[O:1]=[C:2]1[C:3]([H:8])([H:9])[C:4]([H:10])=[C:5]([H:11])[C:6]([H:12])([H:13])[N:7]1[H:14]>>[C:3]([C:4]1=[C:5]([H:11])[C:6]([H:12])([H:13])[N:7]1[H:14])([H:8])([H:9])[H:10].[O+:1]#[C-:2]"
O        1.10485944       2.58755071      -0.84752215
C        1.05236811       1.48851168      -0.47140500
C        1.57194547      -0.50825557       0.20429089
C        0.18093086      -0.93954153       0.37541185
C       -0.90949833      -1.09818855      -0.36253974
C       -1.61152301       0.20742708      -0.13930503
N       -0.46591826       0.87949239       0.49205629
H        2.13639719      -0.39874583       1.13244979
H        2.18707138      -0.54379128      -0.68938260
H        1.21611117      -1.93518633       0.29336382
H       -1.34444473      -2.00516150      -0.75331316
H       -2.47260801       0.12604954       0.53082534
H       -1.93572558       0.69617073      -1.06132548
H       -0.70996569       1.44366846       1.29639518
