16
Frame=0 idx=011246 GeodesicLength=0.0 rxn_smarts="[C:1]([C@@:2]([O:3][H:12])([C@@:4]([C:5]([H:14])([H:15])[H:16])([C:6]#[N:7])[H:13])[H:11])([H:8])([H:9])[H:10]>>[C:1]([C:2](=[O:3])[C@@:4]([C:5]([H:14])([H:15])[H:16])([C:6]#[N:7])[H:13])([H:8])([H:9])[H:10].[H:11][H:12]"
C       -1.42236639      -0.38856269      -0.81728087
C       -0.59559926      -0.50062626       0.44082602
O       -0.46336478      -1.69617672       0.98794394
C        0.67138355       0.38253867       0.51322110
C        1.73104442      -0.18919560      -0.43385093
C        0.38319305       1.78881554       0.23487997
N        0.13192544       2.88591202       0.01185631
H       -1.60087926       0.64256424      -1.12269629
H       -2.36418174      -0.91588447      -0.68352137
H       -0.86134680      -0.90792129      -1.59768843
H       -1.41650903       0.24993102       1.33439426
H       -1.21173113      -0.66573762       1.57244468
H        1.03698498       0.30670485       1.53904484
H        2.68320898       0.31506489      -0.27608180
H        1.44581309      -0.05568948      -1.47720278
H        1.85242489      -1.25173707      -0.22628860
16
Frame=1 idx=011246 GeodesicLength=0.09169456353423223 rxn_smarts="[C:1]([C@@:2]([O:3][H:12])([C@@:4]([C:5]([H:14])([H:15])[H:16])([C:6]#[N:7])[H:13])[H:11])([H:8])([H:9])[H:10]>>[C:1]([C:2](=[O:3])[C@@:4]([C:5]([H:14])([H:15])[H:16])([C:6]#[N:7])[H:13])([H:8])([H:9])[H:10].[H:11][H:12]"
C       -1.42275600      -0.38745871      -0.81958519
C       -0.59653285      -0.49666741       0.43906657
O       -0.46365565      -1.69131725       0.98655172
C        0.67289381       0.38221223       0.50924059
C        1.73532095      -0.19045477      -0.43414316
C        0.38587754       1.78819244       0.22811559
N        0.13938464       2.88570042       0.00176470
H       -1.61519945       0.64443977      -1.11407152
H       -2.35934064      -0.92589183      -0.69234495
H       -0.85773666      -0.89040484      -1.60759449
H       -1.42497462       0.24769292       1.35091807
H       -1.22649949      -0.67830850       1.59516795
H        1.03701009       0.30874073       1.53587587
H        2.68644352       0.31585390      -0.27647317
H        1.45200584      -0.05997915      -1.47841976
H        1.85775898      -1.25234996      -0.22406882
16
Frame=2 idx=011246 GeodesicLength=0.1832383246109973 rxn_smarts="[C:1]([C@@:2]([O:3][H:12])([C@@:4]([C:5]([H:14])([H:15])[H:16])([C:6]#[N:7])[H:13])[H:11])([H:8])([H:9])[H:10]>>[C:1]([C:2](=[O:3])[C@@:4]([C:5]([H:14])([H:15])[H:16])([C:6]#[N:7])[H:13])([H:8])([H:9])[H:10].[H:11][H:12]"
C       -1.42312757      -0.38623946      -0.82204863
C       -0.59735181      -0.49259179       0.43704179
O       -0.46422194      -1.68611694       0.98545677
C        0.67447029       0.38198618       0.50515537
C        1.73966064      -0.19172681      -0.43444714
C        0.38854149       1.78762018       0.22114357
N        0.14700260       2.88553841      -0.00860979
H       -1.62959018       0.64617050      -1.10539218
H       -2.35427426      -0.93578415      -0.70135225
H       -0.85427150      -0.87243085      -1.61755844
H       -1.43334549       0.24494937       1.36777419
H       -1.24162655      -0.69163876       1.61849163
H        1.03698824       0.31093584       1.53263597
H        2.68973336       0.31664590      -0.27690999
H        1.45830464      -0.06436984      -1.47965886
H        1.86310806      -1.25294778      -0.22172201
16
Frame=3 idx=011246 GeodesicLength=0.27471392101615844 rxn_smarts="[C:1]([C@@:2]([O:3][H:12])([C@@:4]([C:5]([H:14])([H:15])[H:16])([C:6]#[N:7])[H:13])[H:11])([H:8])([H:9])[H:10]>>[C:1]([C:2](=[O:3])[C@@:4]([C:5]([H:14])([H:15])[H:16])([C:6]#[N:7])[H:13])([H:8])([H:9])[H:10].[H:11][H:12]"
C       -1.42348201      -0.38489585      -0.82468631
C       -0.59804681      -0.48838594       0.43472498
O       -0.46509372      -1.68053702       0.98469375
C        0.67611801       0.38187345       0.50095740
C        1.74406479      -0.19301148      -0.43476513
C        0.39119024       1.78710898       0.21394780
N        0.15479577       2.88543500      -0.01927466
H       -1.64404540       0.64775583      -1.09667428
H       -2.34897642      -0.94555685      -0.71055440
H       -0.85095273      -0.85399144      -1.62758855
H       -1.44160900       0.24163911       1.38498098
H       -1.25714004      -0.70578222       1.64248276
H        1.03691792       0.31330594       1.52931815
H        2.69308226       0.31743717      -0.27739735
H        1.46471386      -0.06886566      -1.48092271
H        1.86846329      -1.25352902      -0.21924244
16
Frame=4 idx=011246 GeodesicLength=0.3661983703830799 rxn_smarts="[C:1]([C@@:2]([O:3][H:12])([C@@:4]([C:5]([H:14])([H:15])[H:16])([C:6]#[N:7])[H:13])[H:11])([H:8])([H:9])[H:10]>>[C:1]([C:2](=[O:3])[C@@:4]([C:5]([H:14])([H:15])[H:16])([C:6]#[N:7])[H:13])([H:8])([H:9])[H:10].[H:11][H:12]"
C       -1.42381773      -0.38342102      -0.82751703
C       -0.59860850      -0.48403537       0.43208832
O       -0.46630267      -1.67453590       0.98429787
C        0.67784170       0.38188781       0.49663776
C        1.74853537      -0.19430997      -0.43509822
C        0.39382938       1.78666967       0.20650790
N        0.16278346       2.88539817      -0.03024512
H       -1.65856520       0.64919653      -1.08792605
H       -2.34343732      -0.95520809      -0.71996679
H       -0.84778586      -0.83506337      -1.63769255
H       -1.44975203       0.23769389       1.40255609
H       -1.27306731      -0.72079850       1.66721548
H        1.03679646       0.31586994       1.52591476
H        2.69649451       0.31822303      -0.27793917
H        1.47123968      -0.07347398      -1.48221299
H        1.87381606      -1.25409284      -0.21662027
16
Frame=5 idx=011246 GeodesicLength=0.457724821300263 rxn_smarts="[C:1]([C@@:2]([O:3][H:12])([C@@:4]([C:5]([H:14])([H:15])[H:16])([C:6]#[N:7])[H:13])[H:11])([H:8])([H:9])[H:10]>>[C:1]([C:2](=[O:3])[C@@:4]([C:5]([H:14])([H:15])[H:16])([C:6]#[N:7])[H:13])([H:8])([H:9])[H:10].[H:11][H:12]"
C       -1.42413139      -0.38180786      -0.83055883
C       -0.59902902      -0.47952595       0.42910872
O       -0.46787917      -1.66807276       0.98430055
C        0.67964642       0.38204266       0.49218845
C        1.75307414      -0.19562338      -0.43544683
C        0.39646595       1.78631266       0.19880541
N        0.17097883       2.88543750      -0.04154145
H       -1.67314812       0.65049655      -1.07915815
H       -2.33765157      -0.96472620      -0.72960130
H       -0.84477236      -0.81563268      -1.64787707
H       -1.45776397       0.23304447       1.42051996
H       -1.28943123      -0.73674841       1.69275686
H        1.03662216       0.31864603       1.52241900
H        2.69997472       0.31899779      -0.27853842
H        1.47788747      -0.07820184      -1.48353040
H        1.87915714      -1.25463858      -0.21384650
16
Frame=6 idx=011246 GeodesicLength=0.5493390111492751 rxn_smarts="[C:1]([C@@:2]([O:3][H:12])([C@@:4]([C:5]([H:14])([H:15])[H:16])([C:6]#[N:7])[H:13])[H:11])([H:8])([H:9])[H:10]>>[C:1]([C:2](=[O:3])[C@@:4]([C:5]([H:14])([H:15])[H:16])([C:6]#[N:7])[H:13])([H:8])([H:9])[H:10].[H:11][H:12]"
C       -1.42442308      -0.38004369      -0.83382999
C       -0.59930142      -0.47483912       0.42575899
O       -0.46986063      -1.66109776       0.98473779
C        0.68153591       0.38235500       0.48759945
C        1.75768132      -0.19695263      -0.43581108
C        0.39910696       1.78605155       0.19081653
N        0.17940967       2.88556253      -0.05318238
H       -1.68779313       0.65165441      -1.07038154
H       -2.33160673      -0.97410863      -0.73947588
H       -0.84191595      -0.79567850      -1.65815030
H       -1.46563238       0.22760884       1.43889234
H       -1.30625402      -0.75370276       1.71918823
H        1.03639074       0.32165779       1.51882207
H        2.70352647       0.31975547      -0.27919897
H        1.48466205      -0.08305759      -1.48487619
H        1.88447421      -1.25516488      -0.21090908
16
Frame=7 idx=011246 GeodesicLength=0.6410623295554575 rxn_smarts="[C:1]([C@@:2]([O:3][H:12])([C@@:4]([C:5]([H:14])([H:15])[H:16])([C:6]#[N:7])[H:13])[H:11])([H:8])([H:9])[H:10]>>[C:1]([C:2](=[O:3])[C@@:4]([C:5]([H:14])([H:15])[H:16])([C:6]#[N:7])[H:13])([H:8])([H:9])[H:10].[H:11][H:12]"
C       -1.42469339      -0.37811329      -0.83734932
C       -0.59942053      -0.46995639       0.42201318
O       -0.47228941      -1.65355754       0.98564395
C        0.68351274       0.38284144       0.48286147
C        1.76235582      -0.19830006      -0.43618938
C        0.40176109       1.78589966       0.18251878
N        0.18809587       2.88578511      -0.06519646
H       -1.70249520       0.65267321      -1.06161616
H       -2.32529416      -0.98334579      -0.74960851
H       -0.83921683      -0.77518036      -1.66852174
H       -1.47335198       0.22130083       1.45769795
H       -1.32353256      -0.77173987       1.74659509
H        1.03609687       0.32492801       1.51511592
H        2.70715256       0.32048723      -0.27992109
H        1.49156768      -0.08805062      -1.48624868
H        1.88975142      -1.25567156      -0.20779500
16
Frame=8 idx=011246 GeodesicLength=0.7329120164306869 rxn_smarts="[C:1]([C@@:2]([O:3][H:12])([C@@:4]([C:5]([H:14])([H:15])[H:16])([C:6]#[N:7])[H:13])[H:11])([H:8])([H:9])[H:10]>>[C:1]([C:2](=[O:3])[C@@:4]([C:5]([H:14])([H:15])[H:16])([C:6]#[N:7])[H:13])([H:8])([H:9])[H:10].[H:11][H:12]"
C       -1.42494042      -0.37600398      -0.84113694
C       -0.59938118      -0.46485791       0.41784639
O       -0.47520799      -1.64539549       0.98705207
C        0.68557922       0.38352007       0.47796406
C        1.76709714      -0.19966874      -0.43657868
C        0.40443719       1.78587123       0.17388367
N        0.19706622       2.88611415      -0.07761782
H       -1.71725845       0.65355579      -1.05286794
H       -2.31869767      -0.99243029      -0.76002399
H       -0.83668147      -0.75410471      -1.67899622
H       -1.48091780       0.21402670       1.47695626
H       -1.34126926      -0.79094284       1.77506539
H        1.03573378       0.32848444       1.51129146
H        2.71085618       0.32118475      -0.28070587
H        1.49860976      -0.09319489      -1.48764601
H        1.89497475      -1.25615828      -0.20448586
16
Frame=9 idx=011246 GeodesicLength=0.8248869040350714 rxn_smarts="[C:1]([C@@:2]([O:3][H:12])([C@@:4]([C:5]([H:14])([H:15])[H:16])([C:6]#[N:7])[H:13])[H:11])([H:8])([H:9])[H:10]>>[C:1]([C:2](=[O:3])[C@@:4]([C:5]([H:14])([H:15])[H:16])([C:6]#[N:7])[H:13])([H:8])([H:9])[H:10].[H:11][H:12]"
C       -1.42516002      -0.37370110      -0.84521528
C       -0.59917972      -0.45952587       0.41323458
O       -0.47865882      -1.63655698       0.98898580
C        0.68773729       0.38440553       0.47289826
C        1.77190501      -0.20106235      -0.43697590
C        0.40714524       1.78597810       0.16488876
N        0.20633780       2.88656058      -0.09048234
H       -1.73208082       0.65430267      -1.04414463
H       -2.31180524      -1.00135343      -0.77073948
H       -0.83431329      -0.73242224      -1.68958178
H       -1.48832586       0.20569186       1.49668127
H       -1.35946102      -0.81137541       1.80469357
H        1.03529472       0.33234877       1.50734131
H        2.71464113       0.32183736      -0.28155152
H        1.50579373      -0.09850133      -1.48906539
H        1.90012985      -1.25662617      -0.20096724
16
Frame=10 idx=011246 GeodesicLength=0.9169657634104741 rxn_smarts="[C:1]([C@@:2]([O:3][H:12])([C@@:4]([C:5]([H:14])([H:15])[H:16])([C:6]#[N:7])[H:13])[H:11])([H:8])([H:9])[H:10]>>[C:1]([C:2](=[O:3])[C@@:4]([C:5]([H:14])([H:15])[H:16])([C:6]#[N:7])[H:13])([H:8])([H:9])[H:10].[H:11][H:12]"
C       -1.42535320      -0.37118353      -0.84960289
C       -0.59881958      -0.45393531       0.40816005
O       -0.48269296      -1.62697780       0.99147172
C        0.68998453       0.38551937       0.46765439
C        1.77677334      -0.20248544      -0.43737307
C        0.40989649       1.78623767       0.15550095
N        0.21594382       2.88713204      -0.10383009
H       -1.74696069       0.65491945      -1.03546915
H       -2.30460420      -1.01009881      -0.78178144
H       -0.83211491      -0.71010479      -1.70028228
H       -1.49558910       0.19619806       1.51689152
H       -1.37805201      -0.83314457       1.83557115
H        1.03476744       0.33655483       1.50325700
H        2.71850682       0.32243236      -0.28245437
H        1.51312056      -0.10398839      -1.49050001
H        1.90519363      -1.25707514      -0.19721346
16
Frame=11 idx=011246 GeodesicLength=1.0091050584450874 rxn_smarts="[C:1]([C@@:2]([O:3][H:12])([C@@:4]([C:5]([H:14])([H:15])[H:16])([C:6]#[N:7])[H:13])[H:11])([H:8])([H:9])[H:10]>>[C:1]([C:2](=[O:3])[C@@:4]([C:5]([H:14])([H:15])[H:16])([C:6]#[N:7])[H:13])([H:8])([H:9])[H:10].[H:11][H:12]"
C       -1.42552052      -0.36842813      -0.85431908
C       -0.59830797      -0.44806249       0.40260847
O       -0.48736570      -1.61659180       0.99452743
C        0.69231591       0.38688005       0.46222482
C        1.78169418      -0.20394488      -0.43775935
C        0.41270404       1.78666498       0.14569103
N        0.22590714       2.88783751      -0.11770894
H       -1.76189477       0.65541844      -1.02686131
H       -2.29708191      -1.01865029      -0.79317491
H       -0.83008639      -0.68712604      -1.71110365
H       -1.50272981       0.18545178       1.53759944
H       -1.39695353      -0.85635200       1.86778681
H        1.03413769       0.34113314       1.49903187
H        2.72245112       0.32295300      -0.28340524
H        1.52059037      -0.10967566      -1.49193943
H        1.91014015      -1.25750761      -0.19319797
16
Frame=12 idx=011246 GeodesicLength=1.1012736556464562 rxn_smarts="[C:1]([C@@:2]([O:3][H:12])([C@@:4]([C:5]([H:14])([H:15])[H:16])([C:6]#[N:7])[H:13])[H:11])([H:8])([H:9])[H:10]>>[C:1]([C:2](=[O:3])[C@@:4]([C:5]([H:14])([H:15])[H:16])([C:6]#[N:7])[H:13])([H:8])([H:9])[H:10].[H:11][H:12]"
C       -1.42566047      -0.36541316      -0.85938381
C       -0.59765634      -0.44188225       0.39657004
O       -0.49272732      -1.60534149       0.99815978
C        0.69472448       0.38850566       0.45660319
C        1.78665811      -0.20544819      -0.43812217
C        0.41557988       1.78727463       0.13542838
N        0.23625737       2.88868244      -0.13216501
H       -1.77688063       0.65580156      -1.01834175
H       -2.28922298      -1.02698724      -0.80495038
H       -0.82823342      -0.66345092      -1.72204434
H       -1.50978061       0.17336311       1.55880548
H       -1.41606069      -0.88109075       1.90143806
H        1.03338798       0.34611473       1.49466037
H        2.72647051       0.32338282      -0.28439527
H        1.52820070      -0.11558513      -1.49337193
H        1.91494343      -1.25792580      -0.18889065
16
Frame=13 idx=011246 GeodesicLength=1.1934236506925031 rxn_smarts="[C:1]([C@@:2]([O:3][H:12])([C@@:4]([C:5]([H:14])([H:15])[H:16])([C:6]#[N:7])[H:13])[H:11])([H:8])([H:9])[H:10]>>[C:1]([C:2](=[O:3])[C@@:4]([C:5]([H:14])([H:15])[H:16])([C:6]#[N:7])[H:13])([H:8])([H:9])[H:10].[H:11][H:12]"
C       -1.42577215      -0.36211345      -0.86481691
C       -0.59688135      -0.43537154       0.39003967
O       -0.49883288      -1.59316751       1.00236430
C        0.69719916       0.39041147       0.45078571
C        1.79165259      -0.20700475      -0.43844430
C        0.41853747       1.78807917       0.12468613
N        0.24701532       2.88967120      -0.14724805
H       -1.79191044       0.65608015      -1.00993963
H       -2.28102201      -1.03508195      -0.81713181
H       -0.82655702      -0.63905644      -1.73310479
H       -1.51679874       0.15985624       1.58050591
H       -1.43520730      -0.90745750       1.93661173
H        1.03249683       0.35152744       1.49013932
H        2.73055873       0.32370169      -0.28540774
H        1.53594760      -0.12174069      -1.49478031
H        1.91957418      -1.25833352      -0.18425925
16
Frame=14 idx=011246 GeodesicLength=1.285521813270164 rxn_smarts="[C:1]([C@@:2]([O:3][H:12])([C@@:4]([C:5]([H:14])([H:15])[H:16])([C:6]#[N:7])[H:13])[H:11])([H:8])([H:9])[H:10]>>[C:1]([C:2](=[O:3])[C@@:4]([C:5]([H:14])([H:15])[H:16])([C:6]#[N:7])[H:13])([H:8])([H:9])[H:10].[H:11][H:12]"
C       -1.42585605      -0.35850180      -0.87063819
C       -0.59600927      -0.42850268       0.38301983
O       -0.50573826      -1.58001707       1.00712522
C        0.69972357       0.39261331       0.44477063
C        1.79665924      -0.20862674      -0.43870330
C        0.42159061       1.78909123       0.11343389
N        0.25820945       2.89080464      -0.16301091
H       -1.80697931       0.65626398      -1.00168407
H       -2.27246502      -1.04290993      -0.82975382
H       -0.82505986      -0.61390590      -1.74428028
H       -1.52385911       0.14486942       1.60268116
H       -1.45417359      -0.93555718       1.97339989
H        1.03143578       0.35740224       1.48546764
H        2.73470500       0.32388516      -0.28642214
H        1.54382129      -0.12817226      -1.49614247
H        1.92399554      -1.25873642      -0.17926307
16
Frame=15 idx=011246 GeodesicLength=1.377541615902298 rxn_smarts="[C:1]([C@@:2]([O:3][H:12])([C@@:4]([C:5]([H:14])([H:15])[H:16])([C:6]#[N:7])[H:13])[H:11])([H:8])([H:9])[H:10]>>[C:1]([C:2](=[O:3])[C@@:4]([C:5]([H:14])([H:15])[H:16])([C:6]#[N:7])[H:13])([H:8])([H:9])[H:10].[H:11][H:12]"
C       -1.42591274      -0.35455007      -0.87686628
C       -0.59507249      -0.42125216       0.37551922
O       -0.51349793      -1.56584497       1.01240870
C        0.70227718       0.39512210       0.43856001
C        1.80165679      -0.21032724      -0.43887275
C        0.42475293       1.79031954       0.10164863
N        0.26986108       2.89208056      -0.17950072
H       -1.82207475       0.65636689      -0.99361635
H       -2.26354987      -1.05043560      -0.84284419
H       -0.82374219      -0.58798001      -1.75556634
H       -1.53106390       0.12836331       1.62529662
H       -1.47268076      -0.96548341       2.01189029
H        1.03017202       0.36376311       1.48064739
H        2.73889546       0.32390767      -0.28741143
H        1.55180965      -0.13490898      -1.49743193
H        1.92816954      -1.25914073      -0.17386087
16
Frame=16 idx=011246 GeodesicLength=1.4694768861934844 rxn_smarts="[C:1]([C@@:2]([O:3][H:12])([C@@:4]([C:5]([H:14])([H:15])[H:16])([C:6]#[N:7])[H:13])[H:11])([H:8])([H:9])[H:10]>>[C:1]([C:2](=[O:3])[C@@:4]([C:5]([H:14])([H:15])[H:16])([C:6]#[N:7])[H:13])([H:8])([H:9])[H:10].[H:11][H:12]"
C       -1.42594473      -0.35022839      -0.88352066
C       -0.59411253      -0.41359589       0.36755167
O       -0.52216737      -1.55061724       1.01816467
C        0.70483262       0.39794530       0.43215955
C        1.80661865      -0.21212313      -0.43891982
C        0.42803678       1.79177009       0.08930924
N        0.28199226       2.89349123      -0.19676668
H       -1.83718847       0.65640377      -0.98577867
H       -2.25427027      -1.05762275      -0.85644328
H       -0.82260437      -0.56125087      -1.76695518
H       -1.53854401       0.11032464       1.64830204
H       -1.49037314      -0.99732549       2.05217323
H        1.02866396       0.37063096       1.47568474
H        2.74311116       0.32373893      -0.28834059
H        1.55989644      -0.14198522      -1.49861553
H        1.93205303      -1.25955593      -0.16800474
