12
Frame=0 idx=009793 GeodesicLength=0.0 rxn_smarts="[N:1]([c:2]1[c:3]([H:10])[c:4]([O:5][H:11])[c:6]([H:12])[o:7]1)([H:8])[H:9]>>[N:1]([C@:2]12[C:3]([H:10])=[C:4]([O:5][H:11])[C@@:6]1([H:12])[O:7]2)([H:8])[H:9]"
N       -1.97247187      -0.24729961       0.09496372
C       -0.77197775       0.01711542      -0.41550084
C        0.36463827      -0.94962598      -0.45497384
C        1.20118170       0.03236676       0.06707250
O        2.42109042      -0.07323267       0.60254623
C        0.46389125       1.22815972       0.07719113
O       -0.56512871       1.19754079      -1.00135090
H       -2.63145733       0.49972868       0.23277317
H       -2.07816934      -1.10360046       0.60927308
H        0.57023524      -1.63328119      -1.27096362
H        2.62315688      -1.01084856       0.68543398
H        0.37501127       2.04297706       0.77353544
12
Frame=1 idx=009793 GeodesicLength=0.034140727328469865 rxn_smarts="[N:1]([c:2]1[c:3]([H:10])[c:4]([O:5][H:11])[c:6]([H:12])[o:7]1)([H:8])[H:9]>>[N:1]([C@:2]12[C:3]([H:10])=[C:4]([O:5][H:11])[C@@:6]1([H:12])[O:7]2)([H:8])[H:9]"
N       -1.99060891      -0.24964426       0.07037682
C       -0.77265685       0.01748876      -0.40467296
C        0.36155582      -0.94686493      -0.43421852
C        1.20450514       0.03312984       0.07974335
O        2.43824328      -0.06542200       0.58485489
C        0.45968941       1.22557367       0.09544108
O       -0.55525436       1.19925237      -0.98954378
H       -2.64004071       0.50419742       0.21699211
H       -2.10647487      -1.10506336       0.58418576
H        0.56151270      -1.65879348      -1.22642094
H        2.65943679      -1.00069520       0.63801239
H        0.38009257       2.04684117       0.78524979
12
Frame=2 idx=009793 GeodesicLength=0.06795513499303056 rxn_smarts="[N:1]([c:2]1[c:3]([H:10])[c:4]([O:5][H:11])[c:6]([H:12])[o:7]1)([H:8])[H:9]>>[N:1]([C@:2]12[C:3]([H:10])=[C:4]([O:5][H:11])[C@@:6]1([H:12])[O:7]2)([H:8])[H:9]"
N       -2.00797243      -0.25179102       0.04527719
C       -0.77331882       0.01785119      -0.39323346
C        0.35848519      -0.94410144      -0.41289280
C        1.20789139       0.03376487       0.09306816
O        2.45465926      -0.05788773       0.56752965
C        0.45563202       1.22289278       0.11420002
O       -0.54520762       1.20084609      -0.97715677
H       -2.64864605       0.50803147       0.20023369
H       -2.13431689      -1.10645673       0.55811018
H        0.55240847      -1.68440154      -1.17952121
H        2.69460214      -0.98966242       0.58744683
H        0.38578333       2.05091449       0.79693852
12
Frame=3 idx=009793 GeodesicLength=0.10117269559387179 rxn_smarts="[N:1]([c:2]1[c:3]([H:10])[c:4]([O:5][H:11])[c:6]([H:12])[o:7]1)([H:8])[H:9]>>[N:1]([C@:2]12[C:3]([H:10])=[C:4]([O:5][H:11])[C@@:6]1([H:12])[O:7]2)([H:8])[H:9]"
N       -2.02399880      -0.25408684       0.02038110
C       -0.77393301       0.01828126      -0.38157896
C        0.35561621      -0.94092141      -0.39271529
C        1.21155463       0.03456881       0.10530600
O        2.47004532      -0.05089314       0.54991514
C        0.45184318       1.22024222       0.13248182
O       -0.53562325       1.20260202      -0.96435720
H       -2.65645409       0.51078351       0.18462241
H       -2.16043121      -1.10826279       0.53165349
H        0.54319852      -1.70898196      -1.13240719
H        2.72567932      -0.97840920       0.53889470
H        0.39250319       2.05507753       0.80780397
12
Frame=4 idx=009793 GeodesicLength=0.13377799589240463 rxn_smarts="[N:1]([c:2]1[c:3]([H:10])[c:4]([O:5][H:11])[c:6]([H:12])[o:7]1)([H:8])[H:9]>>[N:1]([C@:2]12[C:3]([H:10])=[C:4]([O:5][H:11])[C@@:6]1([H:12])[O:7]2)([H:8])[H:9]"
N       -2.03865902      -0.25664703      -0.00395677
C       -0.77455724       0.01882529      -0.36981231
C        0.35308148      -0.93723527      -0.37421865
C        1.21568200       0.03573211       0.11589027
O        2.48406734      -0.04479069       0.53352508
C        0.44836699       1.21780913       0.15007178
O       -0.52681349       1.20470447      -0.95120909
H       -2.66397485       0.51223950       0.16938746
H       -2.18428994      -1.11020949       0.50606070
H        0.53382685      -1.73238812      -1.08571520
H        2.75306555      -0.96744839       0.49215812
H        0.40020432       2.05940850       0.81781862
12
Frame=5 idx=009793 GeodesicLength=0.16573899132815198 rxn_smarts="[N:1]([c:2]1[c:3]([H:10])[c:4]([O:5][H:11])[c:6]([H:12])[o:7]1)([H:8])[H:9]>>[N:1]([C@:2]12[C:3]([H:10])=[C:4]([O:5][H:11])[C@@:6]1([H:12])[O:7]2)([H:8])[H:9]"
N       -2.05192868      -0.25956457      -0.02740096
C       -0.77526777       0.01952495      -0.35815555
C        0.35091591      -0.93289427      -0.35822082
C        1.22028787       0.03739617       0.12403147
O        2.49689428      -0.03952317       0.51778028
C        0.44519697       1.21566959       0.16654183
O       -0.51916773       1.20730697      -0.93784793
H       -2.67087583       0.51235763       0.15585379
H       -2.20569836      -1.11266306       0.48127855
H        0.52450090      -1.75417039      -1.04049103
H        2.77609898      -0.95737756       0.45004530
H        0.40904345       2.06393770       0.82658508
12
Frame=6 idx=009793 GeodesicLength=0.19727507630810376 rxn_smarts="[N:1]([c:2]1[c:3]([H:10])[c:4]([O:5][H:11])[c:6]([H:12])[o:7]1)([H:8])[H:9]>>[N:1]([C@:2]12[C:3]([H:10])=[C:4]([O:5][H:11])[C@@:6]1([H:12])[O:7]2)([H:8])[H:9]"
N       -2.06405858      -0.26273816      -0.05015457
C       -0.77607614       0.02036740      -0.34649560
C        0.34906190      -0.92800259      -0.34426961
C        1.22524854       0.03947172       0.13022506
O        2.50869690      -0.03501151       0.50290693
C        0.44227879       1.21374780       0.18224199
O       -0.51244630       1.21035166      -0.92419372
H       -2.67753492       0.51132975       0.14305545
H       -2.22513763      -1.11536942       0.45734817
H        0.51514033      -1.77464552      -0.99598043
H        2.79605984      -0.94802783       0.41084897
H        0.41876727       2.06852669       0.83446736
12
Frame=7 idx=009793 GeodesicLength=0.22843448887737097 rxn_smarts="[N:1]([c:2]1[c:3]([H:10])[c:4]([O:5][H:11])[c:6]([H:12])[o:7]1)([H:8])[H:9]>>[N:1]([C@:2]12[C:3]([H:10])=[C:4]([O:5][H:11])[C@@:6]1([H:12])[O:7]2)([H:8])[H:9]"
N       -2.07526782      -0.26603943      -0.07245299
C       -0.77703151       0.02131449      -0.33477417
C        0.34740969      -0.92270822      -0.33196553
C        1.23039396       0.04181486       0.13503057
O        2.51965800      -0.03115938       0.48889205
C        0.43953928       1.21196753       0.19744845
O       -0.50649750       1.21375343      -0.91024663
H       -2.68399649       0.50942392       0.13087736
H       -2.24312368      -1.11836125       0.43370956
H        0.50577452      -1.79407633      -0.95148632
H        2.81383962      -0.93915142       0.37339974
H        0.42930193       2.07322180       0.84156792
12
Frame=8 idx=009793 GeodesicLength=0.2592632435706115 rxn_smarts="[N:1]([c:2]1[c:3]([H:10])[c:4]([O:5][H:11])[c:6]([H:12])[o:7]1)([H:8])[H:9]>>[N:1]([C@:2]12[C:3]([H:10])=[C:4]([O:5][H:11])[C@@:6]1([H:12])[O:7]2)([H:8])[H:9]"
N       -2.08551994      -0.26946270      -0.09430118
C       -0.77807590       0.02238393      -0.32296377
C        0.34597591      -0.91693105      -0.32137706
C        1.23567336       0.04445495       0.13838466
O        2.52994658      -0.02777486       0.47501313
C        0.43696111       1.21025375       0.21225380
O       -0.50124738       1.21752421      -0.89590176
H       -2.69027883       0.50663348       0.11900787
H       -2.25966129      -1.12154628       0.41045324
H        0.49629084      -1.81241399      -0.90678974
H        2.82943827      -0.93085003       0.33807534
H        0.44049728       2.07772860       0.84814548
12
Frame=9 idx=009793 GeodesicLength=0.2898740928929816 rxn_smarts="[N:1]([c:2]1[c:3]([H:10])[c:4]([O:5][H:11])[c:6]([H:12])[o:7]1)([H:8])[H:9]>>[N:1]([C@:2]12[C:3]([H:10])=[C:4]([O:5][H:11])[C@@:6]1([H:12])[O:7]2)([H:8])[H:9]"
N       -2.09510122      -0.27287711      -0.11604207
C       -0.77928162       0.02351797      -0.31100431
C        0.34467391      -0.91090866      -0.31200822
C        1.24100083       0.04719692       0.14101944
O        2.53976246      -0.02488434       0.46160955
C        0.43451047       1.20857276       0.22701382
O       -0.49650204       1.22159856      -0.88113905
H       -2.69659122       0.50327810       0.10702630
H       -2.27532828      -1.12489130       0.38705658
H        0.48668536      -1.83013645      -0.86083977
H        2.84392015      -0.92263009       0.30286733
H        0.45225119       2.08216365       0.85444040
12
Frame=10 idx=009793 GeodesicLength=0.32033200683506213 rxn_smarts="[N:1]([c:2]1[c:3]([H:10])[c:4]([O:5][H:11])[c:6]([H:12])[o:7]1)([H:8])[H:9]>>[N:1]([C@:2]12[C:3]([H:10])=[C:4]([O:5][H:11])[C@@:6]1([H:12])[O:7]2)([H:8])[H:9]"
N       -2.10408704      -0.27609412      -0.13820540
C       -0.78059884       0.02463071      -0.29876202
C        0.34336707      -0.90485653      -0.30306227
C        1.24611559       0.04973128       0.14403702
O        2.54903670      -0.02254398       0.44898398
C        0.43208915       1.20668011       0.24227561
O       -0.49173693       1.22573454      -0.86585906
H       -2.70291337       0.49965973       0.09414931
H       -2.29066579      -1.12816346       0.36285004
H        0.47688027      -1.84763326      -0.81185861
H        2.85812888      -0.91351398       0.26468373
H        0.46438432       2.08636896       0.86076766
12
Frame=11 idx=009793 GeodesicLength=0.35041817596428476 rxn_smarts="[N:1]([c:2]1[c:3]([H:10])[c:4]([O:5][H:11])[c:6]([H:12])[o:7]1)([H:8])[H:9]>>[N:1]([C@:2]12[C:3]([H:10])=[C:4]([O:5][H:11])[C@@:6]1([H:12])[O:7]2)([H:8])[H:9]"
N       -2.11205934      -0.27959933      -0.15944114
C       -0.78202474       0.02594682      -0.28682570
C        0.34247287      -0.89796747      -0.29752161
C        1.25150581       0.05288548       0.14420227
O        2.55780633      -0.02050934       0.43570651
C        0.42986802       1.20495623       0.25664378
O       -0.48825500       1.23066151      -0.85018110
H       -2.70892944       0.49498698       0.08243940
H       -2.30399536      -1.13183501       0.33966964
H        0.46696640      -1.86344879      -0.76343438
H        2.86957193      -0.90611946       0.23209464
H        0.47707252       2.09004239       0.86664770
12
Frame=12 idx=009793 GeodesicLength=0.3801253987482441 rxn_smarts="[N:1]([c:2]1[c:3]([H:10])[c:4]([O:5][H:11])[c:6]([H:12])[o:7]1)([H:8])[H:9]>>[N:1]([C@:2]12[C:3]([H:10])=[C:4]([O:5][H:11])[C@@:6]1([H:12])[O:7]2)([H:8])[H:9]"
N       -2.11921990      -0.28332797      -0.17979556
C       -0.78361431       0.02742714      -0.27527851
C        0.34193416      -0.89029749      -0.29552734
C        1.25709063       0.05661923       0.14162544
O        2.56625584      -0.01852900       0.42128533
C        0.42779097       1.20335714       0.27024396
O       -0.48611611       1.23642935      -0.83405760
H       -2.71470519       0.48937316       0.07210823
H       -2.31558879      -1.13600192       0.31720606
H        0.45717396      -1.87750054      -0.71526317
H        2.87868334      -0.90079636       0.20532825
H        0.49031542       2.09324726       0.87212492
12
Frame=13 idx=009793 GeodesicLength=0.40959817483169525 rxn_smarts="[N:1]([c:2]1[c:3]([H:10])[c:4]([O:5][H:11])[c:6]([H:12])[o:7]1)([H:8])[H:9]>>[N:1]([C@:2]12[C:3]([H:10])=[C:4]([O:5][H:11])[C@@:6]1([H:12])[O:7]2)([H:8])[H:9]"
N       -2.12565859      -0.28730277      -0.19919959
C       -0.78534781       0.02911669      -0.26423302
C        0.34183927      -0.88164279      -0.29780699
C        1.26297603       0.06113553       0.13562652
O        2.57480844      -0.01601030       0.40391574
C        0.42590078       1.20189214       0.28302310
O       -0.48555446       1.24330882      -0.81727888
H       -2.72028112       0.48269545       0.06361576
H       -2.32541260      -1.14089954       0.29526473
H        0.44741207      -1.88956833      -0.66721783
H        2.88524980      -0.89847610       0.18676871
H        0.50406819       2.09575119       0.87752176
12
Frame=14 idx=009793 GeodesicLength=0.4389275059211956 rxn_smarts="[N:1]([c:2]1[c:3]([H:10])[c:4]([O:5][H:11])[c:6]([H:12])[o:7]1)([H:8])[H:9]>>[N:1]([C@:2]12[C:3]([H:10])=[C:4]([O:5][H:11])[C@@:6]1([H:12])[O:7]2)([H:8])[H:9]"
N       -2.13147021      -0.29142047      -0.21787148
C       -0.78716555       0.03094302      -0.25375430
C        0.34215511      -0.87204238      -0.30446206
C        1.26909189       0.06637064       0.12628609
O        2.58353149      -0.01280964       0.38307931
C        0.42420381       1.20039041       0.29517297
O       -0.48642010       1.25128087      -0.79970366
H       -2.72565168       0.47504878       0.05685337
H       -2.33371035      -1.14650738       0.27343272
H        0.43760154      -1.89953759      -0.61815931
H        2.88963145      -0.89901284       0.17593765
H        0.51820260       2.09729657       0.88318869
12
Frame=15 idx=009793 GeodesicLength=0.4679755691575879 rxn_smarts="[N:1]([c:2]1[c:3]([H:10])[c:4]([O:5][H:11])[c:6]([H:12])[o:7]1)([H:8])[H:9]>>[N:1]([C@:2]12[C:3]([H:10])=[C:4]([O:5][H:11])[C@@:6]1([H:12])[O:7]2)([H:8])[H:9]"
N       -2.13674943      -0.29555655      -0.23592586
C       -0.78904214       0.03266458      -0.24369595
C        0.34261329      -0.86189828      -0.31453273
C        1.27520994       0.07201795       0.11430509
O        2.59225009      -0.00915337       0.35903930
C        0.42269610       1.19857357       0.30684465
O       -0.48841396       1.25984472      -0.78144315
H       -2.73071259       0.46665861       0.05155365
H       -2.34084777      -1.15263641       0.25153022
H        0.42799692      -1.90670736      -0.56822288
H        2.89221526      -0.90162994       0.17161822
H        0.53278427       2.09782247       0.88892945
12
Frame=16 idx=009793 GeodesicLength=0.4969331512554268 rxn_smarts="[N:1]([c:2]1[c:3]([H:10])[c:4]([O:5][H:11])[c:6]([H:12])[o:7]1)([H:8])[H:9]>>[N:1]([C@:2]12[C:3]([H:10])=[C:4]([O:5][H:11])[C@@:6]1([H:12])[O:7]2)([H:8])[H:9]"
N       -2.14169542      -0.29939935      -0.25415581
C       -0.79090911       0.03378497      -0.23326621
C        0.34277347      -0.85254352      -0.32371409
C        1.28090111       0.07710731       0.10310808
O        2.60025464      -0.00627150       0.33656983
C        0.42130245       1.19614203       0.31865058
O       -0.48996466       1.26745690      -0.76321372
H       -2.73561216       0.45851031       0.04523029
H       -2.34826388      -1.15833521       0.22936434
H        0.41862344      -1.91113471      -0.51665100
H        2.89545805      -0.90305129       0.16371325
H        0.54713208       2.09773407       0.89436445
