16
Frame=0 idx=007562 GeodesicLength=0.0 rxn_smarts="[C:1]([C@@:2]1([C:3]([C:4]#[C:5][H:13])([H:11])[H:12])[C:6]([H:14])([H:15])[N:7]1[H:16])([H:8])([H:9])[H:10]>>[C:1]([N:7]([C:6]([C:2][C:3]([C:4]#[C:5][H:13])([H:11])[H:12])([H:14])[H:15])[H:16])([H:8])([H:9])[H:10]"
C       -1.57902659       1.07156366      -0.70563947
C        0.11674282       0.55587619       0.15712866
C        0.73904754      -0.42725497      -0.82836654
C        2.07940987      -0.74634254      -0.34322652
C        3.17208087      -0.99006848       0.08126573
C       -0.33595791      -0.15017784       1.37344222
N       -1.54540846      -0.22994514       0.57681890
H       -0.98990046       1.09468560      -1.61756033
H       -1.67527204       2.07198934      -0.29740345
H       -2.55520864       0.67109343      -0.99076990
H        0.81780216       0.02148472      -1.82339846
H        0.16212874      -1.35561964      -0.92532026
H        4.14634114      -1.21001851       0.44848885
H        0.08338876      -1.14049716       1.54579639
H       -0.39013511       0.44062474       2.28663736
H       -2.24603265       0.32260662       1.06210689
16
Frame=1 idx=007562 GeodesicLength=0.06169438220123737 rxn_smarts="[C:1]([C@@:2]1([C:3]([C:4]#[C:5][H:13])([H:11])[H:12])[C:6]([H:14])([H:15])[N:7]1[H:16])([H:8])([H:9])[H:10]>>[C:1]([N:7]([C:6]([C:2][C:3]([C:4]#[C:5][H:13])([H:11])[H:12])([H:14])[H:15])[H:16])([H:8])([H:9])[H:10]"
C       -1.56799656       1.08606279      -0.70065807
C        0.12077623       0.53407101       0.16296062
C        0.74024113      -0.45295302      -0.81550923
C        2.08923841      -0.75697250      -0.34517914
C        3.19258950      -0.99026218       0.05700831
C       -0.35737960      -0.14446928       1.38209535
N       -1.55071614      -0.23766387       0.56264790
H       -0.96977275       1.14105644      -1.60583562
H       -1.67521129       2.07490657      -0.26591056
H       -2.53776043       0.69552029      -1.01984341
H        0.80285113      -0.01259605      -1.81563965
H        0.16631732      -1.38404457      -0.89972543
H        4.18143957      -1.18277264       0.40008602
H        0.06373543      -1.12919222       1.58061927
H       -0.42576964       0.46972058       2.27901827
H       -2.27258231       0.28958867       1.04386537
16
Frame=2 idx=007562 GeodesicLength=0.12314446537168645 rxn_smarts="[C:1]([C@@:2]1([C:3]([C:4]#[C:5][H:13])([H:11])[H:12])[C:6]([H:14])([H:15])[N:7]1[H:16])([H:8])([H:9])[H:10]>>[C:1]([N:7]([C:6]([C:2][C:3]([C:4]#[C:5][H:13])([H:11])[H:12])([H:14])[H:15])[H:16])([H:8])([H:9])[H:10]"
C       -1.55594406       1.10054918      -0.69524825
C        0.12481931       0.51138373       0.16949767
C        0.74120443      -0.47961931      -0.80202300
C        2.09903711      -0.76793048      -0.34785567
C        3.21314352      -0.98941444       0.03074553
C       -0.37945503      -0.13907553       1.39043652
N       -1.55617565      -0.24509668       0.54847862
H       -0.94769239       1.18743083      -1.59178497
H       -1.67475205       2.07717000      -0.23485220
H       -2.51841898       0.72136041      -1.04871151
H        0.78652230      -0.04813530      -1.80717466
H        0.17062601      -1.41353554      -0.87258638
H        4.21481390      -1.15228316       0.35126247
H        0.04208815      -1.11803186       1.61520168
H       -0.46139348       0.49799034       2.27036667
H       -2.29842308       0.25723781       1.02424748
16
Frame=3 idx=007562 GeodesicLength=0.18437296335627518 rxn_smarts="[C:1]([C@@:2]1([C:3]([C:4]#[C:5][H:13])([H:11])[H:12])[C:6]([H:14])([H:15])[N:7]1[H:16])([H:8])([H:9])[H:10]>>[C:1]([N:7]([C:6]([C:2][C:3]([C:4]#[C:5][H:13])([H:11])[H:12])([H:14])[H:15])[H:16])([H:8])([H:9])[H:10]"
C       -1.54302381       1.11474576      -0.68970235
C        0.12852097       0.48821964       0.17721168
C        0.74234020      -0.50665452      -0.78715768
C        2.10909762      -0.77809807      -0.35006731
C        3.23366489      -0.98690749       0.00413111
C       -0.40271053      -0.13372052       1.39871612
N       -1.56199812      -0.25233386       0.53416739
H       -0.92356302       1.23341852      -1.57544958
H       -1.67454521       2.07859840      -0.20480134
H       -2.49704133       0.74801965      -1.07786995
H        0.76947263      -0.08455945      -1.79718899
H        0.17580350      -1.44364918      -0.84330122
H        4.24784842      -1.12156520       0.29756287
H        0.01804805      -1.10664178       1.64993646
H       -0.49791116       0.52567247       2.26094854
H       -2.32400309       0.22545563       1.00286427
16
Frame=4 idx=007562 GeodesicLength=0.24561746176102936 rxn_smarts="[C:1]([C@@:2]1([C:3]([C:4]#[C:5][H:13])([H:11])[H:12])[C:6]([H:14])([H:15])[N:7]1[H:16])([H:8])([H:9])[H:10]>>[C:1]([N:7]([C:6]([C:2][C:3]([C:4]#[C:5][H:13])([H:11])[H:12])([H:14])[H:15])[H:16])([H:8])([H:9])[H:10]"
C       -1.52888475       1.12884866      -0.68384869
C        0.13210696       0.46423360       0.18608464
C        0.74337174      -0.53453668      -0.77112096
C        2.11912296      -0.78831474      -0.35244039
C        3.25417277      -0.98411922      -0.02511861
C       -0.42697936      -0.12860301       1.40687284
N       -1.56807396      -0.25927781       0.51972989
H       -0.89699920       1.27926490      -1.55651137
H       -1.67422127       2.07937272      -0.17551431
H       -2.47312287       0.77576828      -1.10727502
H        0.75127541      -0.12240949      -1.78585940
H        0.18134608      -1.47468926      -0.81189914
H        4.27937949      -1.08730810       0.24164205
H       -0.00847453      -1.09531584       1.68472119
H       -0.53490846       0.55258909       2.25073181
H       -2.34911101       0.19449691       0.97980547
16
Frame=5 idx=007562 GeodesicLength=0.30660864853246717 rxn_smarts="[C:1]([C@@:2]1([C:3]([C:4]#[C:5][H:13])([H:11])[H:12])[C:6]([H:14])([H:15])[N:7]1[H:16])([H:8])([H:9])[H:10]>>[C:1]([N:7]([C:6]([C:2][C:3]([C:4]#[C:5][H:13])([H:11])[H:12])([H:14])[H:15])[H:16])([H:8])([H:9])[H:10]"
C       -1.51429424       1.14225963      -0.67800375
C        0.13511562       0.44044950       0.19637737
C        0.74502704      -0.56177990      -0.75338216
C        2.12983785      -0.79601191      -0.35408424
C        3.27472038      -0.97782156      -0.05389785
C       -0.45242574      -0.12311817       1.41501012
N       -1.57425990      -0.26630703       0.50507489
H       -0.86881273       1.32451008      -1.53513673
H       -1.67546545       2.07895096      -0.14767205
H       -2.44696340       0.80316409      -1.13725517
H        0.73275904      -0.16023341      -1.77259780
H        0.18872419      -1.50555022      -0.77799824
H        4.31019571      -1.05821475       0.17917142
H       -0.03703231      -1.08312151       1.71977190
H       -0.57314035       0.57927842       2.23980948
H       -2.37398571       0.16354578       0.95481282
16
Frame=6 idx=007562 GeodesicLength=0.3669643890757145 rxn_smarts="[C:1]([C@@:2]1([C:3]([C:4]#[C:5][H:13])([H:11])[H:12])[C:6]([H:14])([H:15])[N:7]1[H:16])([H:8])([H:9])[H:10]>>[C:1]([N:7]([C:6]([C:2][C:3]([C:4]#[C:5][H:13])([H:11])[H:12])([H:14])[H:15])[H:16])([H:8])([H:9])[H:10]"
C       -1.49908364       1.15523749      -0.67180327
C        0.13808422       0.41634769       0.20719597
C        0.74667120      -0.58908131      -0.73540960
C        2.14061325      -0.80286301      -0.35748578
C        3.29429432      -0.97170602      -0.08444697
C       -0.47779570      -0.11768552       1.42257716
N       -1.58007772      -0.27316942       0.49056114
H       -0.83958914       1.36897776      -1.51146025
H       -1.67724181       2.07771385      -0.12087363
H       -2.41886568       0.83092579      -1.16659877
H        0.71301436      -0.19850590      -1.75870846
H        0.19667792      -1.53650005      -0.74291287
H        4.33777382      -1.02748440       0.11844782
H       -0.06671006      -1.07074703       1.75406250
H       -0.61026103       0.60525353       2.22786590
H       -2.39750430       0.13328657       0.92898911
16
Frame=7 idx=007562 GeodesicLength=0.42691799545892434 rxn_smarts="[C:1]([C@@:2]1([C:3]([C:4]#[C:5][H:13])([H:11])[H:12])[C:6]([H:14])([H:15])[N:7]1[H:16])([H:8])([H:9])[H:10]>>[C:1]([N:7]([C:6]([C:2][C:3]([C:4]#[C:5][H:13])([H:11])[H:12])([H:14])[H:15])[H:16])([H:8])([H:9])[H:10]"
C       -1.48352664       1.16753916      -0.66553968
C        0.14058567       0.39245863       0.21918728
C        0.74887539      -0.61564506      -0.71620255
C        2.15186573      -0.80721904      -0.36109260
C        3.31349098      -0.96285422      -0.11503932
C       -0.50389451      -0.11204518       1.42988241
N       -1.58577514      -0.28010441       0.47591110
H       -0.80937702       1.41252134      -1.48545346
H       -1.68045224       2.07543795      -0.09563918
H       -2.38868147       0.85842013      -1.19598422
H        0.69284543      -0.23666851      -1.74320837
H        0.20635086      -1.56700617      -0.70573516
H        4.36385792      -1.00100703       0.05390619
H       -0.09810061      -1.05775522       1.78811272
H       -0.64777188       0.63072509       2.21519317
H       -2.42029247       0.10320253       0.90170167
16
Frame=8 idx=007562 GeodesicLength=0.4868017429367321 rxn_smarts="[C:1]([C@@:2]1([C:3]([C:4]#[C:5][H:13])([H:11])[H:12])[C:6]([H:14])([H:15])[N:7]1[H:16])([H:8])([H:9])[H:10]>>[C:1]([N:7]([C:6]([C:2][C:3]([C:4]#[C:5][H:13])([H:11])[H:12])([H:14])[H:15])[H:16])([H:8])([H:9])[H:10]"
C       -1.46706176       1.17942594      -0.65913417
C        0.14279103       0.36833286       0.23258528
C        0.75136759      -0.64215270      -0.69557934
C        2.16314737      -0.81029871      -0.36488427
C        3.33218740      -0.95257657      -0.14730304
C       -0.53092406      -0.10640734       1.43700987
N       -1.59142336      -0.28692861       0.46105542
H       -0.77739542       1.45550992      -1.45663771
H       -1.68464007       2.07232716      -0.07188164
H       -2.35551073       0.88599834      -1.22571933
H        0.67204297      -0.27554493      -1.72589200
H        0.21718536      -1.59750916      -0.66615741
H        4.38818674      -0.97487998      -0.01415507
H       -0.13181199      -1.04448077       1.82205291
H       -0.68574048       0.65553904       2.20188165
H       -2.44240057       0.07364550       0.87275886
16
Frame=9 idx=007562 GeodesicLength=0.5463618630381707 rxn_smarts="[C:1]([C@@:2]1([C:3]([C:4]#[C:5][H:13])([H:11])[H:12])[C:6]([H:14])([H:15])[N:7]1[H:16])([H:8])([H:9])[H:10]>>[C:1]([N:7]([C:6]([C:2][C:3]([C:4]#[C:5][H:13])([H:11])[H:12])([H:14])[H:15])[H:16])([H:8])([H:9])[H:10]"
C       -1.44989908       1.19081701      -0.65253776
C        0.14477600       0.34407226       0.24704043
C        0.75410025      -0.66842238      -0.67406119
C        2.17432231      -0.81207368      -0.36968102
C        3.34993435      -0.94113972      -0.18096554
C       -0.55836312      -0.10076938       1.44374275
N       -1.59677197      -0.29366495       0.44612894
H       -0.74431700       1.49765688      -1.42519979
H       -1.68980589       2.06839401      -0.04968957
H       -2.31966582       0.91355849      -1.25529921
H        0.65054050      -0.31486875      -1.70716440
H        0.22908784      -1.62772121      -0.62472668
H        4.41008319      -0.94919500      -0.08352261
H       -0.16725564      -1.03093741       1.85546950
H       -0.72334929       0.67966811       2.18784394
H       -2.46341663       0.04462573       0.84262222
16
Frame=10 idx=007562 GeodesicLength=0.6055299340747303 rxn_smarts="[C:1]([C@@:2]1([C:3]([C:4]#[C:5][H:13])([H:11])[H:12])[C:6]([H:14])([H:15])[N:7]1[H:16])([H:8])([H:9])[H:10]>>[C:1]([N:7]([C:6]([C:2][C:3]([C:4]#[C:5][H:13])([H:11])[H:12])([H:14])[H:15])[H:16])([H:8])([H:9])[H:10]"
C       -1.43191042       1.20175556      -0.64574480
C        0.14658445       0.31950864       0.26245832
C        0.75696022      -0.69466973      -0.65179966
C        2.18511799      -0.81306438      -0.37572515
C        3.36645490      -0.92873184      -0.21606500
C       -0.58607727      -0.09526148       1.44999986
N       -1.60180645      -0.30023624       0.43115163
H       -0.71024278       1.53869633      -1.39126792
H       -1.69549006       2.06380574      -0.02916064
H       -2.28113199       0.94135358      -1.28443816
H        0.62831640      -0.35485959      -1.68710247
H        0.24180731      -1.65770264      -0.58160903
H        4.42929675      -0.92261924      -0.15345524
H       -0.20446995      -1.01735817       1.88815246
H       -0.76020345       0.70297865       2.17312090
H       -2.48320565       0.01640483       0.81148490
16
Frame=11 idx=007562 GeodesicLength=0.6643398148414426 rxn_smarts="[C:1]([C@@:2]1([C:3]([C:4]#[C:5][H:13])([H:11])[H:12])[C:6]([H:14])([H:15])[N:7]1[H:16])([H:8])([H:9])[H:10]>>[C:1]([N:7]([C:6]([C:2][C:3]([C:4]#[C:5][H:13])([H:11])[H:12])([H:14])[H:15])[H:16])([H:8])([H:9])[H:10]"
C       -1.41294124       1.21228751      -0.63872315
C        0.14830353       0.29449002       0.27874035
C        0.75977835      -0.72112582      -0.62898677
C        2.19521283      -0.81390819      -0.38334216
C        3.38141153      -0.91623341      -0.25301937
C       -0.61387458      -0.08992073       1.45573183
N       -1.60645661      -0.30656300       0.41617355
H       -0.67514951       1.57860347      -1.35479081
H       -1.70144421       2.05865689      -0.01032984
H       -2.23968122       0.96943452      -1.31301202
H        0.60527224      -0.39571561      -1.66581379
H        0.25500443      -1.68751776      -0.53700852
H        4.44549149      -0.89329553      -0.22285580
H       -0.24336303      -1.00382877       1.91997945
H       -0.79591039       0.72548024       2.15773470
H       -2.50165363      -0.01084383       0.77952236
16
Frame=12 idx=007562 GeodesicLength=0.7228701484700855 rxn_smarts="[C:1]([C@@:2]1([C:3]([C:4]#[C:5][H:13])([H:11])[H:12])[C:6]([H:14])([H:15])[N:7]1[H:16])([H:8])([H:9])[H:10]>>[C:1]([N:7]([C:6]([C:2][C:3]([C:4]#[C:5][H:13])([H:11])[H:12])([H:14])[H:15])[H:16])([H:8])([H:9])[H:10]"
C       -1.39305370       1.22233918      -0.63152627
C        0.14984928       0.26919654       0.29605159
C        0.76272138      -0.74750861      -0.60541218
C        2.20460078      -0.81429792      -0.39210447
C        3.39478765      -0.90332720      -0.29137528
C       -0.64187704      -0.08466422       1.46098656
N       -1.61068245      -0.31273165       0.40112118
H       -0.63919117       1.61742387      -1.31564519
H       -1.70798595       2.05284858       0.00660627
H       -2.19509466       0.99752489      -1.34114182
H        0.58177827      -0.43715294      -1.64304109
H        0.26894018      -1.71687379      -0.49085108
H        4.45881669      -0.86245973      -0.29302918
H       -0.28399197      -0.99020731       1.95099853
H       -0.83077809       0.74724823       2.14176962
H       -2.51883918      -0.03735791       0.74659281
16
Frame=13 idx=007562 GeodesicLength=0.7811709764332229 rxn_smarts="[C:1]([C@@:2]1([C:3]([C:4]#[C:5][H:13])([H:11])[H:12])[C:6]([H:14])([H:15])[N:7]1[H:16])([H:8])([H:9])[H:10]>>[C:1]([N:7]([C:6]([C:2][C:3]([C:4]#[C:5][H:13])([H:11])[H:12])([H:14])[H:15])[H:16])([H:8])([H:9])[H:10]"
C       -1.37248108       1.23180092      -0.62421193
C        0.15109040       0.24396950       0.31457316
C        0.76610063      -0.77327667      -0.58082370
C        2.21342549      -0.81344858      -0.40143805
C        3.40670831      -0.88911496      -0.33035447
C       -0.67024154      -0.07938867       1.46579242
N       -1.61440789      -0.31891334       0.38589367
H       -0.60281539       1.65521067      -1.27375284
H       -1.71561819       2.04621114       0.02141924
H       -2.14734033       1.02528633      -1.36887915
H        0.55837813      -0.47864929      -1.61851387
H        0.28413287      -1.74528532      -0.44306469
H        4.46952076      -0.83286772      -0.36566707
H       -0.32636186      -0.97629733       1.98122759
H       -0.86527727       0.76834327       2.12528796
H       -2.53481304      -0.06357994       0.71251171
16
Frame=14 idx=007562 GeodesicLength=0.8392999273303877 rxn_smarts="[C:1]([C@@:2]1([C:3]([C:4]#[C:5][H:13])([H:11])[H:12])[C:6]([H:14])([H:15])[N:7]1[H:16])([H:8])([H:9])[H:10]>>[C:1]([N:7]([C:6]([C:2][C:3]([C:4]#[C:5][H:13])([H:11])[H:12])([H:14])[H:15])[H:16])([H:8])([H:9])[H:10]"
C       -1.35151161       1.24060143      -0.61678936
C        0.15197295       0.21914290       0.33433994
C        0.77015068      -0.79792139      -0.55518667
C        2.22177145      -0.81069553      -0.41110502
C        3.41723779      -0.87319726      -0.36958092
C       -0.69894258      -0.07398497       1.47012332
N       -1.61748182      -0.32525965       0.37046725
H       -0.56663549       1.69214474      -1.22899066
H       -1.72488445       2.03854698       0.03393837
H       -2.09644724       1.05239815      -1.39617823
H        0.53547753      -0.51970169      -1.59218095
H        0.30097055      -1.77227241      -0.39376466
H        4.47768971      -0.80679087      -0.44123966
H       -0.37025338      -0.96189669       2.01060342
H       -0.89962624       0.78884691       2.10829079
H       -2.54948787      -0.08996063       0.67725302
16
Frame=15 idx=007562 GeodesicLength=0.8972063394552807 rxn_smarts="[C:1]([C@@:2]1([C:3]([C:4]#[C:5][H:13])([H:11])[H:12])[C:6]([H:14])([H:15])[N:7]1[H:16])([H:8])([H:9])[H:10]>>[C:1]([N:7]([C:6]([C:2][C:3]([C:4]#[C:5][H:13])([H:11])[H:12])([H:14])[H:15])[H:16])([H:8])([H:9])[H:10]"
C       -1.33055489       1.24869573      -0.60926541
C        0.15249800       0.19506166       0.35514356
C        0.77504967      -0.82095032      -0.52874665
C        2.22967278      -0.80551451      -0.42118512
C        3.42640415      -0.85547337      -0.40848540
C       -0.72772002      -0.06836472       1.47386640
N       -1.61971094      -0.33189758       0.35489766
H       -0.53159260       1.72835163      -1.18149769
H       -1.73616658       2.02969273       0.04406542
H       -2.04288023       1.07869121      -1.42270977
H        0.51340877      -0.55977467      -1.56426810
H        0.31970832      -1.79734466      -0.34337947
H        4.48335766      -0.78621743      -0.51912292
H       -0.41513470      -0.94685454       2.03889832
H       -0.93369701       0.80881197       2.09073361
H       -2.56264238      -0.11691314       0.64105556
16
Frame=16 idx=007562 GeodesicLength=0.954950559628682 rxn_smarts="[C:1]([C@@:2]1([C:3]([C:4]#[C:5][H:13])([H:11])[H:12])[C:6]([H:14])([H:15])[N:7]1[H:16])([H:8])([H:9])[H:10]>>[C:1]([N:7]([C:6]([C:2][C:3]([C:4]#[C:5][H:13])([H:11])[H:12])([H:14])[H:15])[H:16])([H:8])([H:9])[H:10]"
C       -1.30952008       1.25616049      -0.60161249
C        0.15278409       0.17152452       0.37674110
C        0.78057045      -0.84268513      -0.50183806
C        2.23679264      -0.79868323      -0.43207773
C        3.43394850      -0.83671489      -0.44762467
C       -0.75627952      -0.06256598       1.47694609
N       -1.62104344      -0.33872083       0.33931901
H       -0.49790860       1.76380623      -1.13132231
H       -1.74905221       2.01972882       0.05173718
H       -1.98659665       1.10437035      -1.44820576
H        0.49200385      -0.59915707      -1.53508220
H        0.33990120      -1.82066638      -0.29225885
H        4.48619913      -0.76920382      -0.59752516
H       -0.46076770      -0.93125589       2.06596184
H       -0.96693530       0.82828405       2.07257648
H       -2.57409637      -0.14422123       0.60426553
