12
Frame=0 idx=000343 GeodesicLength=0.0 rxn_smarts="[C:1]([C@@:2]1([H:10])[O:3][C@:4]1([C:5]#[C:6][H:12])[H:11])([H:7])([H:8])[H:9]>>[C:1]([C@@:2]([O:3][H:11])([C-:4]=[C:5]=[C+:6][H:12])[H:10])([H:7])([H:8])[H:9]"
C       -1.25324359       0.80532303      -0.09003120
C       -0.83433997      -0.53426218       0.43939711
O       -0.54742356      -1.48233227      -0.60745195
C        0.58902253      -0.90137356       0.61635751
C        1.58738282      -0.07845474       0.05615473
C        2.51509644       0.58729619      -0.32421845
H       -0.56454654       1.15265638      -0.85925434
H       -1.26463654       1.53071629       0.72539511
H       -2.25845657       0.74989085      -0.50982604
H       -1.51967188      -0.93986533       1.18345145
H        0.21157283      -2.06036240       0.03098071
H        3.33924407       1.17076770      -0.66095468
12
Frame=1 idx=000343 GeodesicLength=0.04205855055783913 rxn_smarts="[C:1]([C@@:2]1([H:10])[O:3][C@:4]1([C:5]#[C:6][H:12])[H:11])([H:7])([H:8])[H:9]>>[C:1]([C@@:2]([O:3][H:11])([C-:4]=[C:5]=[C+:6][H:12])[H:10])([H:7])([H:8])[H:9]"
C       -1.25412072       0.80522867      -0.09438086
C       -0.83265621      -0.53353491       0.43579873
O       -0.56642141      -1.48955702      -0.60613412
C        0.58921209      -0.90584730       0.59918619
C        1.58886263      -0.07754999       0.05192498
C        2.51598874       0.59409267      -0.32015576
H       -0.57840084       1.14440936      -0.87862574
H       -1.24681960       1.53587201       0.71632595
H       -2.26637018       0.75001891      -0.49685645
H       -1.50122586      -0.92895752       1.20103949
H        0.20574677      -2.07623376       0.02531943
H        3.34620459       1.18205887      -0.63344183
12
Frame=2 idx=000343 GeodesicLength=0.08415527027285458 rxn_smarts="[C:1]([C@@:2]1([H:10])[O:3][C@:4]1([C:5]#[C:6][H:12])[H:11])([H:7])([H:8])[H:9]>>[C:1]([C@@:2]([O:3][H:11])([C-:4]=[C:5]=[C+:6][H:12])[H:10])([H:7])([H:8])[H:9]"
C       -1.25492999       0.80512072      -0.09878910
C       -0.83089268      -0.53280950       0.43218680
O       -0.58579467      -1.49683404      -0.60442409
C        0.58939345      -0.91040411       0.58144525
C        1.59039553      -0.07663562       0.04771983
C        2.51710677       0.60063152      -0.31585741
H       -0.59260914       1.13595832      -0.89791321
H       -1.22874092       1.54097955       0.70673170
H       -2.27401806       0.75033801      -0.48359326
H       -1.48198573      -0.91773968       1.21831371
H        0.19970694      -2.09227123       0.01968292
H        3.35236850       1.19366606      -0.60550313
12
Frame=3 idx=000343 GeodesicLength=0.12627022256445214 rxn_smarts="[C:1]([C@@:2]1([H:10])[O:3][C@:4]1([C:5]#[C:6][H:12])[H:11])([H:7])([H:8])[H:9]>>[C:1]([C@@:2]([O:3][H:11])([C-:4]=[C:5]=[C+:6][H:12])[H:10])([H:7])([H:8])[H:9]"
C       -1.25593993       0.80498599      -0.10312116
C       -0.82916805      -0.53215664       0.42842983
O       -0.60490227      -1.50381030      -0.60265741
C        0.58948812      -0.91473723       0.56350090
C        1.59191606      -0.07493940       0.04472415
C        2.51825764       0.60815389      -0.30956816
H       -0.60714330       1.12777903      -0.91653684
H       -1.21129488       1.54574865       0.69702139
H       -2.28146207       0.75065952      -0.47041951
H       -1.46231590      -0.90675461       1.23469882
H        0.19398765      -2.10809996       0.01388280
H        3.35857694       1.20317104      -0.57995480
12
Frame=4 idx=000343 GeodesicLength=0.16848125261847904 rxn_smarts="[C:1]([C@@:2]1([H:10])[O:3][C@:4]1([C:5]#[C:6][H:12])[H:11])([H:7])([H:8])[H:9]>>[C:1]([C@@:2]([O:3][H:11])([C-:4]=[C:5]=[C+:6][H:12])[H:10])([H:7])([H:8])[H:9]"
C       -1.25678300       0.80484227      -0.10756897
C       -0.82732727      -0.53147371       0.42472613
O       -0.62473190      -1.51100519      -0.60031113
C        0.58959148      -0.91927965       0.54474595
C        1.59355302      -0.07359591       0.04129303
C        2.51977092       0.61475828      -0.30390240
H       -0.62203615       1.11921042      -0.93531602
H       -1.19324218       1.55058453       0.68662117
H       -2.28862786       0.75124513      -0.45680984
H       -1.44168675      -0.89524009       1.25102294
H        0.18777006      -2.12427168       0.00820660
H        3.36374963       1.21422559      -0.55270745
12
Frame=5 idx=000343 GeodesicLength=0.21052790507624644 rxn_smarts="[C:1]([C@@:2]1([H:10])[O:3][C@:4]1([C:5]#[C:6][H:12])[H:11])([H:7])([H:8])[H:9]>>[C:1]([C@@:2]([O:3][H:11])([C-:4]=[C:5]=[C+:6][H:12])[H:10])([H:7])([H:8])[H:9]"
C       -1.25823709       0.80465444      -0.11174764
C       -0.82567433      -0.53094498       0.42067391
O       -0.64326438      -1.51738114      -0.59837004
C        0.58948835      -0.92309846       0.52632039
C        1.59494586      -0.07034347       0.04094098
C        2.52082471       0.62404227      -0.29363995
H       -0.63720294       1.11163062      -0.95253707
H       -1.17724341       1.55467079       0.67669819
H       -2.29565582       0.75151743      -0.44390243
H       -1.42116341      -0.88474867       1.26556273
H        0.18275047      -2.13964699       0.00212037
H        3.37043200       1.21964816      -0.53211944
12
Frame=6 idx=000343 GeodesicLength=0.2527570776520713 rxn_smarts="[C:1]([C@@:2]1([H:10])[O:3][C@:4]1([C:5]#[C:6][H:12])[H:11])([H:7])([H:8])[H:9]>>[C:1]([C@@:2]([O:3][H:11])([C-:4]=[C:5]=[C+:6][H:12])[H:10])([H:7])([H:8])[H:9]"
C       -1.25951056       0.80444737      -0.11608302
C       -0.82388423      -0.53037477       0.41671065
O       -0.66277948      -1.52410283      -0.59573842
C        0.58942084      -0.92716591       0.50683424
C        1.59647642      -0.06763047       0.03980487
C        2.52221953       0.63228951      -0.28433948
H       -0.65283286       1.10352709      -0.97013763
H       -1.16039361       1.55891593       0.66596606
H       -2.30248836       0.75205815      -0.43039057
H       -1.39951444      -0.87360896       1.28024805
H        0.17707285      -2.15546802      -0.00382923
H        3.37621391       1.22711292      -0.50904552
12
Frame=7 idx=000343 GeodesicLength=0.2950051726380279 rxn_smarts="[C:1]([C@@:2]1([H:10])[O:3][C@:4]1([C:5]#[C:6][H:12])[H:11])([H:7])([H:8])[H:9]>>[C:1]([C@@:2]([O:3][H:11])([C-:4]=[C:5]=[C+:6][H:12])[H:10])([H:7])([H:8])[H:9]"
C       -1.26071130       0.80421204      -0.12053197
C       -0.82193358      -0.52975689       0.41273314
O       -0.68294040      -1.53099682      -0.59247722
C        0.58935139      -0.93135580       0.48627991
C        1.59803650      -0.06518505       0.03823809
C        2.52381456       0.64018268      -0.27465078
H       -0.66904211       1.09499474      -0.98788482
H       -1.14301168       1.56321111       0.65445399
H       -2.30910411       0.75283535      -0.41629070
H       -1.37669276      -0.86193748       1.29473607
H        0.17103841      -2.17154994      -0.00975777
H        3.38119507       1.23534606      -0.48484795
12
Frame=8 idx=000343 GeodesicLength=0.3372745427898054 rxn_smarts="[C:1]([C@@:2]1([H:10])[O:3][C@:4]1([C:5]#[C:6][H:12])[H:11])([H:7])([H:8])[H:9]>>[C:1]([C@@:2]([O:3][H:11])([C-:4]=[C:5]=[C+:6][H:12])[H:10])([H:7])([H:8])[H:9]"
C       -1.26218208       0.80391279      -0.12495781
C       -0.81999897      -0.52916757       0.40865185
O       -0.70309539      -1.53772221      -0.58893897
C        0.58919402      -0.93523140       0.46510875
C        1.59953313      -0.06209812       0.03761614
C        2.52530192       0.64877763      -0.26346770
H       -0.68576420       1.08660573      -1.00519132
H       -1.12619120       1.56725252       0.64266328
H       -2.31564363       0.75350674      -0.40211616
H       -1.35320761      -0.85037568       1.30852853
H        0.16521713      -2.18744459      -0.01578959
H        3.38683688       1.24198417      -0.46210700
12
Frame=9 idx=000343 GeodesicLength=0.3796788944838748 rxn_smarts="[C:1]([C@@:2]1([H:10])[O:3][C@:4]1([C:5]#[C:6][H:12])[H:11])([H:7])([H:8])[H:9]>>[C:1]([C@@:2]([O:3][H:11])([C-:4]=[C:5]=[C+:6][H:12])[H:10])([H:7])([H:8])[H:9]"
C       -1.26367740       0.80357778      -0.12950066
C       -0.81791820      -0.52853276       0.40455363
O       -0.72394108      -1.54461955      -0.58470839
C        0.58901107      -0.93914030       0.44273282
C        1.60108225      -0.05919981       0.03660396
C        2.52703937       0.65703804      -0.25188052
H       -0.70320620       1.07783852      -1.02264751
H       -1.10896419       1.57133575       0.63007182
H       -2.32205733       0.75435483      -0.38733226
H       -1.32845507      -0.83834035       1.32209680
H        0.15905683      -2.20355909      -0.02178556
H        3.39202996       1.24924694      -0.43820412
12
Frame=10 idx=000343 GeodesicLength=0.4222334213684648 rxn_smarts="[C:1]([C@@:2]1([H:10])[O:3][C@:4]1([C:5]#[C:6][H:12])[H:11])([H:7])([H:8])[H:9]>>[C:1]([C@@:2]([O:3][H:11])([C-:4]=[C:5]=[C+:6][H:12])[H:10])([H:7])([H:8])[H:9]"
C       -1.26492754       0.80321867      -0.13430029
C       -0.81547891      -0.52776040       0.40052410
O       -0.74618158      -1.55198193      -0.57926236
C        0.58885029      -0.94339213       0.41844945
C        1.60271442      -0.05732865       0.03368038
C        2.52919043       0.66392833      -0.24128194
H       -0.72165747       1.06815903      -1.04082413
H       -1.09032340       1.57570728       0.61604875
H       -2.32819444       0.75563956      -0.37132210
H       -1.30163816      -0.82521943       1.33590581
H        0.15198433      -2.22023889      -0.02756732
H        3.39566204       1.25926856      -0.41005035
12
Frame=11 idx=000343 GeodesicLength=0.4649101831486221 rxn_smarts="[C:1]([C@@:2]1([H:10])[O:3][C@:4]1([C:5]#[C:6][H:12])[H:11])([H:7])([H:8])[H:9]>>[C:1]([C@@:2]([O:3][H:11])([C-:4]=[C:5]=[C+:6][H:12])[H:10])([H:7])([H:8])[H:9]"
C       -1.26604177       0.80284076      -0.13930343
C       -0.81271711      -0.52685719       0.39650722
O       -0.76953282      -1.55964070      -0.57263727
C        0.58862332      -0.94785817       0.39236385
C        1.60444933      -0.05623073       0.02932283
C        2.53183628       0.66961770      -0.23112326
H       -0.74110766       1.05777908      -1.05942128
H       -1.07070806       1.58023998       0.60072399
H       -2.33402506       0.75730627      -0.35427636
H       -1.27285058      -0.81120852       1.34962706
H        0.14421526      -2.23731162      -0.03313308
H        3.39785885       1.27132315      -0.37865029
12
Frame=12 idx=000343 GeodesicLength=0.5077711656354629 rxn_smarts="[C:1]([C@@:2]1([H:10])[O:3][C@:4]1([C:5]#[C:6][H:12])[H:11])([H:7])([H:8])[H:9]>>[C:1]([C@@:2]([O:3][H:11])([C-:4]=[C:5]=[C+:6][H:12])[H:10])([H:7])([H:8])[H:9]"
C       -1.26724548       0.80242049      -0.14446086
C       -0.80970011      -0.52584420       0.39244790
O       -0.79368985      -1.56746860      -0.56493811
C        0.58828317      -0.95226601       0.36453987
C        1.60627015      -0.05544351       0.02401615
C        2.53487363       0.67479597      -0.22051557
H       -0.76166719       1.04693271      -1.07821444
H       -1.05067605       1.58482828       0.58426940
H       -2.33967960       0.75915407      -0.33636298
H       -1.24220872      -0.79656683       1.36300982
H        0.13606937      -2.25454639      -0.03854313
H        3.39937068       1.28400401      -0.34524805
12
Frame=13 idx=000343 GeodesicLength=0.5507103237712219 rxn_smarts="[C:1]([C@@:2]1([H:10])[O:3][C@:4]1([C:5]#[C:6][H:12])[H:11])([H:7])([H:8])[H:9]>>[C:1]([C@@:2]([O:3][H:11])([C-:4]=[C:5]=[C+:6][H:12])[H:10])([H:7])([H:8])[H:9]"
C       -1.26882030       0.80193658      -0.14969198
C       -0.80649641      -0.52472426       0.38824120
O       -0.81809341      -1.57520693      -0.55634017
C        0.58777256      -0.95626870       0.33517226
C        1.60805258      -0.05439150       0.01861855
C        2.53807842       0.68012296      -0.20820216
H       -0.78340456       1.03595712      -1.09678848
H       -1.03104350       1.58928900       0.56695306
H       -2.34527917       0.76095658      -0.31788896
H       -1.20994443      -0.78163802       1.37559345
H        0.12808528      -2.27156503      -0.04385472
H        3.40109293       1.29553219      -0.31181204
12
Frame=14 idx=000343 GeodesicLength=0.5937603802818899 rxn_smarts="[C:1]([C@@:2]1([H:10])[O:3][C@:4]1([C:5]#[C:6][H:12])[H:11])([H:7])([H:8])[H:9]>>[C:1]([C@@:2]([O:3][H:11])([C-:4]=[C:5]=[C+:6][H:12])[H:10])([H:7])([H:8])[H:9]"
C       -1.27085818       0.80140207      -0.15497275
C       -0.80312653      -0.52346085       0.38386653
O       -0.84263409      -1.58283745      -0.54683675
C        0.58708591      -0.95974320       0.30421112
C        1.60984223      -0.05307652       0.01324838
C        2.54163432       0.68533189      -0.19412258
H       -0.80634473       1.02490354      -1.11506264
H       -1.01204779       1.59364545       0.54885481
H       -2.35090455       0.76266475      -0.29891702
H       -1.17609747      -0.76640554       1.38727072
H        0.12040449      -2.28828038      -0.04903791
H        3.40304640       1.30585623      -0.27850191
12
Frame=15 idx=000343 GeodesicLength=0.6368573218531695 rxn_smarts="[C:1]([C@@:2]1([H:10])[O:3][C@:4]1([C:5]#[C:6][H:12])[H:11])([H:7])([H:8])[H:9]>>[C:1]([C@@:2]([O:3][H:11])([C-:4]=[C:5]=[C+:6][H:12])[H:10])([H:7])([H:8])[H:9]"
C       -1.27329387       0.80084186      -0.16033713
C       -0.79949271      -0.52203825       0.37929084
O       -0.86726506      -1.59033477      -0.53623915
C        0.58608408      -0.96265050       0.27145202
C        1.61148024      -0.05164272       0.00762498
C        2.54549987       0.69015683      -0.17755948
H       -0.83061487       1.01380235      -1.13305453
H       -0.99359282       1.59792787       0.52977662
H       -2.35636503       0.76430234      -0.27931741
H       -1.14043314      -0.75089694       1.39788768
H        0.11304289      -2.30464458      -0.05402612
H        3.40495042       1.31517652      -0.24549834
12
Frame=16 idx=000343 GeodesicLength=0.680081589731397 rxn_smarts="[C:1]([C@@:2]1([H:10])[O:3][C@:4]1([C:5]#[C:6][H:12])[H:11])([H:7])([H:8])[H:9]>>[C:1]([C@@:2]([O:3][H:11])([C-:4]=[C:5]=[C+:6][H:12])[H:10])([H:7])([H:8])[H:9]"
C       -1.27608721       0.80027687      -0.16579213
C       -0.79555256      -0.52036855       0.37457528
O       -0.89224090      -1.59782362      -0.52426425
C        0.58476036      -0.96504538       0.23661800
C        1.61316495      -0.05049774       0.00109242
C        2.55009281       0.69347645      -0.16063680
H       -0.85631670       1.00245128      -1.15091253
H       -0.97544810       1.60227954       0.50958844
H       -2.36169796       0.76594763      -0.25890756
H       -1.10265418      -0.73475469       1.40760216
H        0.10580946      -2.32074595      -0.05859934
H        3.40617004       1.32480417      -0.21036370
