10
Frame=0 idx=004304 GeodesicLength=0.0 rxn_smarts="[O:1]([c:2]1[n:3][c:4]([H:8])[c:5]([H:9])[n:6]1[H:10])[H:7]>>[O:1]([C:2]1=[N+:3]=[C-:4][C:5]([H:8])([H:9])[N:6]1[H:10])[H:7]"
O        2.14479374      -0.17540311      -0.14112573
C        0.83173652      -0.25934498       0.02650487
N        0.14882948      -1.34295296       0.22086354
C       -1.20144199      -0.97930304       0.41816505
C       -1.21554198       0.42999005       0.17621536
N        0.08904751       0.86971837      -0.02293478
H        2.48608252      -1.07611260      -0.09011641
H       -1.68280061      -0.37939621      -0.69534928
H       -2.02309596       1.12416329       0.36030574
H        0.42239076       1.78864119      -0.25252836
10
Frame=1 idx=004304 GeodesicLength=0.03770504074065078 rxn_smarts="[O:1]([c:2]1[n:3][c:4]([H:8])[c:5]([H:9])[n:6]1[H:10])[H:7]>>[O:1]([C:2]1=[N+:3]=[C-:4][C:5]([H:8])([H:9])[N:6]1[H:10])[H:7]"
O        2.14703204      -0.17503887      -0.13754771
C        0.83352872      -0.25714583       0.02668396
N        0.15005924      -1.34193731       0.22198715
C       -1.19705872      -0.97673180       0.41592857
C       -1.21671067       0.43105390       0.16657461
N        0.09033935       0.86970472      -0.03024576
H        2.48657931      -1.07646587      -0.08720082
H       -1.70135291      -0.38950593      -0.69973647
H       -2.01873586       1.12565100       0.37175790
H        0.42631950       1.79041599      -0.24820144
10
Frame=2 idx=004304 GeodesicLength=0.0754393016200251 rxn_smarts="[O:1]([c:2]1[n:3][c:4]([H:8])[c:5]([H:9])[n:6]1[H:10])[H:7]>>[O:1]([C:2]1=[N+:3]=[C-:4][C:5]([H:8])([H:9])[N:6]1[H:10])[H:7]"
O        2.14958627      -0.17433686      -0.13114504
C        0.83534548      -0.25487519       0.02711765
N        0.15128903      -1.34081189       0.22348875
C       -1.19270443      -0.97397532       0.41378205
C       -1.21791023       0.43217541       0.15650158
N        0.09164247       0.86967330      -0.03808220
H        2.48675783      -1.07698715      -0.08692369
H       -1.72032988      -0.40011359      -0.70364160
H       -2.01395128       1.12710085       0.38268780
H        0.43027473       1.79215044      -0.24378529
10
Frame=3 idx=004304 GeodesicLength=0.11313942840746857 rxn_smarts="[O:1]([c:2]1[n:3][c:4]([H:8])[c:5]([H:9])[n:6]1[H:10])[H:7]>>[O:1]([C:2]1=[N+:3]=[C-:4][C:5]([H:8])([H:9])[N:6]1[H:10])[H:7]"
O        2.15187340      -0.17384372      -0.12682868
C        0.83722190      -0.25245774       0.02814949
N        0.15250911      -1.33959377       0.22508167
C       -1.18841627      -0.97116823       0.41129064
C       -1.21911204       0.43330958       0.14617445
N        0.09301326       0.86968976      -0.04578062
H        2.48702414      -1.07740128      -0.08547102
H       -1.73951561      -0.41088051      -0.70730949
H       -2.00879989       1.12838667       0.39328150
H        0.43420200       1.79395925      -0.23858794
10
Frame=4 idx=004304 GeodesicLength=0.15086767701871764 rxn_smarts="[O:1]([c:2]1[n:3][c:4]([H:8])[c:5]([H:9])[n:6]1[H:10])[H:7]>>[O:1]([C:2]1=[N+:3]=[C-:4][C:5]([H:8])([H:9])[N:6]1[H:10])[H:7]"
O        2.15395225      -0.17350474      -0.12386747
C        0.83924686      -0.24974776       0.03102612
N        0.15378680      -1.33813452       0.22795503
C       -1.18428381      -0.96820500       0.40869216
C       -1.22037700       0.43448799       0.13531438
N        0.09447777       0.86982394      -0.05297666
H        2.48700353      -1.07798242      -0.08537207
H       -1.75838557      -0.42213333      -0.71105531
H       -2.00358927       1.12954502       0.40246211
H        0.43816844       1.79585081      -0.23217829
10
Frame=5 idx=004304 GeodesicLength=0.18858553952691964 rxn_smarts="[O:1]([c:2]1[n:3][c:4]([H:8])[c:5]([H:9])[n:6]1[H:10])[H:7]>>[O:1]([C:2]1=[N+:3]=[C-:4][C:5]([H:8])([H:9])[N:6]1[H:10])[H:7]"
O        2.15594557      -0.17324284      -0.12187868
C        0.84130091      -0.24694290       0.03401412
N        0.15505818      -1.33661448       0.23065344
C       -1.18015882      -0.96517459       0.40584517
C       -1.22162597       0.43568327       0.12422989
N        0.09599052       0.86995452      -0.06045705
H        2.48708368      -1.07847807      -0.08443207
H       -1.77774168      -0.43356983      -0.71430015
H       -1.99794992       1.13059911       0.41139577
H        0.44209752       1.79778582      -0.22507044
10
Frame=6 idx=004304 GeodesicLength=0.22644331337499815 rxn_smarts="[O:1]([c:2]1[n:3][c:4]([H:8])[c:5]([H:9])[n:6]1[H:10])[H:7]>>[O:1]([C:2]1=[N+:3]=[C-:4][C:5]([H:8])([H:9])[N:6]1[H:10])[H:7]"
O        2.15804160      -0.17285314      -0.11908915
C        0.84337052      -0.24407855       0.03691948
N        0.15631323      -1.33506357       0.23304799
C       -1.17600650      -0.96208066       0.40278654
C       -1.22279564       0.43691328       0.11296789
N        0.09757926       0.87007336      -0.06835391
H        2.48712162      -1.07893423      -0.08373158
H       -1.79772303      -0.44517671      -0.71690822
H       -1.99180724       1.13156816       0.42017413
H        0.44590618       1.79963207      -0.21781316
10
Frame=7 idx=004304 GeodesicLength=0.26428050382884627 rxn_smarts="[O:1]([c:2]1[n:3][c:4]([H:8])[c:5]([H:9])[n:6]1[H:10])[H:7]>>[O:1]([C:2]1=[N+:3]=[C-:4][C:5]([H:8])([H:9])[N:6]1[H:10])[H:7]"
O        2.16028248      -0.17232170      -0.11564112
C        0.84539783      -0.24127753       0.03880241
N        0.15752662      -1.33358929       0.23431889
C       -1.17176361      -0.95897355       0.39939731
C       -1.22389349       0.43812763       0.10166623
N        0.09919917       0.87005715      -0.07717473
H        2.48742136      -1.07918272      -0.08179077
H       -1.81881668      -0.45675654      -0.71845907
H       -1.98494603       1.13247037       0.42936779
H        0.44959234       1.80144619      -0.21048695
10
Frame=8 idx=004304 GeodesicLength=0.3021740031776906 rxn_smarts="[O:1]([c:2]1[n:3][c:4]([H:8])[c:5]([H:9])[n:6]1[H:10])[H:7]>>[O:1]([C:2]1=[N+:3]=[C-:4][C:5]([H:8])([H:9])[N:6]1[H:10])[H:7]"
O        2.16267641      -0.17159392      -0.11102630
C        0.84742754      -0.23845849       0.04044811
N        0.15871177      -1.33215019       0.23500169
C       -1.16750436      -0.95585621       0.39566528
C       -1.22495876       0.43939530       0.09030774
N        0.10086921       0.87003381      -0.08639128
H        2.48777299      -1.07930121      -0.07999700
H       -1.84064190      -0.46834213      -0.71917640
H       -1.97749950       1.13327879       0.43851663
H        0.45314662       1.80299426      -0.20334846
10
Frame=9 idx=004304 GeodesicLength=0.3400169879529635 rxn_smarts="[O:1]([c:2]1[n:3][c:4]([H:8])[c:5]([H:9])[n:6]1[H:10])[H:7]>>[O:1]([C:2]1=[N+:3]=[C-:4][C:5]([H:8])([H:9])[N:6]1[H:10])[H:7]"
O        2.16531201      -0.17056492      -0.10482627
C        0.84938468      -0.23578742       0.04083154
N        0.15981921      -1.33096481       0.23378833
C       -1.16313544      -0.95286460       0.39131632
C       -1.22591157       0.44070964       0.07918710
N        0.10263682       0.86993378      -0.09619454
H        2.48850860      -1.07906194      -0.07672212
H       -1.86378874      -0.47941684      -0.71859199
H       -1.96916743       1.13391039       0.44858184
H        0.45634187       1.80410672      -0.19737021
10
Frame=10 idx=004304 GeodesicLength=0.37784611000567425 rxn_smarts="[O:1]([c:2]1[n:3][c:4]([H:8])[c:5]([H:9])[n:6]1[H:10])[H:7]>>[O:1]([C:2]1=[N+:3]=[C-:4][C:5]([H:8])([H:9])[N:6]1[H:10])[H:7]"
O        2.16800842      -0.16941496      -0.09780416
C        0.85141885      -0.23305025       0.04124861
N        0.16094373      -1.32977825       0.23209743
C       -1.15878995      -0.94993212       0.38638306
C       -1.22684031       0.44201933       0.06815270
N        0.10449727       0.86986513      -0.10582792
H        2.48925787      -1.07874044      -0.07355972
H       -1.88746761      -0.49031828      -0.71724643
H       -1.96039520       1.13437507       0.45852723
H        0.45936692       1.80497476      -0.19197080
10
Frame=11 idx=004304 GeodesicLength=0.4157772941778003 rxn_smarts="[O:1]([c:2]1[n:3][c:4]([H:8])[c:5]([H:9])[n:6]1[H:10])[H:7]>>[O:1]([C:2]1=[N+:3]=[C-:4][C:5]([H:8])([H:9])[N:6]1[H:10])[H:7]"
O        2.17076438      -0.16809853      -0.09021092
C        0.85339653      -0.23042010       0.04092695
N        0.16203558      -1.32880509       0.22896150
C       -1.15434222      -0.94712908       0.38087298
C       -1.22767077       0.44337408       0.05719664
N        0.10642534       0.86971832      -0.11592441
H        2.49032330      -1.07810759      -0.06895959
H       -1.91228126      -0.50089501      -0.71465360
H       -1.95091871       1.13463125       0.46885022
H        0.46226783       1.80573175      -0.18705977
10
Frame=12 idx=004304 GeodesicLength=0.45370673262188804 rxn_smarts="[O:1]([c:2]1[n:3][c:4]([H:8])[c:5]([H:9])[n:6]1[H:10])[H:7]>>[O:1]([C:2]1=[N+:3]=[C-:4][C:5]([H:8])([H:9])[N:6]1[H:10])[H:7]"
O        2.17356757      -0.16663471      -0.08193693
C        0.85540082      -0.22778578       0.04045522
N        0.16311538      -1.32795697       0.22483938
C       -1.14988978      -0.94449107       0.37462516
C       -1.22843540       0.44473189       0.04641829
N        0.10846055       0.86957454      -0.12584010
H        2.49153430      -1.07728201      -0.06374700
H       -1.93783992      -0.51107148      -0.71105698
H       -1.94093068       1.13461772       0.47930132
H        0.46501717       1.80629787      -0.18305837
10
Frame=13 idx=004304 GeodesicLength=0.49166964150591796 rxn_smarts="[O:1]([c:2]1[n:3][c:4]([H:8])[c:5]([H:9])[n:6]1[H:10])[H:7]>>[O:1]([C:2]1=[N+:3]=[C-:4][C:5]([H:8])([H:9])[N:6]1[H:10])[H:7]"
O        2.17638779      -0.16505829      -0.07310095
C        0.85744730      -0.22512992       0.04004116
N        0.16421213      -1.32720473       0.21993488
C       -1.14543836      -0.94200341       0.36766158
C       -1.22914709       0.44611592       0.03576573
N        0.11060324       0.86945324      -0.13551037
H        2.49284073      -1.07630829      -0.05818379
H       -1.96403439      -0.52092373      -0.70647834
H       -1.93054067       1.13433637       0.48965935
H        0.46766932       1.80672284      -0.17978924
10
Frame=14 idx=004304 GeodesicLength=0.5296706468707929 rxn_smarts="[O:1]([c:2]1[n:3][c:4]([H:8])[c:5]([H:9])[n:6]1[H:10])[H:7]>>[O:1]([C:2]1=[N+:3]=[C-:4][C:5]([H:8])([H:9])[N:6]1[H:10])[H:7]"
O        2.17919309      -0.16342621      -0.06390552
C        0.85955343      -0.22239634       0.04012390
N        0.16534821      -1.32648217       0.21469891
C       -1.14101767      -0.93963510       0.36003615
C       -1.22979956       0.44752768       0.02512359
N        0.11288232       0.86937935      -0.14475985
H        2.49414258      -1.07526913      -0.05284490
H       -1.99064859      -0.53056782      -0.70103156
H       -1.91992514       1.13380052       0.49953454
H        0.47027134       1.80706922      -0.17697528
10
Frame=15 idx=004304 GeodesicLength=0.5676975150983073 rxn_smarts="[O:1]([c:2]1[n:3][c:4]([H:8])[c:5]([H:9])[n:6]1[H:10])[H:7]>>[O:1]([C:2]1=[N+:3]=[C-:4][C:5]([H:8])([H:9])[N:6]1[H:10])[H:7]"
O        2.18197739      -0.16175003      -0.05443302
C        0.86171206      -0.21959862       0.04061544
N        0.16653411      -1.32579351       0.20909007
C       -1.13661928      -0.93739532       0.35171387
C       -1.23039359       0.44897169       0.01448529
N        0.11529437       0.86934998      -0.15363079
H        2.49546280      -1.07415649      -0.04757427
H       -2.01770122      -0.53998941      -0.69464323
H       -1.90911231       1.13300247       0.50893860
H        0.47284567       1.80735924      -0.17456197
10
Frame=16 idx=004304 GeodesicLength=0.6057444608314324 rxn_smarts="[O:1]([c:2]1[n:3][c:4]([H:8])[c:5]([H:9])[n:6]1[H:10])[H:7]>>[O:1]([C:2]1=[N+:3]=[C-:4][C:5]([H:8])([H:9])[N:6]1[H:10])[H:7]"
O        2.18473284      -0.16003752      -0.04479704
C        0.86391143      -0.21675175       0.04139945
N        0.16777553      -1.32514411       0.20304354
C       -1.13223473      -0.93529639       0.34264299
C       -1.23092260       0.45045208       0.00384897
N        0.11783576       0.86936474      -0.16217318
H        2.49682740      -1.07296047      -0.04214325
H       -2.04521486      -0.54916430      -0.68723233
H       -1.89811411       1.13192672       0.51791548
H        0.47540333       1.80761100      -0.17250463
