12
Frame=0 idx=006777 GeodesicLength=0.0 rxn_smarts="[O:1]=[C:2]([C@@:3]1([H:9])[C:4]([H:10])([H:11])[N:5]1[C:6](=[O:7])[H:12])[H:8]>>[O:1](/[C:2](=[C:3](\[N:5]=[C:4]([H:10])[H:11])[H:9])[H:8])[C:6](=[O:7])[H:12]"
O        0.48024422      -1.24207286      -0.90525723
C        1.21736939      -0.23476526      -0.47519948
C        0.81933333       0.64206973       0.49027921
C       -0.77373371       1.22239237       0.28009211
N       -0.41365363       0.32207875       1.19019230
C       -0.73235978      -1.57158988      -0.22679993
O       -1.75928546      -1.49584715      -0.81316510
H        2.20239563      -0.20454926      -0.92871085
H        1.51367949       1.40122587       0.83684087
H       -1.48612136       0.97370749      -0.52138784
H       -0.54314453       2.29257622       0.37366299
H       -0.52472359      -2.10522601       0.69945290
12
Frame=1 idx=006777 GeodesicLength=0.11095623313924773 rxn_smarts="[O:1]=[C:2]([C@@:3]1([H:9])[C:4]([H:10])([H:11])[N:5]1[C:6](=[O:7])[H:12])[H:8]>>[O:1](/[C:2](=[C:3](\[N:5]=[C:4]([H:10])[H:11])[H:9])[H:8])[C:6](=[O:7])[H:12]"
O        0.52548690      -1.28299822      -0.87819447
C        1.23006618      -0.24839200      -0.46673333
C        0.81581952       0.63064644       0.49291037
C       -0.77248947       1.23773580       0.27110428
N       -0.43064986       0.31581278       1.16701970
C       -0.73484481      -1.57371491      -0.20570900
O       -1.75045124      -1.49803647      -0.81298846
H        2.17488318      -0.14688641      -0.99127959
H        1.51031403       1.38005318       0.85950863
H       -1.48246224       1.00776804      -0.53685400
H       -0.53580331       2.30385630       0.38576382
H       -0.54986888      -2.12584452       0.71545204
12
Frame=2 idx=006777 GeodesicLength=0.22191552851405238 rxn_smarts="[O:1]=[C:2]([C@@:3]1([H:9])[C:4]([H:10])([H:11])[N:5]1[C:6](=[O:7])[H:12])[H:8]>>[O:1](/[C:2](=[C:3](\[N:5]=[C:4]([H:10])[H:11])[H:9])[H:8])[C:6](=[O:7])[H:12]"
O        0.57369501      -1.32399338      -0.84752074
C        1.24335226      -0.26041204      -0.46018975
C        0.81265307       0.62030118       0.49391277
C       -0.77117592       1.25324177       0.26315913
N       -0.44592696       0.30966774       1.14308377
C       -0.73603104      -1.57559521      -0.18584296
O       -1.73883255      -1.50023494      -0.81556143
H        2.13995207      -0.09541880      -1.05067301
H        1.50678253       1.36008416       0.87997600
H       -1.47950449       1.04262672      -0.55027312
H       -0.52957820       2.31500042       0.39975323
H       -0.57538578      -2.14526762       0.73017611
12
Frame=3 idx=006777 GeodesicLength=0.33285170457331487 rxn_smarts="[O:1]=[C:2]([C@@:3]1([H:9])[C:4]([H:10])([H:11])[N:5]1[C:6](=[O:7])[H:12])[H:8]>>[O:1](/[C:2](=[C:3](\[N:5]=[C:4]([H:10])[H:11])[H:9])[H:8])[C:6](=[O:7])[H:12]"
O        0.62446647      -1.36422060      -0.81364895
C        1.25647316      -0.27042266      -0.45633343
C        0.80966819       0.61140773       0.49275663
C       -0.77026561       1.26905400       0.25658710
N       -0.45942417       0.30366106       1.11837201
C       -0.73601300      -1.57712161      -0.16744715
O       -1.72472446      -1.50245953      -0.82058880
H        2.10075596      -0.05270689      -1.10540373
H        1.50305640       1.34176980       0.89741763
H       -1.47826513       1.07848291      -0.56083728
H       -0.52501952       2.32611745       0.41604520
H       -0.60070828      -2.16356166       0.74308077
12
Frame=4 idx=006777 GeodesicLength=0.44390528937428353 rxn_smarts="[O:1]=[C:2]([C@@:3]1([H:9])[C:4]([H:10])([H:11])[N:5]1[C:6](=[O:7])[H:12])[H:8]>>[O:1](/[C:2](=[C:3](\[N:5]=[C:4]([H:10])[H:11])[H:9])[H:8])[C:6](=[O:7])[H:12]"
O        0.67778925      -1.40337474      -0.77608491
C        1.26949964      -0.27906196      -0.45430458
C        0.80680565       0.60391031       0.48972487
C       -0.76978734       1.28528836       0.25129219
N       -0.47155448       0.29789071       1.09289648
C       -0.73495408      -1.57839993      -0.15047476
O       -1.70810208      -1.50479877      -0.82811094
H        2.05779481      -0.01828070      -1.15717186
H        1.49916660       1.32498354       0.91226096
H       -1.47866327       1.11550565      -0.56873304
H       -0.52198334       2.33725679       0.43458597
H       -0.62601136      -2.18091926       0.75411963
12
Frame=5 idx=006777 GeodesicLength=0.5549542739738645 rxn_smarts="[O:1]=[C:2]([C@@:3]1([H:9])[C:4]([H:10])([H:11])[N:5]1[C:6](=[O:7])[H:12])[H:8]>>[O:1](/[C:2](=[C:3](\[N:5]=[C:4]([H:10])[H:11])[H:9])[H:8])[C:6](=[O:7])[H:12]"
O        0.73339144      -1.44077475      -0.73477194
C        1.28274993      -0.28716395      -0.45291336
C        0.80402518       0.59738809       0.48534551
C       -0.76952069       1.30191752       0.24692639
N       -0.48275160       0.29239143       1.06646602
C       -0.73287794      -1.57941097      -0.13480596
O       -1.68905433      -1.50726238      -0.83770529
H        2.00972858       0.00918748      -1.20716372
H        1.49506749       1.30913922       0.92526391
H       -1.48003148       1.15379474      -0.57464922
H       -0.51989168       2.34818392       0.45480135
H       -0.65083491      -2.19739035       0.76320631
12
Frame=6 idx=006777 GeodesicLength=0.6661397362814231 rxn_smarts="[O:1]=[C:2]([C@@:3]1([H:9])[C:4]([H:10])([H:11])[N:5]1[C:6](=[O:7])[H:12])[H:8]>>[O:1](/[C:2](=[C:3](\[N:5]=[C:4]([H:10])[H:11])[H:9])[H:8])[C:6](=[O:7])[H:12]"
O        0.79066542      -1.47559100      -0.69061535
C        1.29597567      -0.29459015      -0.45252126
C        0.80122384       0.59220369       0.47917983
C       -0.76977216       1.31912308       0.24362704
N       -0.49307189       0.28729629       1.03903955
C       -0.73008386      -1.58016164      -0.12053094
O       -1.66819675      -1.51004622      -0.84889000
H        1.95939084       0.02783372      -1.25438972
H        1.49070618       1.29462189       0.93607225
H       -1.48312137       1.19349242      -0.57801492
H       -0.51915833       2.35909848       0.47705351
H       -0.67455760      -2.21328055       0.76999002
12
Frame=7 idx=006777 GeodesicLength=0.7773844793428797 rxn_smarts="[O:1]=[C:2]([C@@:3]1([H:9])[C:4]([H:10])([H:11])[N:5]1[C:6](=[O:7])[H:12])[H:8]>>[O:1](/[C:2](=[C:3](\[N:5]=[C:4]([H:10])[H:11])[H:9])[H:8])[C:6](=[O:7])[H:12]"
O        0.84920070      -1.50726842      -0.64409873
C        1.30919311      -0.30160696      -0.45283026
C        0.79834216       0.58821432       0.47129154
C       -0.77050232       1.33691256       0.24121843
N       -0.50273342       0.28267406       1.01043644
C       -0.72678467      -1.58059604      -0.10754742
O       -1.64596466      -1.51321909      -0.86119625
H        1.90737661       0.03792201      -1.29888251
H        1.48601260       1.28114253       0.94498533
H       -1.48785647       1.23465612      -0.57895749
H       -0.51959254       2.36985992       0.50114454
H       -0.69669112      -2.22869102       0.77443638
12
Frame=8 idx=006777 GeodesicLength=0.8887659981753143 rxn_smarts="[O:1]=[C:2]([C@@:3]1([H:9])[C:4]([H:10])([H:11])[N:5]1[C:6](=[O:7])[H:12])[H:8]>>[O:1](/[C:2](=[C:3](\[N:5]=[C:4]([H:10])[H:11])[H:9])[H:8])[C:6](=[O:7])[H:12]"
O        0.90870060      -1.53548953      -0.59569650
C        1.32242708      -0.30836735      -0.45372506
C        0.79534266       0.58534288       0.46169138
C       -0.77165610       1.35536748       0.23953498
N       -0.51196030       0.27862858       0.98046778
C       -0.72323289      -1.58074600      -0.09572804
O       -1.62277642      -1.51695978      -0.87426305
H        1.85431968       0.03972521      -1.34069356
H        1.48092343       1.26848378       0.95230371
H       -1.49412018       1.27739085      -0.57760600
H       -0.52105262       2.38042906       0.52707383
H       -0.71691492      -2.24380516       0.77664053
12
Frame=9 idx=006777 GeodesicLength=1.000206379641451 rxn_smarts="[O:1]=[C:2]([C@@:3]1([H:9])[C:4]([H:10])([H:11])[N:5]1[C:6](=[O:7])[H:12])[H:8]>>[O:1](/[C:2](=[C:3](\[N:5]=[C:4]([H:10])[H:11])[H:9])[H:8])[C:6](=[O:7])[H:12]"
O        0.96873499      -1.55985644      -0.54633589
C        1.33549218      -0.31501730      -0.45514962
C        0.79213345       0.58325150       0.45053458
C       -0.77310779       1.37446157       0.23830431
N       -0.52101294       0.27520988       0.94883070
C       -0.71966762      -1.58054440      -0.08484064
O       -1.59929245      -1.52144627      -0.88738717
H        1.80074150       0.03414972      -1.37938900
H        1.47531762       1.25609214       0.95837464
H       -1.50148691       1.32176678      -0.57437531
H       -0.52326400       2.39054053       0.55456847
H       -0.73458802      -2.25860771       0.77686492
12
Frame=10 idx=006777 GeodesicLength=1.1117641681641188 rxn_smarts="[O:1]=[C:2]([C@@:3]1([H:9])[C:4]([H:10])([H:11])[N:5]1[C:6](=[O:7])[H:12])[H:8]>>[O:1](/[C:2](=[C:3](\[N:5]=[C:4]([H:10])[H:11])[H:9])[H:8])[C:6](=[O:7])[H:12]"
O        1.02928832      -1.58037985      -0.49607626
C        1.34838952      -0.32154998      -0.45721839
C        0.78872562       0.58204869       0.43764410
C       -0.77487240       1.39425812       0.23754140
N       -0.52995241       0.27251695       0.91541513
C       -0.71639855      -1.58000863      -0.07484188
O       -1.57574579      -1.52678544      -0.90064684
H        1.74768642       0.02110621      -1.41513371
H        1.46916099       1.24401412       0.96320705
H       -1.51018872       1.36784672      -0.56893324
H       -0.52624609       2.40017331       0.58379495
H       -0.74984692      -2.27324024       0.77524769
12
Frame=11 idx=006777 GeodesicLength=1.2234341261825374 rxn_smarts="[O:1]=[C:2]([C@@:3]1([H:9])[C:4]([H:10])([H:11])[N:5]1[C:6](=[O:7])[H:12])[H:8]>>[O:1](/[C:2](=[C:3](\[N:5]=[C:4]([H:10])[H:11])[H:9])[H:8])[C:6](=[O:7])[H:12]"
O        1.09031607      -1.59694637      -0.44513886
C        1.36102306      -0.32804164      -0.45994641
C        0.78509823       0.58158502       0.42304425
C       -0.77685988       1.41474161       0.23713247
N       -0.53890662       0.27060570       0.87997817
C       -0.71365138      -1.57908003      -0.06560485
O       -1.55240900      -1.53308537      -0.91388902
H        1.69544158       0.00115706      -1.44792990
H        1.46237622       1.23194491       0.96697048
H       -1.52000507       1.41569221      -0.56134541
H       -0.52985073       2.40909538       0.61469450
H       -0.76257248      -2.28766847       0.77203459
12
Frame=12 idx=006777 GeodesicLength=1.3352378866842485 rxn_smarts="[O:1]=[C:2]([C@@:3]1([H:9])[C:4]([H:10])([H:11])[N:5]1[C:6](=[O:7])[H:12])[H:8]>>[O:1](/[C:2](=[C:3](\[N:5]=[C:4]([H:10])[H:11])[H:9])[H:8])[C:6](=[O:7])[H:12]"
O        1.15181949      -1.60948297      -0.39368920
C        1.37330390      -0.33456583      -0.46338564
C        0.78123926       0.58177582       0.40669580
C       -0.77898776       1.43592697       0.23698744
N       -0.54798999       0.26955386       0.84224340
C       -0.71166712      -1.57772474      -0.05701425
O       -1.52950197      -1.54049106      -0.92703124
H        1.64438594      -0.02527152      -1.47781015
H        1.45487766       1.21966777       0.96975882
H       -1.53073905       1.46538852      -0.55161588
H       -0.53400731       2.41707436       0.64736593
H       -0.77273303      -2.30185118       0.76749496
12
Frame=13 idx=006777 GeodesicLength=1.447171841441309 rxn_smarts="[O:1]=[C:2]([C@@:3]1([H:9])[C:4]([H:10])([H:11])[N:5]1[C:6](=[O:7])[H:12])[H:8]>>[O:1](/[C:2](=[C:3](\[N:5]=[C:4]([H:10])[H:11])[H:9])[H:8])[C:6](=[O:7])[H:12]"
O        1.21379760      -1.61788088      -0.34204874
C        1.38509775      -0.34120510      -0.46757106
C        0.77713844       0.58248111       0.38862968
C       -0.78114439       1.45779644       0.23699560
N       -0.55732822       0.26943541       0.80188077
C       -0.71068805      -1.57588804      -0.04893422
O       -1.50728345      -1.54919369      -0.93991657
H        1.59477475      -0.05758881      -1.50470863
H        1.44657178       1.20690882       0.97170048
H       -1.54203001       1.51699529      -0.53987444
H       -0.53865736       2.42378810       0.68187594
H       -0.78024884      -2.31564866       0.76197119
12
Frame=14 idx=006777 GeodesicLength=1.5592106763637046 rxn_smarts="[O:1]=[C:2]([C@@:3]1([H:9])[C:4]([H:10])([H:11])[N:5]1[C:6](=[O:7])[H:12])[H:8]>>[O:1](/[C:2](=[C:3](\[N:5]=[C:4]([H:10])[H:11])[H:9])[H:8])[C:6](=[O:7])[H:12]"
O        1.27628479      -1.62206260      -0.29028572
C        1.39635729      -0.34807479      -0.47253172
C        0.77279844       0.58368030       0.36871422
C       -0.78328079       1.48033323       0.23713886
N       -0.56696712       0.27034128       0.75856673
C       -0.71099114      -1.57348472      -0.04128169
O       -1.48587402      -1.55927845      -0.95256985
H        1.54717935      -0.09556943      -1.52866266
H        1.43734516       1.19357156       0.97272206
H       -1.55383616       1.57056709      -0.52587322
H       -0.54380216       2.42889672       0.71834989
H       -0.78521363      -2.32892019       0.75571310
12
Frame=15 idx=006777 GeodesicLength=1.6713373457513596 rxn_smarts="[O:1]=[C:2]([C@@:3]1([H:9])[C:4]([H:10])([H:11])[N:5]1[C:6](=[O:7])[H:12])[H:8]>>[O:1](/[C:2](=[C:3](\[N:5]=[C:4]([H:10])[H:11])[H:9])[H:8])[C:6](=[O:7])[H:12]"
O        1.33933255      -1.62191220      -0.23868611
C        1.40699219      -0.35529696      -0.47826575
C        0.76822665       0.58526077       0.34693907
C       -0.78530539       1.50349038       0.23736240
N       -0.57699147       0.27236342       0.71187588
C       -0.71284264      -1.57041012      -0.03393261
O       -1.46542798      -1.57091066      -0.96489029
H        1.50186149      -0.13871928      -1.54963749
H        1.42706889       1.17944151       0.97286954
H       -1.56579581       1.62614320      -0.50963745
H       -0.54947486       2.43193530       0.75690656
H       -0.78764362      -2.34138534       0.74909624
12
Frame=16 idx=006777 GeodesicLength=1.7835415464743898 rxn_smarts="[O:1]=[C:2]([C@@:3]1([H:9])[C:4]([H:10])([H:11])[N:5]1[C:6](=[O:7])[H:12])[H:8]>>[O:1](/[C:2](=[C:3](\[N:5]=[C:4]([H:10])[H:11])[H:9])[H:8])[C:6](=[O:7])[H:12]"
O        1.40305496      -1.61728319      -0.18737193
C        1.41696650      -0.36300912      -0.48474837
C        0.76345580       0.58716416       0.32322516
C       -0.78713963       1.52720031       0.23766972
N       -0.58742493       0.27561535       0.66130806
C       -0.71650969      -1.56650379      -0.02680335
O       -1.44597119      -1.58419789      -0.97687487
H        1.45898791      -0.18676672      -1.56766094
H        1.41560348       1.16438268       0.97211125
H       -1.57758820       1.68374091      -0.49107490
H       -0.55578239       2.43231965       0.79775393
H       -0.78765261      -2.35266235       0.74246623
