14
Frame=0 idx=009002 GeodesicLength=0.0 rxn_smarts="[C:1]([N:2]([C:3](=[O:4])[N:5](/[C:6](=[N:7]/[H:14])[H:13])[H:12])[H:11])([H:8])([H:9])[H:10]>>[C:1]([N:2]([N:7]([C@@:6]1([H:13])[O+:4]=[C-:3][N:5]1[H:12])[H:14])[H:11])([H:8])([H:9])[H:10]"
C        1.62812391       0.69850531       0.33920177
N        0.50527392      -0.21972621       0.50739405
C        0.22051590      -1.16277622      -0.50108107
O       -0.23540124      -0.31711761      -1.56003688
N       -1.16470477      -1.57028464      -0.24732709
C       -1.41109511      -0.18302570      -0.70285803
N       -1.13182010       0.70017428       0.36601967
H        1.62003643       1.05268179      -0.68827166
H        2.56231558       0.17596268       0.53953342
H        1.51113471       1.53004382       1.03216521
H        0.44405601      -0.60165751       1.44426795
H       -1.39885988      -1.73031837       0.72975864
H       -2.33315084       0.03914526      -1.23867343
H       -0.81642448       1.58839316      -0.02009254
14
Frame=1 idx=009002 GeodesicLength=0.14474811016071013 rxn_smarts="[C:1]([N:2]([C:3](=[O:4])[N:5](/[C:6](=[N:7]/[H:14])[H:13])[H:12])[H:11])([H:8])([H:9])[H:10]>>[C:1]([N:2]([N:7]([C@@:6]1([H:13])[O+:4]=[C-:3][N:5]1[H:12])[H:14])[H:11])([H:8])([H:9])[H:10]"
C        1.64132491       0.69686642       0.34080100
N        0.51351525      -0.21364447       0.51702988
C        0.21431198      -1.17202727      -0.51194454
O       -0.22701449      -0.32708794      -1.56588163
N       -1.16777862      -1.56348658      -0.24814724
C       -1.42308343      -0.17937734      -0.69589551
N       -1.15430652       0.70142829       0.37121477
H        1.63248635       1.04868410      -0.68761952
H        2.57474720       0.16977475       0.53601975
H        1.53863844       1.53130503       1.03374404
H        0.45488259      -0.59040116       1.45586475
H       -1.40149531      -1.74010943       0.72554754
H       -2.32980004       0.03685390      -1.25830858
H       -0.86642830       1.60122168      -0.01242472
14
Frame=2 idx=009002 GeodesicLength=0.2895228120986648 rxn_smarts="[C:1]([N:2]([C:3](=[O:4])[N:5](/[C:6](=[N:7]/[H:14])[H:13])[H:12])[H:11])([H:8])([H:9])[H:10]>>[C:1]([N:2]([N:7]([C@@:6]1([H:13])[O+:4]=[C-:3][N:5]1[H:12])[H:14])[H:11])([H:8])([H:9])[H:10]"
C        1.65514216       0.69498575       0.34241789
N        0.52179319      -0.20686796       0.52689748
C        0.20804667      -1.18130891      -0.52313943
O       -0.21828857      -0.33686171      -1.57190341
N       -1.17062376      -1.55651175      -0.24898374
C       -1.43540721      -0.17575869      -0.68886110
N       -1.17749808       0.70272268       0.37645972
H        1.64565702       1.04429143      -0.68699655
H        2.58739468       0.16276203       0.53261076
H        1.56745114       1.53237952       1.03506233
H        0.46561532      -0.57822154       1.46773695
H       -1.40402321      -1.74997426       0.72095343
H       -2.32581388       0.03451298      -1.27775513
H       -0.91944548       1.61385042      -0.00449920
14
Frame=3 idx=009002 GeodesicLength=0.4343226808697694 rxn_smarts="[C:1]([N:2]([C:3](=[O:4])[N:5](/[C:6](=[N:7]/[H:14])[H:13])[H:12])[H:11])([H:8])([H:9])[H:10]>>[C:1]([N:2]([N:7]([C@@:6]1([H:13])[O+:4]=[C-:3][N:5]1[H:12])[H:14])[H:11])([H:8])([H:9])[H:10]"
C        1.66962411       0.69283913       0.34405160
N        0.53011387      -0.19932392       0.53700039
C        0.20172756      -1.19061141      -0.53468822
O       -0.20918898      -0.34642807      -1.57811588
N       -1.17321679      -1.54932927      -0.24983223
C       -1.44807851      -0.17216363      -0.68176160
N       -1.20142221       0.70406686       0.38173740
H        1.65961487       1.03946630      -0.68640706
H        2.60026144       0.15484741       0.52932681
H        1.59767211       1.53322830       1.03609650
H        0.47624317      -0.56502308       1.47989314
H       -1.40642324      -1.75988438       0.71596254
H       -2.32117472       0.03215787      -1.29698958
H       -0.97575269       1.62615787       0.00372619
14
Frame=4 idx=009002 GeodesicLength=0.5791469330146389 rxn_smarts="[C:1]([N:2]([C:3](=[O:4])[N:5](/[C:6](=[N:7]/[H:14])[H:13])[H:12])[H:11])([H:8])([H:9])[H:10]>>[C:1]([N:2]([N:7]([C@@:6]1([H:13])[O+:4]=[C-:3][N:5]1[H:12])[H:14])[H:11])([H:8])([H:9])[H:10]"
C        1.68482364       0.69039918       0.34570122
N        0.53848530      -0.19092984       0.54733981
C        0.19536228      -1.19992267      -0.54661591
O       -0.19967913      -0.35577385      -1.58453407
N       -1.17553205      -1.54190138      -0.25068628
C       -1.46110893      -0.16858182      -0.67460542
N       -1.22610592       0.70547657       0.38702662
H        1.67443572       1.03416447      -0.68585671
H        2.61334819       0.14594517       0.52619346
H        1.62940962       1.53380653       1.03681988
H        0.48675464      -0.55069787       1.49234007
H       -1.40867304      -1.76980384       0.71056235
H       -2.31586428       0.02982781      -1.31598866
H       -1.03565603       1.63799154       0.01230364
14
Frame=5 idx=009002 GeodesicLength=0.7239919926725051 rxn_smarts="[C:1]([N:2]([C:3](=[O:4])[N:5](/[C:6](=[N:7]/[H:14])[H:13])[H:12])[H:11])([H:8])([H:9])[H:10]>>[C:1]([N:2]([N:7]([C@@:6]1([H:13])[O+:4]=[C-:3][N:5]1[H:12])[H:14])[H:11])([H:8])([H:9])[H:10]"
C        1.70079725       0.68763567       0.34736380
N        0.54691725      -0.18159137       0.55791319
C        0.18895812      -1.20923017      -0.55894720
O       -0.18971807      -0.36488749      -1.59117340
N       -1.17754231      -1.53418248      -0.25153638
C       -1.47450840      -0.16499912      -0.66740396
N       -1.25157706       0.70697235       0.39230166
H        1.69020357       1.02833411      -0.68535428
H        2.62665195       0.13596244       0.52323975
H        1.66278045       1.53406238       1.03720037
H        0.49713752      -0.53512142       1.50508127
H       -1.41075135      -1.77968554       0.70474221
H       -2.30985694       0.02757271      -1.33473482
H       -1.09949198       1.64915793       0.02130779
14
Frame=6 idx=009002 GeodesicLength=0.8688561247068822 rxn_smarts="[C:1]([N:2]([C:3](=[O:4])[N:5](/[C:6](=[N:7]/[H:14])[H:13])[H:12])[H:11])([H:8])([H:9])[H:10]>>[C:1]([N:2]([N:7]([C@@:6]1([H:13])[O+:4]=[C-:3][N:5]1[H:12])[H:14])[H:11])([H:8])([H:9])[H:10]"
C        1.71760785       0.68451388       0.34903624
N        0.55542196      -0.17119910       0.56871365
C        0.18252210      -1.21851689      -0.57171007
O       -0.17926233      -0.37375366      -1.59805112
N       -1.17921753      -1.52611675      -0.25237097
C       -1.48828619      -0.16139470      -0.66017184
N       -1.27786340       0.70858457       0.39752994
H        1.70701855       1.02191100      -0.68491115
H        2.64016433       0.12479406       0.52050578
H        1.69791473       1.53393655       1.03720051
H        0.50737805      -0.51814947       1.51811679
H       -1.41263353      -1.78947259       0.69849271
H       -2.30312785       0.02544942      -1.35320882
H       -1.16763673       1.65941368       0.03082835
14
Frame=7 idx=009002 GeodesicLength=1.013737206255829 rxn_smarts="[C:1]([N:2]([C:3](=[O:4])[N:5](/[C:6](=[N:7]/[H:14])[H:13])[H:12])[H:11])([H:8])([H:9])[H:10]>>[C:1]([N:2]([N:7]([C@@:6]1([H:13])[O+:4]=[C-:3][N:5]1[H:12])[H:14])[H:11])([H:8])([H:9])[H:10]"
C        1.73532274       0.68099520       0.35071284
N        0.56401442      -0.15962706       0.57972798
C        0.17606031      -1.22776573      -0.58493209
O       -0.16826235      -0.38235973      -1.60518607
N       -1.18052606      -1.51763707      -0.25317421
C       -1.50244903      -0.15774048      -0.65292861
N       -1.30499372       0.71035437       0.40267088
H        1.72499277       1.01481906      -0.68454313
H        2.65387039       0.11232561       0.51803835
H        1.73495297       1.53336021       1.03677596
H        0.51746109      -0.49961458       1.53144134
H       -1.41429722      -1.79909250       0.69180841
H       -2.29564252       0.02352985      -1.37139932
H       -1.24050377       1.66845285       0.04098766
14
Frame=8 idx=009002 GeodesicLength=1.1586367249468978 rxn_smarts="[C:1]([N:2]([C:3](=[O:4])[N:5](/[C:6](=[N:7]/[H:14])[H:13])[H:12])[H:11])([H:8])([H:9])[H:10]>>[C:1]([N:2]([N:7]([C@@:6]1([H:13])[O+:4]=[C-:3][N:5]1[H:12])[H:14])[H:11])([H:8])([H:9])[H:10]"
C        1.75401807       0.67703696       0.35238824
N        0.57271451      -0.14672960       0.59093665
C        0.16957720      -1.23695458      -0.59864174
O       -0.15666560      -0.39068929      -1.61259823
N       -1.18143647      -1.50866207      -0.25392550
C       -1.51700604      -0.15399766      -0.64569879
N       -1.33300003       0.71233951       0.40767020
H        1.74425739       1.00696961      -0.68426870
H        2.66775185       0.09843103       0.51589880
H        1.77405043       1.53225522       1.03587513
H        0.52737157      -0.47932510       1.54504376
H       -1.41572302      -1.80845956       0.68468675
H       -2.28736786       0.02189948      -1.38929747
H       -1.31854201       1.67588607       0.05193091
14
Frame=9 idx=009002 GeodesicLength=1.3035073331967255 rxn_smarts="[C:1]([N:2]([C:3](=[O:4])[N:5](/[C:6](=[N:7]/[H:14])[H:13])[H:12])[H:11])([H:8])([H:9])[H:10]>>[C:1]([N:2]([N:7]([C@@:6]1([H:13])[O+:4]=[C-:3][N:5]1[H:12])[H:14])[H:11])([H:8])([H:9])[H:10]"
C        1.77375261       0.67259082       0.35404884
N        0.58153459      -0.13233102       0.60230427
C        0.16306708      -1.24606191      -0.61286817
O       -0.14441452      -0.39874449      -1.62031081
N       -1.18190820      -1.49908668      -0.25460327
C       -1.53194794      -0.15012070      -0.63851402
N       -1.36190240       0.71460931       0.41246768
H        1.76493954       0.99824411      -0.68411681
H        2.68174894       0.08297876       0.51415790
H        1.81535198       1.53053183       1.03443125
H        0.53708190      -0.45703820       1.55889693
H       -1.41688840      -1.81744212       0.67712598
H       -2.27822753       0.02067254      -1.40690554
H       -1.40218766       1.68119774       0.06388576
14
Frame=10 idx=009002 GeodesicLength=1.4483615382880421 rxn_smarts="[C:1]([N:2]([C:3](=[O:4])[N:5](/[C:6](=[N:7]/[H:14])[H:13])[H:12])[H:11])([H:8])([H:9])[H:10]>>[C:1]([N:2]([N:7]([C@@:6]1([H:13])[O+:4]=[C-:3][N:5]1[H:12])[H:14])[H:11])([H:8])([H:9])[H:10]"
C        1.79462159       0.66760282       0.35568859
N        0.59050724      -0.11623188       0.61378828
C        0.15652728      -1.25505499      -0.62764014
O       -0.13144747      -0.40650627      -1.62834741
N       -1.18191114      -1.48878952      -0.25517623
C       -1.54728554      -0.14604033      -0.63141532
N       -1.39173782       0.71727018       0.41696920
H        1.78722009       0.98850969      -0.68411385
H        2.69582617       0.06581643       0.51292174
H        1.85904580       1.52808649       1.03237203
H        0.54657502      -0.43249078       1.57296732
H       -1.41778418      -1.82591253       0.66913142
H       -2.26818688       0.01997568      -1.42422224
H       -1.49197016       1.68376500       0.07707662
14
Frame=11 idx=009002 GeodesicLength=1.5931955475588568 rxn_smarts="[C:1]([N:2]([C:3](=[O:4])[N:5](/[C:6](=[N:7]/[H:14])[H:13])[H:12])[H:11])([H:8])([H:9])[H:10]>>[C:1]([N:2]([N:7]([C@@:6]1([H:13])[O+:4]=[C-:3][N:5]1[H:12])[H:14])[H:11])([H:8])([H:9])[H:10]"
C        1.81670289       0.66201259       0.35728681
N        0.59966012      -0.09819717       0.62532301
C        0.14994755      -1.26392130      -0.64298352
O       -0.11768114      -0.41399172      -1.63674684
N       -1.18140856      -1.47762844      -0.25560831
C       -1.56300580      -0.14166932      -0.62446339
N       -1.42253715       0.72046059       0.42106748
H        1.81128449       0.97759168      -0.68430954
H        2.70990222       0.04678571       0.51230967
H        1.90530486       1.52480654       1.02960433
H        0.55581658      -0.40535539       1.58720658
H       -1.41841248      -1.83369013       0.66072691
H       -2.25714602       0.01999488      -1.44128250
H       -1.58842756       1.68280148       0.09186930
14
Frame=12 idx=009002 GeodesicLength=1.7380003996913673 rxn_smarts="[C:1]([N:2]([C:3](=[O:4])[N:5](/[C:6](=[N:7]/[H:14])[H:13])[H:12])[H:11])([H:8])([H:9])[H:10]>>[C:1]([N:2]([N:7]([C@@:6]1([H:13])[O+:4]=[C-:3][N:5]1[H:12])[H:14])[H:11])([H:8])([H:9])[H:10]"
C        1.84010248       0.65575820       0.35884171
N        0.60903807      -0.07794072       0.63682796
C        0.14329124      -1.27261067      -0.65892580
O       -0.10306355      -0.42118749      -1.64554044
N       -1.18038137      -1.46541780      -0.25585777
C       -1.57912377      -0.13689498      -0.61772711
N       -1.45433437       0.72437208       0.42459714
H        1.83736174       0.96528972      -0.68473937
H        2.72389416       0.02571313       0.51251020
H        1.95434810       1.52056731       1.02602764
H        0.56478840      -0.37525362       1.60154166
H       -1.41879252      -1.84057713       0.65191973
H       -2.24506654       0.02092013      -1.45810207
H       -1.69206206       1.67726184       0.10862653
14
Frame=13 idx=009002 GeodesicLength=1.8826362031964765 rxn_smarts="[C:1]([N:2]([C:3](=[O:4])[N:5](/[C:6](=[N:7]/[H:14])[H:13])[H:12])[H:11])([H:8])([H:9])[H:10]>>[C:1]([N:2]([N:7]([C@@:6]1([H:13])[O+:4]=[C-:3][N:5]1[H:12])[H:14])[H:11])([H:8])([H:9])[H:10]"
C        1.86482954       0.64875205       0.36029684
N        0.61863554      -0.05511526       0.64814654
C        0.13653788      -1.28111169      -0.67547240
O       -0.08744791      -0.42818806      -1.65475847
N       -1.17876567      -1.45191395      -0.25587966
C       -1.59557077      -0.13157927      -0.61130338
N       -1.48717071       0.72921565       0.42738073
H        1.86565258       0.95128265      -0.68548223
H        2.73757384       0.00243414       0.51369976
H        2.00626288       1.51520077       1.02147239
H        0.57336902      -0.34164944       1.61582380
H       -1.41895138      -1.84620371       0.64274773
H       -2.23168545       0.02308656      -1.47474558
H       -1.80326938       1.66578955       0.12807394
14
Frame=14 idx=009002 GeodesicLength=2.0272537807606934 rxn_smarts="[C:1]([N:2]([C:3](=[O:4])[N:5](/[C:6](=[N:7]/[H:14])[H:13])[H:12])[H:11])([H:8])([H:9])[H:10]>>[C:1]([N:2]([N:7]([C@@:6]1([H:13])[O+:4]=[C-:3][N:5]1[H:12])[H:14])[H:11])([H:8])([H:9])[H:10]"
C        1.89104120       0.64093115       0.36165922
N        0.62853972      -0.02935566       0.65914747
C        0.12962916      -1.28940334      -0.69264910
O       -0.07075393      -0.43499423      -1.66449600
N       -1.17658859      -1.43688012      -0.25560097
C       -1.61239667      -0.12550806      -0.60533183
N       -1.52113344       0.73538838       0.42911048
H        1.89650025       0.93530210      -0.68661065
H        2.75087545      -0.02323012       0.51620789
H        2.06129415       1.50858240       1.01581576
H        0.58154152      -0.30408062       1.62995554
H       -1.41901584      -1.85032598       0.63328963
H       -2.21703619       0.02680480      -1.49128159
H       -1.92249679       1.64676931       0.15078414
14
Frame=15 idx=009002 GeodesicLength=2.1715912502479857 rxn_smarts="[C:1]([N:2]([C:3](=[O:4])[N:5](/[C:6](=[N:7]/[H:14])[H:13])[H:12])[H:11])([H:8])([H:9])[H:10]>>[C:1]([N:2]([N:7]([C@@:6]1([H:13])[O+:4]=[C-:3][N:5]1[H:12])[H:14])[H:11])([H:8])([H:9])[H:10]"
C        1.91867854       0.63221400       0.36292395
N        0.63878303      -0.00018044       0.66958401
C        0.12236442      -1.29747205      -0.71044364
O       -0.05295489      -0.44181800      -1.67478181
N       -1.17386093      -1.41993484      -0.25500953
C       -1.62950182      -0.11846228      -0.60002997
N       -1.55615366       0.74329990       0.42937383
H        1.93001579       0.91687011      -0.68813020
H        2.76337920      -0.05136024       0.52035710
H        2.11954052       1.50050947       1.00891845
H        0.58923040      -0.26172693       1.64367945
H       -1.41908900      -1.85233962       0.62354935
H       -2.20082236       0.03247934      -1.50787165
H       -2.04960923       1.61792159       0.17788067
14
Frame=16 idx=009002 GeodesicLength=2.315505798613731 rxn_smarts="[C:1]([N:2]([C:3](=[O:4])[N:5](/[C:6](=[N:7]/[H:14])[H:13])[H:12])[H:11])([H:8])([H:9])[H:10]>>[C:1]([N:2]([N:7]([C@@:6]1([H:13])[O+:4]=[C-:3][N:5]1[H:12])[H:14])[H:11])([H:8])([H:9])[H:10]"
C        1.94757222       0.62250827       0.36405017
N        0.64928395       0.03293334       0.67917195
C        0.11468781      -1.30527205      -0.72886328
O       -0.03384227      -0.44879073      -1.68569341
N       -1.17050911      -1.40065296      -0.25400343
C       -1.64683362      -0.11014602      -0.59555315
N       -1.59249254       0.75350817       0.42774124
H        1.96629569       0.89556772      -0.69010715
H        2.77459294      -0.08207041       0.52646220
H        2.18080633       1.49073443       1.00060712
H        0.59618321      -0.21389024       1.65669226
H       -1.41933990      -1.85169487       0.61362794
H       -2.18281757       0.04053586      -1.52453971
H       -2.18358714       1.57672951       0.21040724
