9
Frame=0 idx=005687 GeodesicLength=0.0 rxn_smarts="[O:1]([C@@:2]([C:3]#[C:4][H:9])([C:5]#[N:6])[H:8])[H:7]>>[O:1]([C:2](=[C:5]=[N:6][C:3]#[C:4][H:9])[H:8])[H:7]"
O       -0.94094682       1.29021786      -0.45288512
C       -0.82229082      -0.03648286      -0.35548147
C        0.82348787      -0.38781458       0.21885446
C        1.99430193      -0.19757775      -0.01629146
C       -1.48924556      -0.73388157       0.77018804
N       -0.28819334      -0.92703472       1.16268080
H       -1.58122981       1.59351083       0.20202348
H       -0.71440687      -0.58465182      -1.28416454
H        3.01852342      -0.01628540      -0.24492418
9
Frame=1 idx=005687 GeodesicLength=0.09975933878293557 rxn_smarts="[O:1]([C@@:2]([C:3]#[C:4][H:9])([C:5]#[N:6])[H:8])[H:7]>>[O:1]([C:2](=[C:5]=[N:6][C:3]#[C:4][H:9])[H:8])[H:7]"
O       -0.96969905       1.29129678      -0.47289669
C       -0.83064806      -0.03509457      -0.36461173
C        0.83281508      -0.38565817       0.21590806
C        2.00437476      -0.19773513      -0.01559971
C       -1.47344204      -0.73472063       0.76558852
N       -0.28716758      -0.93662339       1.17886898
H       -1.56892753       1.60300224       0.21547445
H       -0.73983189      -0.58509054      -1.29422233
H        3.03252632      -0.01937658      -0.22850957
9
Frame=2 idx=005687 GeodesicLength=0.1995081294726783 rxn_smarts="[O:1]([C@@:2]([C:3]#[C:4][H:9])([C:5]#[N:6])[H:8])[H:7]>>[O:1]([C:2](=[C:5]=[N:6][C:3]#[C:4][H:9])[H:8])[H:7]"
O       -0.99965258       1.29205878      -0.49207878
C       -0.83917332      -0.03364635      -0.37396793
C        0.84233921      -0.38379109       0.21277193
C        2.01464239      -0.19797596      -0.01483691
C       -1.45693364      -0.73528876       0.76101304
N       -0.28617962      -0.94709923       1.19519435
H       -1.55496354       1.61288657       0.22768027
H       -0.76650853      -0.58541801      -1.30430697
H        3.04642964      -0.02172596      -0.21146899
9
Frame=3 idx=005687 GeodesicLength=0.2992418422584494 rxn_smarts="[O:1]([C@@:2]([C:3]#[C:4][H:9])([C:5]#[N:6])[H:8])[H:7]>>[O:1]([C:2](=[C:5]=[N:6][C:3]#[C:4][H:9])[H:8])[H:7]"
O       -1.03117931       1.29259537      -0.51015246
C       -0.84774699      -0.03198769      -0.38355377
C        0.85217958      -0.38156183       0.20983007
C        2.02522110      -0.19735168      -0.01337479
C       -1.43956871      -0.73586856       0.75615832
N       -0.28519792      -0.95827737       1.21172596
H       -1.54027327       1.62286112       0.23844108
H       -0.79396281      -0.58532667      -1.31443373
H        3.06052833      -0.02508269      -0.19464068
9
Frame=4 idx=005687 GeodesicLength=0.398982375949212 rxn_smarts="[O:1]([C@@:2]([C:3]#[C:4][H:9])([C:5]#[N:6])[H:8])[H:7]>>[O:1]([C:2](=[C:5]=[N:6][C:3]#[C:4][H:9])[H:8])[H:7]"
O       -1.06459790       1.29282606      -0.52706556
C       -0.85634334      -0.03009622      -0.39341382
C        0.86237366      -0.37860377       0.20730903
C        2.03613637      -0.19506137      -0.01064823
C       -1.42127812      -0.73657608       0.75085057
N       -0.28427730      -0.97021222       1.22841662
H       -1.52500071       1.63290552       0.24774889
H       -0.82197434      -0.58476874      -1.32461228
H        3.07496168      -0.03041318      -0.17858524
9
Frame=5 idx=005687 GeodesicLength=0.498714188940208 rxn_smarts="[O:1]([C@@:2]([C:3]#[C:4][H:9])([C:5]#[N:6])[H:8])[H:7]>>[O:1]([C:2](=[C:5]=[N:6][C:3]#[C:4][H:9])[H:8])[H:7]"
O       -1.09971545       1.29276026      -0.54265620
C       -0.86495009      -0.02794089      -0.40354556
C        0.87295647      -0.37516903       0.20508392
C        2.04744105      -0.19171642      -0.00694848
C       -1.40198432      -0.73730778       0.74511779
N       -0.28345221      -0.98287103       1.24529347
H       -1.50919684       1.64306370       0.25541839
H       -0.85079312      -0.58375094      -1.33479328
H        3.08969452      -0.03706788      -0.16297005
9
Frame=6 idx=005687 GeodesicLength=0.5984297691254816 rxn_smarts="[O:1]([C@@:2]([C:3]#[C:4][H:9])([C:5]#[N:6])[H:8])[H:7]>>[O:1]([C:2](=[C:5]=[N:6][C:3]#[C:4][H:9])[H:8])[H:7]"
O       -1.13641073       1.29236291      -0.55681729
C       -0.87358711      -0.02552081      -0.41396303
C        0.88395393      -0.37149526       0.20300290
C        2.05917018      -0.18779596      -0.00253178
C       -1.38161319      -0.73795524       0.73898972
N       -0.28276632      -0.99628176       1.26232592
H       -1.49272372       1.65343455       0.26132568
H       -0.88070041      -0.58232717      -1.34490673
H        3.10467737      -0.04442126      -0.14742538
9
Frame=7 idx=005687 GeodesicLength=0.6981631171180711 rxn_smarts="[O:1]([C@@:2]([C:3]#[C:4][H:9])([C:5]#[N:6])[H:8])[H:7]>>[O:1]([C:2](=[C:5]=[N:6][C:3]#[C:4][H:9])[H:8])[H:7]"
O       -1.17459149       1.29158154      -0.56945367
C       -0.88230345      -0.02286430      -0.42468376
C        0.89538052      -0.36787128       0.20089080
C        2.07134245      -0.18373326       0.00237761
C       -1.36010812      -0.73840832       0.73252193
N       -0.28229127      -1.01057883       1.27944041
H       -1.47525223       1.66421273       0.26533202
H       -0.91202654      -0.58059573      -1.35486448
H        3.11985013      -0.05174256      -0.13156086
9
Frame=8 idx=005687 GeodesicLength=0.7980871449983198 rxn_smarts="[O:1]([C@@:2]([C:3]#[C:4][H:9])([C:5]#[N:6])[H:8])[H:7]>>[O:1]([C:2](=[C:5]=[N:6][C:3]#[C:4][H:9])[H:8])[H:7]"
O       -1.21327280       1.29053499      -0.58044166
C       -0.89124674      -0.02008258      -0.43564927
C        0.90718430      -0.36578855       0.19794879
C        2.08398596      -0.18243236       0.00615111
C       -1.33753072      -0.73819371       0.72612845
N       -0.28219249      -1.02614926       1.29666804
H       -1.45577229       1.67600056       0.26707962
H       -0.94598430      -0.57884910      -1.36439739
H        3.13482908      -0.05504000      -0.11348769
9
Frame=9 idx=005687 GeodesicLength=0.8974993400314494 rxn_smarts="[O:1]([C@@:2]([C:3]#[C:4][H:9])([C:5]#[N:6])[H:8])[H:7]>>[O:1]([C:2](=[C:5]=[N:6][C:3]#[C:4][H:9])[H:8])[H:7]"
O       -1.25387618       1.28913974      -0.58930940
C       -0.90003408      -0.01668361      -0.44698490
C        0.91976169      -0.36233264       0.19550362
C        2.09745010      -0.17984625       0.01104842
C       -1.31331698      -0.73807767       0.71866038
N       -0.28220829      -1.04139350       1.31395720
H       -1.43790122       1.68703014       0.26676764
H       -0.98063689      -0.57617567      -1.37359260
H        3.15076184      -0.06166054      -0.09605037
9
Frame=10 idx=005687 GeodesicLength=0.9970997176867155 rxn_smarts="[O:1]([C@@:2]([C:3]#[C:4][H:9])([C:5]#[N:6])[H:8])[H:7]>>[O:1]([C:2](=[C:5]=[N:6][C:3]#[C:4][H:9])[H:8])[H:7]"
O       -1.29579241       1.28727384      -0.59614765
C       -0.90886424      -0.01295184      -0.45863620
C        0.93296587      -0.35878340       0.19318130
C        2.11163294      -0.17780266       0.01639273
C       -1.28772273      -0.73766904       0.71062169
N       -0.28278711      -1.05777543       1.33120305
H       -1.41962584       1.69874376       0.26400448
H       -1.01687324      -0.57314936      -1.38227582
H        3.16706676      -0.06788586      -0.07834357
9
Frame=11 idx=005687 GeodesicLength=1.096656191935715 rxn_smarts="[O:1]([C@@:2]([C:3]#[C:4][H:9])([C:5]#[N:6])[H:8])[H:7]>>[O:1]([C:2](=[C:5]=[N:6][C:3]#[C:4][H:9])[H:8])[H:7]"
O       -1.33902218       1.28503285      -0.60073125
C       -0.91763669      -0.00870044      -0.47068052
C        0.94699398      -0.35447952       0.19115861
C        2.12677730      -0.17627891       0.02214346
C       -1.26045953      -0.73709714       0.70173072
N       -0.28388595      -1.07453096       1.34840678
H       -1.40245580       1.71059201       0.25887882
H       -1.05443581      -0.56955644      -1.39040653
H        3.18412467      -0.07498144      -0.06050009
9
Frame=12 idx=005687 GeodesicLength=1.1962217247148283 rxn_smarts="[O:1]([C@@:2]([C:3]#[C:4][H:9])([C:5]#[N:6])[H:8])[H:7]>>[O:1]([C:2](=[C:5]=[N:6][C:3]#[C:4][H:9])[H:8])[H:7]"
O       -1.38387467       1.28213502      -0.60287306
C       -0.92648889      -0.00397187      -0.48314046
C        0.96188960      -0.34924368       0.18927632
C        2.14290128      -0.17475939       0.02838268
C       -1.23140903      -0.73624870       0.69193355
N       -0.28557311      -1.09193303       1.36522450
H       -1.38593724       1.72280990       0.25120095
H       -1.09356260      -0.56554124      -1.39776159
H        3.20205466      -0.08324702      -0.04224291
9
Frame=13 idx=005687 GeodesicLength=1.295803451495669 rxn_smarts="[O:1]([C@@:2]([C:3]#[C:4][H:9])([C:5]#[N:6])[H:8])[H:7]>>[O:1]([C:2](=[C:5]=[N:6][C:3]#[C:4][H:9])[H:8])[H:7]"
O       -1.43089800       1.27828739      -0.60229790
C       -0.93533209       0.00135722      -0.49605268
C        0.97781033      -0.34181043       0.18817907
C        2.16015391      -0.17151039       0.03633115
C       -1.20033485      -0.73527034       0.68090234
N       -0.28794663      -1.10996341       1.38137528
H       -1.37105184       1.73525713       0.24079919
H       -1.13353933      -0.56101543      -1.40432279
H        3.22113849      -0.09533173      -0.02491366
9
Frame=14 idx=005687 GeodesicLength=1.3953608606456305 rxn_smarts="[O:1]([C@@:2]([C:3]#[C:4][H:9])([C:5]#[N:6])[H:8])[H:7]>>[O:1]([C:2](=[C:5]=[N:6][C:3]#[C:4][H:9])[H:8])[H:7]"
O       -1.47904835       1.27363935      -0.59884620
C       -0.94433601       0.00724173      -0.50936666
C        0.99480759      -0.33303401       0.18724085
C        2.17869331      -0.16932923       0.04427427
C       -1.16721458      -0.73372037       0.66883984
N       -0.29121417      -1.12864622       1.39664531
H       -1.35762220       1.74817382       0.22754057
H       -1.17529303      -0.55618935      -1.40963917
H        3.24122744      -0.10813572      -0.00668881
9
Frame=15 idx=005687 GeodesicLength=1.4948958346975598 rxn_smarts="[O:1]([C@@:2]([C:3]#[C:4][H:9])([C:5]#[N:6])[H:8])[H:7]>>[O:1]([C:2](=[C:5]=[N:6][C:3]#[C:4][H:9])[H:8])[H:7]"
O       -1.52793907       1.26818701      -0.59230857
C       -0.95369836       0.01364421      -0.52304656
C        1.01296452      -0.32299131       0.18608537
C        2.19863040      -0.16927349       0.05127606
C       -1.13192872      -0.73134778       0.65579389
N       -0.29549175      -1.14805877       1.41063821
H       -1.34561206       1.76170650       0.21125053
H       -1.21931784      -0.55124715      -1.41327385
H        3.26239287      -0.12061922       0.01358491
9
Frame=16 idx=005687 GeodesicLength=1.5943932995356103 rxn_smarts="[O:1]([C@@:2]([C:3]#[C:4][H:9])([C:5]#[N:6])[H:8])[H:7]>>[O:1]([C:2](=[C:5]=[N:6][C:3]#[C:4][H:9])[H:8])[H:7]"
O       -1.57796223       1.26160390      -0.58258030
C       -0.96321466       0.02078090      -0.53708663
C        1.03253825      -0.30956275       0.18587173
C        2.22023771      -0.17008166       0.05832736
C       -1.09416361      -0.72823738       0.64130819
N       -0.30093280      -1.16784493       1.42304938
H       -1.33719281       1.77553710       0.19208141
H       -1.26430285      -0.54608980      -1.41521695
H        3.28499301      -0.13610537       0.03424582
