14
Frame=0 idx=004952 GeodesicLength=0.0 rxn_smarts="[O:1]=[C:2]1[C:3]([H:7])([H:8])[C:4]([H:9])([H:10])[C:5]([H:11])([H:12])[C:6]1([H:13])[H:14]>>[O-:1][C:2]([C:3]([C:4]([C:5]([H:11])([H:12])[H:13])([H:9])[H:10])([H:7])[H:8])=[C+:6][H:14]"
O       -0.97501314       2.51816171      -0.48280310
C       -0.44391956       1.46611644      -0.15853134
C       -1.17865594       0.21531575       0.25839409
C       -0.40097914      -1.01041783      -0.20245356
C        1.02657435      -0.97139386       0.32003580
C        0.98689301       1.54452775      -0.10710114
H       -1.26418846       0.23264325       1.35030191
H       -2.18764745       0.26210851      -0.15155272
H       -0.88879672      -1.92844003       0.13322021
H       -0.39534003      -1.04112109      -1.29531495
H        1.70169478      -1.63389278      -0.22091558
H        1.07956065      -1.19217040       1.38758946
H        1.49802076       0.05465344       0.27303117
H        1.44179689       1.48390914      -1.10390019
14
Frame=1 idx=004952 GeodesicLength=0.07414698261122095 rxn_smarts="[O:1]=[C:2]1[C:3]([H:7])([H:8])[C:4]([H:9])([H:10])[C:5]([H:11])([H:12])[C:6]1([H:13])[H:14]>>[O-:1][C:2]([C:3]([C:4]([C:5]([H:11])([H:12])[H:13])([H:9])[H:10])([H:7])[H:8])=[C+:6][H:14]"
O       -0.95623943       2.53846611      -0.41526997
C       -0.44110843       1.46126688      -0.15323589
C       -1.18281341       0.21197722       0.25182232
C       -0.39923731      -1.01195550      -0.20537801
C        1.02553680      -0.96183482       0.32505814
C        0.99094821       1.52558229      -0.14481759
H       -1.28085464       0.22623118       1.34257854
H       -2.18663124       0.25998376      -0.17071204
H       -0.88615878      -1.93081711       0.12928616
H       -0.38894739      -1.04660862      -1.29804080
H        1.70327734      -1.62997434      -0.20602285
H        1.06593290      -1.18734462       1.39259562
H        1.52031751       0.07185310       0.30660233
H        1.41597788       1.47317445      -1.15446597
14
Frame=2 idx=004952 GeodesicLength=0.14825931082364108 rxn_smarts="[O:1]=[C:2]1[C:3]([H:7])([H:8])[C:4]([H:9])([H:10])[C:5]([H:11])([H:12])[C:6]1([H:13])[H:14]>>[O-:1][C:2]([C:3]([C:4]([C:5]([H:11])([H:12])[H:13])([H:9])[H:10])([H:7])[H:8])=[C+:6][H:14]"
O       -0.93327910       2.55587060      -0.34704299
C       -0.43792060       1.45604186      -0.14806672
C       -1.18727471       0.20862280       0.24464917
C       -0.39793261      -1.01398551      -0.20774969
C        1.02452073      -0.95149800       0.32921424
C        0.99409148       1.50553466      -0.18140997
H       -1.29850952       0.21982868       1.33403058
H       -2.18528889       0.25854720      -0.19131848
H       -0.88339991      -1.93334425       0.12744030
H       -0.38374312      -1.05360755      -1.30015595
H        1.70460275      -1.62528553      -0.19202506
H        1.05351372      -1.18101767       1.39668652
H        1.54102247       0.09017988       0.33852346
H        1.38959732       1.46411283      -1.20277540
14
Frame=3 idx=004952 GeodesicLength=0.2223732696906462 rxn_smarts="[O:1]=[C:2]1[C:3]([H:7])([H:8])[C:4]([H:9])([H:10])[C:5]([H:11])([H:12])[C:6]1([H:13])[H:14]>>[O-:1][C:2]([C:3]([C:4]([C:5]([H:11])([H:12])[H:13])([H:9])[H:10])([H:7])[H:8])=[C+:6][H:14]"
O       -0.90637953       2.57012981      -0.27888694
C       -0.43448538       1.45046449      -0.14320812
C       -1.19204416       0.20526037       0.23696853
C       -0.39712019      -1.01653899      -0.20957059
C        1.02349184      -0.94063464       0.33252423
C        0.99635816       1.48465007      -0.21656132
H       -1.31696604       0.21356735       1.32474151
H       -2.18375053       0.25768353      -0.21298594
H       -0.88069505      -1.93606963       0.12757449
H       -0.37973094      -1.06205960      -1.30165574
H        1.70563908      -1.62009189      -0.17893307
H        1.04230231      -1.17325512       1.39995713
H        1.56032298       0.10951361       0.36842713
H        1.36305745       1.45738063      -1.24839130
14
Frame=4 idx=004952 GeodesicLength=0.29663268950302857 rxn_smarts="[O:1]=[C:2]1[C:3]([H:7])([H:8])[C:4]([H:9])([H:10])[C:5]([H:11])([H:12])[C:6]1([H:13])[H:14]>>[O-:1][C:2]([C:3]([C:4]([C:5]([H:11])([H:12])[H:13])([H:9])[H:10])([H:7])[H:8])=[C+:6][H:14]"
O       -0.87590781       2.58124827      -0.21068063
C       -0.43094103       1.44462675      -0.13892156
C       -1.19714357       0.20190771       0.22880181
C       -0.39679369      -1.01965774      -0.21086270
C        1.02243000      -0.92945069       0.33504342
C        0.99779095       1.46317030      -0.25038847
H       -1.33618193       0.20755928       1.31475804
H       -2.18209560       0.25727711      -0.23553880
H       -0.87816719      -1.93905739       0.12960985
H       -0.37676787      -1.07196650      -1.30257796
H        1.70642910      -1.61474998      -0.16656045
H        1.03213954      -1.16408918       1.40258025
H        1.57843790       0.12982074       0.39606892
H        1.33677119       1.45336131      -1.29133173
14
Frame=5 idx=004952 GeodesicLength=0.370902755694272 rxn_smarts="[O:1]=[C:2]1[C:3]([H:7])([H:8])[C:4]([H:9])([H:10])[C:5]([H:11])([H:12])[C:6]1([H:13])[H:14]>>[O-:1][C:2]([C:3]([C:4]([C:5]([H:11])([H:12])[H:13])([H:9])[H:10])([H:7])[H:8])=[C+:6][H:14]"
O       -0.84209965       2.58866021      -0.14335798
C       -0.42733910       1.43841637      -0.13512979
C       -1.20239972       0.19855538       0.22026120
C       -0.39695729      -1.02316383      -0.21168636
C        1.02120480      -0.91800249       0.33680737
C        0.99836846       1.44110811      -0.28264509
H       -1.35570204       0.20186766       1.30415768
H       -2.18020867       0.25716475      -0.25861937
H       -0.87584649      -1.94203681       0.13324192
H       -0.37488670      -1.08299159      -1.30294158
H        1.70673531      -1.60915272      -0.15493516
H        1.02294635      -1.15354135       1.40457053
H        1.59541296       0.15098864       0.42149034
H        1.31077181       1.45212764      -1.33121371
14
Frame=6 idx=004952 GeodesicLength=0.44531620176115727 rxn_smarts="[O:1]=[C:2]1[C:3]([H:7])([H:8])[C:4]([H:9])([H:10])[C:5]([H:11])([H:12])[C:6]1([H:13])[H:14]>>[O-:1][C:2]([C:3]([C:4]([C:5]([H:11])([H:12])[H:13])([H:9])[H:10])([H:7])[H:8])=[C+:6][H:14]"
O       -0.80543319       2.59238885      -0.07689203
C       -0.42381528       1.43195831      -0.13202713
C       -1.20782943       0.19522865       0.21139292
C       -0.39759548      -1.02705900      -0.21207058
C        1.01980556      -0.90645264       0.33786135
C        0.99813167       1.41869522      -0.31346427
H       -1.37546729       0.19658292       1.29302767
H       -2.17818481       0.25721771      -0.28203406
H       -0.87382407      -1.94503548       0.13836516
H       -0.37396253      -1.09506454      -1.30278785
H        1.70659907      -1.60358271      -0.14391497
H        1.01457092      -1.14167010       1.40606042
H        1.61149153       0.17299841       0.44451403
H        1.28551334       1.45379441      -1.36803066
14
Frame=7 idx=004952 GeodesicLength=0.519928679296513 rxn_smarts="[O:1]=[C:2]1[C:3]([H:7])([H:8])[C:4]([H:9])([H:10])[C:5]([H:11])([H:12])[C:6]1([H:13])[H:14]>>[O-:1][C:2]([C:3]([C:4]([C:5]([H:11])([H:12])[H:13])([H:9])[H:10])([H:7])[H:8])=[C+:6][H:14]"
O       -0.76633769       2.59249022      -0.01195075
C       -0.42043192       1.42540285      -0.12944164
C       -1.21345787       0.19194881       0.20232982
C       -0.39870604      -1.03132984      -0.21204088
C        1.01825126      -0.89495951       0.33824485
C        0.99721482       1.39611676      -0.34286873
H       -1.39543520       0.19173344       1.28151360
H       -2.17615692       0.25735644      -0.30551655
H       -0.87218566      -1.94810638       0.14478595
H       -0.37391595      -1.10803280      -1.30213932
H        1.70609345      -1.59817637      -0.13350553
H        1.00694926      -1.12868774       1.40708900
H        1.62690226       0.19579252       0.46521970
H        1.26121622       1.45845160      -1.40171953
14
Frame=8 idx=004952 GeodesicLength=0.5947775502327162 rxn_smarts="[O:1]=[C:2]1[C:3]([H:7])([H:8])[C:4]([H:9])([H:10])[C:5]([H:11])([H:12])[C:6]1([H:13])[H:14]>>[O-:1][C:2]([C:3]([C:4]([C:5]([H:11])([H:12])[H:13])([H:9])[H:10])([H:7])[H:8])=[C+:6][H:14]"
O       -0.72513485       2.58890177       0.05146566
C       -0.41722160       1.41878493      -0.12731037
C       -1.21922279       0.18872337       0.19309859
C       -0.40024737      -1.03589457      -0.21163610
C        1.01649348      -0.88356873       0.33801594
C        0.99561444       1.37342162      -0.37101444
H       -1.41550664       0.18731450       1.26965788
H       -2.17405681       0.25750339      -0.32901214
H       -0.87091870      -1.95114598       0.15235621
H       -0.37464861      -1.12173856      -1.30103466
H        1.70516090      -1.59299905      -0.12357260
H        0.99994406      -1.11457916       1.40774538
H        1.64177844       0.21936048       0.48356832
H        1.23796605       1.46591599      -1.43232767
14
Frame=9 idx=004952 GeodesicLength=0.6698730113495679 rxn_smarts="[O:1]=[C:2]1[C:3]([H:7])([H:8])[C:4]([H:9])([H:10])[C:5]([H:11])([H:12])[C:6]1([H:13])[H:14]>>[O-:1][C:2]([C:3]([C:4]([C:5]([H:11])([H:12])[H:13])([H:9])[H:10])([H:7])[H:8])=[C+:6][H:14]"
O       -0.68227081       2.58160735       0.11272181
C       -0.41418452       1.41209798      -0.12545734
C       -1.22507624       0.18555471       0.18379260
C       -0.40222030      -1.04066652      -0.21088201
C        1.01452640      -0.87234151       0.33719646
C        0.99338261       1.35063625      -0.39786619
H       -1.43550449       0.18334609       1.25753704
H       -2.17190803       0.25758458      -0.35234595
H       -0.87005231      -1.95404723       0.16089196
H       -0.37618423      -1.13598271      -1.29946960
H        1.70377194      -1.58803581      -0.11413092
H        0.99355094      -1.09946419       1.40799946
H        1.65627661       0.24363389       0.49965665
H        1.21589243       1.47607712      -1.45964396
14
Frame=10 idx=004952 GeodesicLength=0.7452499989386899 rxn_smarts="[O:1]=[C:2]1[C:3]([H:7])([H:8])[C:4]([H:9])([H:10])[C:5]([H:11])([H:12])[C:6]1([H:13])[H:14]>>[O-:1][C:2]([C:3]([C:4]([C:5]([H:11])([H:12])[H:13])([H:9])[H:10])([H:7])[H:8])=[C+:6][H:14]"
O       -0.63815402       2.57080736       0.17179467
C       -0.41134240       1.40544293      -0.12380987
C       -1.23102003       0.18245789       0.17446118
C       -0.40458596      -1.04563678      -0.20979777
C        1.01234568      -0.86136116       0.33582299
C        0.99055057       1.32789126      -0.42357934
H       -1.45545881       0.17981835       1.24524693
H       -2.16971386       0.25757395      -0.37546363
H       -0.86958539      -1.95684140       0.17031831
H       -0.37840198      -1.15069301      -1.29749197
H        1.70196146      -1.58341487      -0.10511170
H        0.98765617      -1.08341986       1.40792603
H        1.67056391       0.26861480       0.51342031
H        1.19518465       1.48876053      -1.48373613
14
Frame=11 idx=004952 GeodesicLength=0.820925592168325 rxn_smarts="[O:1]=[C:2]1[C:3]([H:7])([H:8])[C:4]([H:9])([H:10])[C:5]([H:11])([H:12])[C:6]1([H:13])[H:14]>>[O-:1][C:2]([C:3]([C:4]([C:5]([H:11])([H:12])[H:13])([H:9])[H:10])([H:7])[H:8])=[C+:6][H:14]"
O       -0.59321968       2.55666667       0.22832440
C       -0.40868422       1.39882184      -0.12223935
C       -1.23703469       0.17943224       0.16516765
C       -0.40733710      -1.05076415      -0.20839831
C        1.00995888      -0.85068179       0.33391096
C        0.98716023       1.30522570      -0.44817916
H       -1.47528765       0.17674017       1.23285457
H       -2.16749371       0.25743455      -0.39827550
H       -0.86952896      -1.95948489       0.18052826
H       -0.38129927      -1.16576188      -1.29510709
H        1.69973581      -1.57915353      -0.09651980
H        0.98225085      -1.06654944       1.40750556
H        1.68478976       0.29426528       0.52490058
H        1.17598976       1.50380923      -1.50447275
14
Frame=12 idx=004952 GeodesicLength=0.8969168702936634 rxn_smarts="[O:1]=[C:2]1[C:3]([H:7])([H:8])[C:4]([H:9])([H:10])[C:5]([H:11])([H:12])[C:6]1([H:13])[H:14]>>[O-:1][C:2]([C:3]([C:4]([C:5]([H:11])([H:12])[H:13])([H:9])[H:10])([H:7])[H:8])=[C+:6][H:14]"
O       -0.54789287       2.53942305       0.28207969
C       -0.40620435       1.39223653      -0.12064686
C       -1.24311788       0.17647647       0.15596626
C       -0.41046249      -1.05601781      -0.20670133
C        1.00738166      -0.84034840       0.33147224
C        0.98325027       1.28268763      -0.47170459
H       -1.49494848       0.17411825       1.22043001
H       -2.16527788       0.25713943      -0.42071398
H       -0.86988685      -1.96195092       0.19142995
H       -0.38485758      -1.18110659      -1.29233388
H        1.69712607      -1.57527013      -0.08836275
H        0.97732473      -1.04894396       1.40672343
H        1.69909696       0.32056684       0.53411919
H        1.15846868       1.52098961      -1.52175741
14
Frame=13 idx=004952 GeodesicLength=0.9732387926893934 rxn_smarts="[O:1]=[C:2]1[C:3]([H:7])([H:8])[C:4]([H:9])([H:10])[C:5]([H:11])([H:12])[C:6]1([H:13])[H:14]>>[O-:1][C:2]([C:3]([C:4]([C:5]([H:11])([H:12])[H:13])([H:9])[H:10])([H:7])[H:8])=[C+:6][H:14]"
O       -0.50260952       2.51934617       0.33282436
C       -0.40386671       1.38566199      -0.11897872
C       -1.24923225       0.17356222       0.14691542
C       -0.41395479      -1.06137487      -0.20469950
C        1.00459469      -0.83038287       0.32848789
C        0.97885123       1.26033410      -0.49419131
H       -1.51436604       0.17191787       1.20802775
H       -2.16302381       0.25663727      -0.44269380
H       -0.87065775      -1.96422212       0.20299006
H       -0.38908428      -1.19665405      -1.28913940
H        1.69409064      -1.57173809      -0.08068881
H        0.97283978      -1.03071630       1.40550060
H        1.71355402       0.34752973       0.54110607
H        1.14286480       1.54009895      -1.53546062
14
Frame=14 idx=004952 GeodesicLength=1.0498684782807857 rxn_smarts="[O:1]=[C:2]1[C:3]([H:7])([H:8])[C:4]([H:9])([H:10])[C:5]([H:11])([H:12])[C:6]1([H:13])[H:14]>>[O-:1][C:2]([C:3]([C:4]([C:5]([H:11])([H:12])[H:13])([H:9])[H:10])([H:7])[H:8])=[C+:6][H:14]"
O       -0.45750077       2.49665691       0.38079597
C       -0.40165703       1.37911663      -0.11716539
C       -1.25533748       0.17068292       0.13798850
C       -0.41776290      -1.06680428      -0.20240933
C        1.00155637      -0.82080459       0.32502926
C        0.97394487       1.23821621      -0.51577349
H       -1.53352987       0.17006478       1.19561884
H       -2.16064132       0.25594647      -0.46427461
H       -0.87179061      -1.96629328       0.21513071
H       -0.39383749      -1.21231304      -1.28553809
H        1.69062042      -1.56855346      -0.07335417
H        0.96867961      -1.01187265       1.40390182
H        1.72823215       0.37515371       0.54573888
H        1.12902405       1.56080367      -1.54568889
14
Frame=15 idx=004952 GeodesicLength=1.126825252260306 rxn_smarts="[O:1]=[C:2]1[C:3]([H:7])([H:8])[C:4]([H:9])([H:10])[C:5]([H:11])([H:12])[C:6]1([H:13])[H:14]>>[O-:1][C:2]([C:3]([C:4]([C:5]([H:11])([H:12])[H:13])([H:9])[H:10])([H:7])[H:8])=[C+:6][H:14]"
O       -0.41304938       2.47169367       0.42589093
C       -0.39963564       1.37260067      -0.11517844
C       -1.26153923       0.16787106       0.12923336
C       -0.42189738      -1.07229744      -0.19987347
C        0.99838513      -0.81165109       0.32108182
C        0.96860108       1.21635931      -0.53643865
H       -1.55250325       0.16865583       1.18331695
H       -2.15835424       0.25508626      -0.48541314
H       -0.87330036      -1.96813911       0.22778029
H       -0.39916661      -1.22809427      -1.28161898
H        1.68690659      -1.56575460      -0.06645693
H        0.96498501      -0.99251163       1.40190552
H        1.74332787       0.40344399       0.54812428
H        1.11724042       1.58273736      -1.55235354
14
Frame=16 idx=004952 GeodesicLength=1.2041640882255038 rxn_smarts="[O:1]=[C:2]1[C:3]([H:7])([H:8])[C:4]([H:9])([H:10])[C:5]([H:11])([H:12])[C:6]1([H:13])[H:14]>>[O-:1][C:2]([C:3]([C:4]([C:5]([H:11])([H:12])[H:13])([H:9])[H:10])([H:7])[H:8])=[C+:6][H:14]"
O       -0.36944583       2.44475356       0.46810212
C       -0.39771804       1.36608415      -0.11293828
C       -1.26773894       0.16508175       0.12066108
C       -0.42633397      -1.07782928      -0.19710339
C        0.99501179      -0.80289047       0.31665075
C        0.96282754       1.19486245      -0.55615145
H       -1.57116019       0.16760809       1.17107835
H       -2.15599616       0.25400325      -0.50610050
H       -0.87515273      -1.96976326       0.24084422
H       -0.40505045      -1.24392180      -1.27733890
H        1.68282434      -1.56325521      -0.05997855
H        0.96167315      -0.97267695       1.39942196
H        1.75882363       0.43248272       0.54826101
H        1.10743587       1.60546101      -1.55540842
