12
Frame=0 idx=005947 GeodesicLength=0.0 rxn_smarts="[N:1]([C:2]([C@@:3]([O:4][H:12])([C:5]#[N:6])[H:11])([H:9])[H:10])([H:7])[H:8]>>[C:3]([O:4][H:12])([C:5]#[N:6])([H:10])[H:11].[N:1]([C:2][H:9])([H:7])[H:8]"
N       -1.48842688      -0.76779146       0.42093325
C       -1.22229792       0.25018965      -0.41153060
C        0.98923278       0.75167732       0.16109363
O        1.09491590      -0.02653306       1.28936791
C        1.64776315       0.23860528      -1.02015589
N        2.10813432      -0.18151726      -1.98790838
H       -1.98875441      -0.58993849       1.27636138
H       -1.49367307      -1.72722023       0.10767857
H       -0.93517345      -0.09477257      -1.40480103
H       -0.38270491       1.06833223      -0.04959611
H        1.27219421       1.78322877       0.37009889
H        0.39879028      -0.70426016       1.24845840
12
Frame=1 idx=005947 GeodesicLength=0.08300222371543034 rxn_smarts="[N:1]([C:2]([C@@:3]([O:4][H:12])([C:5]#[N:6])[H:11])([H:9])[H:10])([H:7])[H:8]>>[C:3]([O:4][H:12])([C:5]#[N:6])([H:10])[H:11].[N:1]([C:2][H:9])([H:7])[H:8]"
N       -1.51150013      -0.76705881       0.43628241
C       -1.19480090       0.21540710      -0.42232864
C        0.98900059       0.75403259       0.16173085
O        1.10686034      -0.04838488       1.27308703
C        1.66873908       0.27628015      -1.02452990
N        2.12355973      -0.12634707      -2.00201001
H       -2.00281362      -0.54424360       1.28648783
H       -1.57293224      -1.73061931       0.14197561
H       -0.90997555      -0.16876044      -1.40179029
H       -0.37766703       1.08525905      -0.06884646
H        1.27055898       1.78054480       0.39848168
H        0.41097074      -0.72610957       1.22145989
12
Frame=2 idx=005947 GeodesicLength=0.16388017976918529 rxn_smarts="[N:1]([C:2]([C@@:3]([O:4][H:12])([C:5]#[N:6])[H:11])([H:9])[H:10])([H:7])[H:8]>>[C:3]([O:4][H:12])([C:5]#[N:6])([H:10])[H:11].[N:1]([C:2][H:9])([H:7])[H:8]"
N       -1.53318700      -0.76654425       0.45041808
C       -1.16785278       0.18100220      -0.42965749
C        0.98840096       0.75582874       0.16197040
O        1.11944889      -0.06880035       1.25692806
C        1.68679784       0.31115494      -1.02858481
N        2.13840947      -0.07368046      -2.01440735
H       -2.01625570      -0.50276728       1.29370760
H       -1.64792419      -1.73004599       0.17202124
H       -0.88648930      -0.23930849      -1.39527368
H       -0.37280354       1.10166293      -0.08863727
H        1.26873022       1.77701187       0.42426928
H        0.42272513      -0.74551389       1.19724594
12
Frame=3 idx=005947 GeodesicLength=0.24323049521795825 rxn_smarts="[N:1]([C:2]([C@@:3]([O:4][H:12])([C:5]#[N:6])[H:11])([H:9])[H:10])([H:7])[H:8]>>[C:3]([O:4][H:12])([C:5]#[N:6])([H:10])[H:11].[N:1]([C:2][H:9])([H:7])[H:8]"
N       -1.55344833      -0.76647507       0.46344185
C       -1.14150172       0.14719776      -0.43368987
C        0.98752993       0.75719445       0.16188769
O        1.13275131      -0.08757763       1.24113685
C        1.70227551       0.34327339      -1.03236960
N        2.15239234      -0.02375075      -2.02537172
H       -2.02942032      -0.46552238       1.29840370
H       -1.71894093      -1.72620410       0.19756046
H       -0.86479116      -0.30610325      -1.38579991
H       -0.36801984       1.11758613      -0.10872256
H        1.26686334       1.77292666       0.44748475
H        0.43430987      -0.76254521       1.17603835
12
Frame=4 idx=005947 GeodesicLength=0.3215564023330745 rxn_smarts="[N:1]([C:2]([C@@:3]([O:4][H:12])([C:5]#[N:6])[H:11])([H:9])[H:10])([H:7])[H:8]>>[C:3]([O:4][H:12])([C:5]#[N:6])([H:10])[H:11].[N:1]([C:2][H:9])([H:7])[H:8]"
N       -1.57236062      -0.76702552       0.47551031
C       -1.11573248       0.11405683      -0.43467322
C        0.98646151       0.75824239       0.16155009
O        1.14679295      -0.10466420       1.22586353
C        1.71553568       0.37285105      -1.03595050
N        2.16539428       0.02345541      -2.03515403
H       -2.04247233      -0.43225997       1.30102531
H       -1.78655483      -1.71962267       0.21857653
H       -0.84482769      -0.36919167      -1.37388061
H       -0.36325187       1.13304662      -0.12895662
H        1.26503370       1.76854763       0.46828017
H        0.44598171      -0.77743589       1.15780903
12
Frame=5 idx=005947 GeodesicLength=0.3990195670419655 rxn_smarts="[N:1]([C:2]([C@@:3]([O:4][H:12])([C:5]#[N:6])[H:11])([H:9])[H:10])([H:7])[H:8]>>[C:3]([O:4][H:12])([C:5]#[N:6])([H:10])[H:11].[N:1]([C:2][H:9])([H:7])[H:8]"
N       -1.59012628      -0.76816591       0.48677332
C       -1.09053411       0.08152207      -0.43289469
C        0.98519631       0.75895138       0.16098379
O        1.16155489      -0.12023191       1.21105048
C        1.72688174       0.40016047      -1.03939674
N        2.17755492       0.06835621      -2.04392620
H       -2.05548851      -0.40241458       1.30190484
H       -1.85116407      -1.71060102       0.23547699
H       -0.82645918      -0.42889055      -1.35985722
H       -0.35850786       1.14793986      -0.14929992
H        1.26316884       1.76390477       0.48690022
H        0.45792332      -0.79053079       1.14228513
12
Frame=6 idx=005947 GeodesicLength=0.4759735739248549 rxn_smarts="[N:1]([C:2]([C@@:3]([O:4][H:12])([C:5]#[N:6])[H:11])([H:9])[H:10])([H:7])[H:8]>>[C:3]([O:4][H:12])([C:5]#[N:6])([H:10])[H:11].[N:1]([C:2][H:9])([H:7])[H:8]"
N       -1.60682041      -0.77008415       0.49735596
C       -1.06583301       0.04957736      -0.42854813
C        0.98378872       0.75945542       0.16026145
O        1.17700411      -0.13422777       1.19684364
C        1.73658208       0.42543318      -1.04274533
N        2.18869151       0.11083143      -2.05187642
H       -2.06843587      -0.37583399       1.30144037
H       -1.91330343      -1.69940503       0.24817376
H       -0.80958323      -0.48533458      -1.34415020
H       -0.35374499       1.16234976      -0.16962555
H        1.26133286       1.75925598       0.50350517
H        0.47032166      -0.80201761       1.12936527
12
Frame=7 idx=005947 GeodesicLength=0.5525058662201051 rxn_smarts="[N:1]([C:2]([C@@:3]([O:4][H:12])([C:5]#[N:6])[H:11])([H:9])[H:10])([H:7])[H:8]>>[C:3]([O:4][H:12])([C:5]#[N:6])([H:10])[H:11].[N:1]([C:2][H:9])([H:7])[H:8]"
N       -1.62263408      -0.77275783       0.50735810
C       -1.04158826       0.01812150      -0.42186360
C        0.98222061       0.75974682       0.15941452
O        1.19307759      -0.14679958       1.18320720
C        1.74484073       0.44890017      -1.04603358
N        2.19887806       0.15117468      -2.05913032
H       -2.08123601      -0.35209839       1.29991282
H       -1.97325466      -1.68612311       0.25697065
H       -0.79404983      -0.53885903      -1.32702025
H       -0.34898748       1.17623379      -0.18991829
H        1.25945658       1.75462805       0.51831920
H        0.48327676      -0.81216707       1.11878353
12
Frame=8 idx=005947 GeodesicLength=0.628747257447332 rxn_smarts="[N:1]([C:2]([C@@:3]([O:4][H:12])([C:5]#[N:6])[H:11])([H:9])[H:10])([H:7])[H:8]>>[C:3]([O:4][H:12])([C:5]#[N:6])([H:10])[H:11].[N:1]([C:2][H:9])([H:7])[H:8]"
N       -1.63772389      -0.77621231       0.51686583
C       -1.01775734      -0.01295059      -0.41302020
C        0.98048133       0.75984914       0.15847514
O        1.20972015      -0.15803841       1.17013540
C        1.75181491       0.47077090      -1.04929284
N        2.20816405       0.18955449      -2.06580131
H       -2.09378314      -0.33092029       1.29759855
H       -2.03131440      -1.67078428       0.26203171
H       -0.77973139      -0.58975779      -1.30869115
H       -0.34425204       1.18959160      -0.21014884
H        1.25749994       1.75008981       0.53152412
H        0.49688181      -0.82119227       1.11032357
12
Frame=9 idx=005947 GeodesicLength=0.7046379028608415 rxn_smarts="[N:1]([C:2]([C@@:3]([O:4][H:12])([C:5]#[N:6])[H:11])([H:9])[H:10])([H:7])[H:8]>>[C:3]([O:4][H:12])([C:5]#[N:6])([H:10])[H:11].[N:1]([C:2][H:9])([H:7])[H:8]"
N       -1.65231103      -0.78028677       0.52588930
C       -0.99434378      -0.04372696      -0.40222908
C        0.97850261       0.75968268       0.15744562
O        1.22682432      -0.16814773       1.15752948
C        1.75758575       0.49117271      -1.05255070
N        2.21673552       0.22637217      -2.07190295
H       -2.10594606      -0.31186324       1.29466681
H       -2.08742029      -1.65343415       0.26381636
H       -0.76652697      -0.63834057      -1.28931645
H       -0.33959562       1.20237248      -0.23034236
H        1.25535769       1.74554858       0.54330524
H        0.51113786      -0.82934918       1.10368872
12
Frame=10 idx=005947 GeodesicLength=0.7803208292495365 rxn_smarts="[N:1]([C:2]([C@@:3]([O:4][H:12])([C:5]#[N:6])[H:11])([H:9])[H:10])([H:7])[H:8]>>[C:3]([O:4][H:12])([C:5]#[N:6])([H:10])[H:11].[N:1]([C:2][H:9])([H:7])[H:8]"
N       -1.66650061      -0.78504146       0.53444811
C       -0.97129404      -0.07428201      -0.38960227
C        0.97628730       0.75930853       0.15637403
O        1.24432570      -0.17712427       1.14545939
C        1.76226752       0.51025036      -1.05580972
N        2.22446575       0.26154435      -2.07754598
H       -2.11761915      -0.29486968       1.29135550
H       -2.14171171      -1.63405541       0.26231490
H       -0.75434683      -0.68475560      -1.26910773
H       -0.33501751       1.21465187      -0.25043676
H        1.25304588       1.74111501       0.55378903
H        0.52609770      -0.83674168       1.09876150
12
Frame=11 idx=005947 GeodesicLength=0.8557675965321507 rxn_smarts="[N:1]([C:2]([C@@:3]([O:4][H:12])([C:5]#[N:6])[H:11])([H:9])[H:10])([H:7])[H:8]>>[C:3]([O:4][H:12])([C:5]#[N:6])([H:10])[H:11].[N:1]([C:2][H:9])([H:7])[H:8]"
N       -1.68041542      -0.79041353       0.54251980
C       -0.94857561      -0.10468238      -0.37524264
C        0.97379199       0.75871158       0.15528246
O        1.26214300      -0.18503269       1.13389972
C        1.76591515       0.52809654      -1.05906229
N        2.23132505       0.29512716      -2.08276078
H       -2.12871971      -0.27977808       1.28780804
H       -2.19409578      -1.61262840       0.25769409
H       -0.74310575      -0.72914161      -1.24819545
H       -0.33055513       1.22645403      -0.27038701
H        1.25051169       1.73677171       0.56308915
H        0.54178053      -0.84348433       1.09535492
12
Frame=12 idx=005947 GeodesicLength=0.9310213362868376 rxn_smarts="[N:1]([C:2]([C@@:3]([O:4][H:12])([C:5]#[N:6])[H:11])([H:9])[H:10])([H:7])[H:8]>>[C:3]([O:4][H:12])([C:5]#[N:6])([H:10])[H:11].[N:1]([C:2][H:9])([H:7])[H:8]"
N       -1.69417095      -0.79637127       0.55008652
C       -0.92616530      -0.13501806      -0.35923925
C        0.97098530       0.75789347       0.15419247
O        1.28022988      -0.19191759       1.12284903
C        1.76857370       0.54480973      -1.06232229
N        2.23733271       0.32716702      -2.08759708
H       -2.13917315      -0.26647195       1.28418979
H       -2.24456927      -1.58911175       0.25006565
H       -0.73274175      -0.77165377      -1.22670714
H       -0.32624395       1.23781921      -0.29015884
H        1.24772154       1.73253719       0.57131165
H        0.55822124      -0.84968222       1.09332949
12
Frame=13 idx=005947 GeodesicLength=1.0060567701515233 rxn_smarts="[N:1]([C:2]([C@@:3]([O:4][H:12])([C:5]#[N:6])[H:11])([H:9])[H:10])([H:7])[H:8]>>[C:3]([O:4][H:12])([C:5]#[N:6])([H:10])[H:11].[N:1]([C:2][H:9])([H:7])[H:8]"
N       -1.70791732      -0.80270029       0.55709098
C       -0.90406797      -0.16535509      -0.34173016
C        0.96779150       0.75676629       0.15308812
O        1.29845611      -0.19793823       1.11224974
C        1.77022703       0.56038461      -1.06560394
N        2.24266727       0.35801614      -2.09201171
H       -2.14892355      -0.25465803       1.28057398
H       -2.29285858      -1.56361101       0.23987223
H       -0.72323498      -0.81246998      -1.20474847
H       -0.32209814       1.24877767      -0.30979786
H        1.24460643       1.72830856       0.57853884
H        0.57535220      -0.85552064       1.09247824
12
Frame=14 idx=005947 GeodesicLength=1.08091959799687 rxn_smarts="[N:1]([C:2]([C@@:3]([O:4][H:12])([C:5]#[N:6])[H:11])([H:9])[H:10])([H:7])[H:8]>>[C:3]([O:4][H:12])([C:5]#[N:6])([H:10])[H:11].[N:1]([C:2][H:9])([H:7])[H:8]"
N       -1.72168897      -0.80946289       0.56348931
C       -0.88222716      -0.19575243      -0.32270434
C        0.96421866       0.75540051       0.15203037
O        1.31682537      -0.20300559       1.10217125
C        1.77094187       0.57493438      -1.06889179
N        2.24707684       0.38731869      -2.09611291
H       -2.15802359      -0.24444373       1.27708042
H       -2.33891371      -1.53608118       0.22697931
H       -0.71453294      -0.85153856      -1.18246993
H       -0.31813780       1.25943799      -0.32916411
H        1.24119658       1.72418160       0.58485363
H        0.59326485      -0.86098876       1.09273877
12
Frame=15 idx=005947 GeodesicLength=1.1555784461514953 rxn_smarts="[N:1]([C:2]([C@@:3]([O:4][H:12])([C:5]#[N:6])[H:11])([H:9])[H:10])([H:7])[H:8]>>[C:3]([O:4][H:12])([C:5]#[N:6])([H:10])[H:11].[N:1]([C:2][H:9])([H:7])[H:8]"
N       -1.73554294      -0.81654322       0.56922778
C       -0.86060997      -0.22629242      -0.30219228
C        0.96021432       0.75374952       0.15102767
O        1.33529317      -0.20717975       1.09258955
C        1.77069213       0.58846798      -1.07218162
N        2.25055432       0.41516209      -2.09989882
H       -2.16650379      -0.23569022       1.27372815
H       -2.38252073      -1.50654417       0.21157402
H       -0.70660849      -0.88891460      -1.15994950
H       -0.31438715       1.26985144      -0.34822712
H        1.23744232       1.72010270       0.59030786
H        0.61197682      -0.86616934       1.09399431
12
Frame=16 idx=005947 GeodesicLength=1.23004024302812 rxn_smarts="[N:1]([C:2]([C@@:3]([O:4][H:12])([C:5]#[N:6])[H:11])([H:9])[H:10])([H:7])[H:8]>>[C:3]([O:4][H:12])([C:5]#[N:6])([H:10])[H:11].[N:1]([C:2][H:9])([H:7])[H:8]"
N       -1.74950645      -0.82387908       0.57425783
C       -0.83916556      -0.25710044      -0.28019884
C        0.95572477       0.75178169       0.15009375
O        1.35383578      -0.21048338       1.08350433
C        1.76945083       0.60101090      -1.07547440
N        2.25306720       0.44158664      -2.10338412
H       -2.17434687      -0.22832312       1.27057046
H       -2.42358010      -1.47491145       0.19373742
H       -0.69941480      -0.92466498      -1.13726037
H       -0.31087777       1.28006233      -0.36695926
H        1.23327717       1.71604962       0.59494439
H        0.63153579      -0.87112873       1.09616881
