15
Frame=0 idx=010993 GeodesicLength=0.0 rxn_smarts="[C:1]([C@@:2]1([O:3][H:11])[C:4]([H:12])([H:13])[C@@:5]2([H:14])[O:6][C@@:7]12[H:15])([H:8])([H:9])[H:10]>>[C:1]([C@@:2]1([O:3][H:11])[C:4]([H:12])([H:13])[C-:5]([H:14])[O+:6]=[C:7]1[H:15])([H:8])([H:9])[H:10]"
C        1.47566286       0.67983295      -0.41659785
C        0.42939847      -0.10796110       0.34534647
O        0.98131727      -0.40874063       1.61837943
C       -0.94522446       0.59167599       0.44269699
C       -1.76174806      -0.19851290      -0.54719989
O       -1.27390305      -0.46979866      -1.63668442
C       -0.01640343      -1.45285646      -0.19867699
H        1.10742978       0.91830659      -1.41487421
H        1.71630498       1.60825818       0.10504759
H        2.38941032       0.09099190      -0.50545915
H        0.44464779      -1.11535338       1.99663541
H       -1.35018273       0.49589719       1.44990057
H       -0.93126061       1.64879467       0.16390116
H       -2.80020183      -0.48570238      -0.31704328
H        0.53475268      -1.79483192      -1.08537177
15
Frame=1 idx=010993 GeodesicLength=0.11131056295854166 rxn_smarts="[C:1]([C@@:2]1([O:3][H:11])[C:4]([H:12])([H:13])[C@@:5]2([H:14])[O:6][C@@:7]12[H:15])([H:8])([H:9])[H:10]>>[C:1]([C@@:2]1([O:3][H:11])[C:4]([H:12])([H:13])[C-:5]([H:14])[O+:6]=[C:7]1[H:15])([H:8])([H:9])[H:10]"
C        1.47437646       0.68309838      -0.41508891
C        0.42516486      -0.10292164       0.34471358
O        0.97218643      -0.40403509       1.61857326
C       -0.94780611       0.60082756       0.44372893
C       -1.76117336      -0.19880639      -0.54014244
O       -1.25240498      -0.50045277      -1.62007839
C       -0.03713108      -1.43400068      -0.21927139
H        1.10720668       0.92639112      -1.41269337
H        1.71765328       1.60976584       0.10850482
H        2.38629267       0.09143230      -0.50505268
H        0.46797799      -1.14139135       1.98085958
H       -1.35023683       0.50512664       1.45243491
H       -0.93511209       1.65698171       0.16238872
H       -2.80387699      -0.47728618      -0.32556704
H        0.53688307      -1.81472946      -1.07330959
15
Frame=2 idx=010993 GeodesicLength=0.22259590265970855 rxn_smarts="[C:1]([C@@:2]1([O:3][H:11])[C:4]([H:12])([H:13])[C@@:5]2([H:14])[O:6][C@@:7]12[H:15])([H:8])([H:9])[H:10]>>[C:1]([C@@:2]1([O:3][H:11])[C:4]([H:12])([H:13])[C-:5]([H:14])[O+:6]=[C:7]1[H:15])([H:8])([H:9])[H:10]"
C        1.47301360       0.68610861      -0.41354280
C        0.42092224      -0.09809137       0.34424464
O        0.96290397      -0.39874689       1.61924679
C       -0.95056931       0.60940338       0.44467343
C       -1.76025020      -0.19934807      -0.53373977
O       -1.23152814      -0.52743330      -1.60460619
C       -0.05667279      -1.41557827      -0.23879522
H        1.10695188       0.93409798      -1.41049146
H        1.71879976       1.61114091       0.11181360
H        2.38310497       0.09164735      -0.50458631
H        0.49419378      -1.16626868       1.96451653
H       -1.35086174       0.51331367       1.45467774
H       -0.93915270       1.66479034       0.16153125
H       -2.80693969      -0.46959288      -0.33566917
H        0.53608437      -1.83544279      -1.05927307
15
Frame=3 idx=010993 GeodesicLength=0.3338360429314312 rxn_smarts="[C:1]([C@@:2]1([O:3][H:11])[C:4]([H:12])([H:13])[C@@:5]2([H:14])[O:6][C@@:7]12[H:15])([H:8])([H:9])[H:10]>>[C:1]([C@@:2]1([O:3][H:11])[C:4]([H:12])([H:13])[C-:5]([H:14])[O+:6]=[C:7]1[H:15])([H:8])([H:9])[H:10]"
C        1.47162056       0.68889865      -0.41191304
C        0.41665569      -0.09346905       0.34391895
O        0.95342278      -0.39310240       1.62035846
C       -0.95351204       0.61745227       0.44552569
C       -1.75909066      -0.20017279      -0.52788261
O       -1.21121000      -0.55116221      -1.59031966
C       -0.07516603      -1.39759655      -0.25738700
H        1.10673654       0.94153560      -1.40823224
H        1.71982601       1.61237023       0.11512228
H        2.37988375       0.09165748      -0.50404121
H        0.52326348      -1.18982671       1.94758441
H       -1.35201088       0.52061380       1.45667547
H       -0.94336120       1.67224698       0.16119798
H       -2.80949297      -0.46259395      -0.34716585
H        0.53243496      -1.85685134      -1.04344163
15
Frame=4 idx=010993 GeodesicLength=0.4450632081259688 rxn_smarts="[C:1]([C@@:2]1([O:3][H:11])[C:4]([H:12])([H:13])[C@@:5]2([H:14])[O:6][C@@:7]12[H:15])([H:8])([H:9])[H:10]>>[C:1]([C@@:2]1([O:3][H:11])[C:4]([H:12])([H:13])[C-:5]([H:14])[O+:6]=[C:7]1[H:15])([H:8])([H:9])[H:10]"
C        1.47015524       0.69144658      -0.41013518
C        0.41233965      -0.08906516       0.34370301
O        0.94367896      -0.38728477       1.62178245
C       -0.95663670       0.62500645       0.44626147
C       -1.75771958      -0.20127124      -0.52246024
O       -1.19132189      -0.57197962      -1.57714558
C       -0.09266994      -1.38003326      -0.27513347
H        1.10653998       0.94873882      -1.40580070
H        1.72066768       1.61336598       0.11854582
H        2.37657936       0.09142979      -0.50336724
H        0.55531313      -1.21190431       1.92992778
H       -1.35364119       0.52713849       1.45838204
H       -0.94776861       1.67934070       0.16128692
H       -2.81153741      -0.45610254      -0.35996040
H        0.52602133      -1.87882590      -1.02588669
15
Frame=5 idx=010993 GeodesicLength=0.55619700931232 rxn_smarts="[C:1]([C@@:2]1([O:3][H:11])[C:4]([H:12])([H:13])[C@@:5]2([H:14])[O:6][C@@:7]12[H:15])([H:8])([H:9])[H:10]>>[C:1]([C@@:2]1([O:3][H:11])[C:4]([H:12])([H:13])[C-:5]([H:14])[O+:6]=[C:7]1[H:15])([H:8])([H:9])[H:10]"
C        1.46871693       0.69381827      -0.40818692
C        0.40799355      -0.08488180       0.34357184
O        0.93371830      -0.38158076       1.62347224
C       -0.95993305       0.63212082       0.44688967
C       -1.75626828      -0.20269126      -0.51741021
O       -1.17188643      -0.59024021      -1.56514062
C       -0.10929727      -1.36293403      -0.29222282
H        1.10645472       0.95584081      -1.40319648
H        1.72148790       1.61417522       0.12224012
H        2.37329587       0.09100675      -0.50260824
H        0.59001473      -1.23223882       1.91161031
H       -1.35569521       0.53303701       1.45987930
H       -0.95233673       1.68614290       0.16172570
H       -2.81318108      -0.45025909      -0.37383056
H        0.51691606      -1.90131581      -1.00679333
15
Frame=6 idx=010993 GeodesicLength=0.6673672185807105 rxn_smarts="[C:1]([C@@:2]1([O:3][H:11])[C:4]([H:12])([H:13])[C@@:5]2([H:14])[O:6][C@@:7]12[H:15])([H:8])([H:9])[H:10]>>[C:1]([C@@:2]1([O:3][H:11])[C:4]([H:12])([H:13])[C-:5]([H:14])[O+:6]=[C:7]1[H:15])([H:8])([H:9])[H:10]"
C        1.46722489       0.69599741      -0.40605460
C        0.40359210      -0.08093309       0.34350845
O        0.92344804      -0.37617349       1.62536767
C       -0.96333460       0.63874583       0.44738433
C       -1.75464970      -0.20444594      -0.51264464
O       -1.15275155      -0.60616069      -1.55421819
C       -0.12507683      -1.34620944      -0.30869171
H        1.10643994       0.96287044      -1.40039014
H        1.72217753       1.61468067       0.12623428
H        2.36990241       0.09042081      -0.50173986
H        0.62732587      -1.25063323       1.89261268
H       -1.35805794       0.53827895       1.46114451
H       -0.95700987       1.69253110       0.16239737
H       -2.81428564      -0.44487794      -0.38870975
H        0.50505535      -1.92409142      -0.98620039
15
Frame=7 idx=010993 GeodesicLength=0.7784469919002972 rxn_smarts="[C:1]([C@@:2]1([O:3][H:11])[C:4]([H:12])([H:13])[C@@:5]2([H:14])[O:6][C@@:7]12[H:15])([H:8])([H:9])[H:10]>>[C:1]([C@@:2]1([O:3][H:11])[C:4]([H:12])([H:13])[C-:5]([H:14])[O+:6]=[C:7]1[H:15])([H:8])([H:9])[H:10]"
C        1.46578827       0.69801707      -0.40371819
C        0.39918322      -0.07723311       0.34346882
O        0.91299386      -0.37127220       1.62735130
C       -0.96687474       0.64493751       0.44777498
C       -1.75300373      -0.20657353      -0.50811617
O       -1.13395187      -0.62004263      -1.54438652
C       -0.14004639      -1.32994029      -0.32473287
H        1.10656409       0.96990310      -1.39733924
H        1.72287957       1.61492675       0.13066771
H        2.36656575       0.08966871      -0.50082936
H        0.66691995      -1.26679865       1.87302320
H       -1.36073055       0.54299112       1.46223803
H       -0.96183573       1.69859518       0.16333327
H       -2.81500929      -0.44002510      -0.40445224
H        0.49055761      -1.94715393      -0.96428273
15
Frame=8 idx=010993 GeodesicLength=0.8895302656923072 rxn_smarts="[C:1]([C@@:2]1([O:3][H:11])[C:4]([H:12])([H:13])[C@@:5]2([H:14])[O:6][C@@:7]12[H:15])([H:8])([H:9])[H:10]>>[C:1]([C@@:2]1([O:3][H:11])[C:4]([H:12])([H:13])[C-:5]([H:14])[O+:6]=[C:7]1[H:15])([H:8])([H:9])[H:10]"
C        1.46434621       0.69988895      -0.40117487
C        0.39475454      -0.07379454       0.34344879
O        0.90229984      -0.36701718       1.62939407
C       -0.97049903       0.65064751       0.44804074
C       -1.75125288      -0.20909060      -0.50377807
O       -1.11536359      -0.63206255      -1.53555932
C       -0.15423253      -1.31407326      -0.34034881
H        1.10678532       0.97699273      -1.39402693
H        1.72352000       1.61485578       0.13554681
H        2.36318258       0.08879778      -0.49987240
H        0.70880571      -1.28062073       1.85282569
H       -1.36362556       0.54710701       1.46313770
H       -0.96676510       1.70425194       0.16444856
H       -2.81524433      -0.43551411      -0.42107334
H        0.47328881      -1.97036874      -0.94100863
15
Frame=9 idx=010993 GeodesicLength=1.0005369596011722 rxn_smarts="[C:1]([C@@:2]1([O:3][H:11])[C:4]([H:12])([H:13])[C@@:5]2([H:14])[O:6][C@@:7]12[H:15])([H:8])([H:9])[H:10]>>[C:1]([C@@:2]1([O:3][H:11])[C:4]([H:12])([H:13])[C-:5]([H:14])[O+:6]=[C:7]1[H:15])([H:8])([H:9])[H:10]"
C        1.46295839       0.70164512      -0.39844495
C        0.39035936      -0.07064568       0.34338935
O        0.89151773      -0.36361228       1.63135361
C       -0.97418588       0.65588374       0.44820562
C       -1.74945189      -0.21201823      -0.49960525
O       -1.09699425      -0.64241785      -1.52773423
C       -0.16765694      -1.29865728      -0.35571319
H        1.10711125       0.98423432      -1.39043853
H        1.72419977       1.61447938       0.14094468
H        2.35983423       0.08782734      -0.49898832
H        0.75244055      -1.29182167       1.83223268
H       -1.36666640       0.55064973       1.46389131
H       -0.97178966       1.70953523       0.16579169
H       -2.81501906      -0.43142947      -0.43842924
H        0.45334280      -1.99365240      -0.91645524
15
Frame=10 idx=010993 GeodesicLength=1.1115428397687626 rxn_smarts="[C:1]([C@@:2]1([O:3][H:11])[C:4]([H:12])([H:13])[C@@:5]2([H:14])[O:6][C@@:7]12[H:15])([H:8])([H:9])[H:10]>>[C:1]([C@@:2]1([O:3][H:11])[C:4]([H:12])([H:13])[C-:5]([H:14])[O+:6]=[C:7]1[H:15])([H:8])([H:9])[H:10]"
C        1.46162039       0.70329613      -0.39555920
C        0.38602410      -0.06780713       0.34326514
O        0.88069443      -0.36115562       1.63315843
C       -0.97789707       0.66059046       0.44828880
C       -1.74755835      -0.21539761      -0.49555311
O       -1.07875986      -0.65127090      -1.52085348
C       -0.18031384      -1.28367203      -0.37088604
H        1.10752677       0.99166325      -1.38658004
H        1.72490790       1.61376160       0.14685564
H        2.35651254       0.08680557      -0.49825424
H        0.79755026      -1.30023540       1.81138450
H       -1.36978817       0.55354552       1.46452916
H       -0.97688796       1.71436504       0.16737344
H       -2.81428295      -0.42764380      -0.45651359
H        0.43065181      -2.01684510      -0.89065541
15
Frame=11 idx=010993 GeodesicLength=1.2223933119898938 rxn_smarts="[C:1]([C@@:2]1([O:3][H:11])[C:4]([H:12])([H:13])[C@@:5]2([H:14])[O:6][C@@:7]12[H:15])([H:8])([H:9])[H:10]>>[C:1]([C@@:2]1([O:3][H:11])[C:4]([H:12])([H:13])[C-:5]([H:14])[O+:6]=[C:7]1[H:15])([H:8])([H:9])[H:10]"
C        1.46036351       0.70488001      -0.39253510
C        0.38181457      -0.06529310       0.34305441
O        0.86999446      -0.35974602       1.63477345
C       -0.98160749       0.66477395       0.44830785
C       -1.74559198      -0.21926138      -0.49162293
O       -1.06066430      -0.65879507      -1.51492935
C       -0.19217642      -1.26915379      -0.38598156
H        1.10800516       0.99933119      -1.38247229
H        1.72567004       1.61276175       0.15330320
H        2.35328764       0.08577052      -0.49771678
H        0.84378414      -1.30579273       1.79046075
H       -1.37290834       0.55579845       1.46509738
H       -0.98208079       1.71877749       0.16921221
H       -2.81304608      -0.42414408      -0.47528332
H        0.40515589      -2.03990718      -0.86366789
15
Frame=12 idx=010993 GeodesicLength=1.3333729908731586 rxn_smarts="[C:1]([C@@:2]1([O:3][H:11])[C:4]([H:12])([H:13])[C@@:5]2([H:14])[O:6][C@@:7]12[H:15])([H:8])([H:9])[H:10]>>[C:1]([C@@:2]1([O:3][H:11])[C:4]([H:12])([H:13])[C-:5]([H:14])[O+:6]=[C:7]1[H:15])([H:8])([H:9])[H:10]"
C        1.45918372       0.70640961      -0.38942725
C        0.37774992      -0.06311067       0.34270771
O        0.85941068      -0.35943644       1.63606139
C       -0.98525068       0.66834580       0.44826952
C       -1.74344549      -0.22363781      -0.48774841
O       -1.04257041      -0.66506744      -1.50985027
C       -0.20322170      -1.25501365      -0.40105154
H        1.10857634       1.00725277      -1.37811265
H        1.72645441       1.61142431       0.16020832
H        2.35013289       0.08481292      -0.49746376
H        0.89064760      -1.30839878       1.76953098
H       -1.37595699       0.55728235       1.46558305
H       -0.98729594       1.72262510       0.17131847
H       -2.81114379      -0.42091535      -0.49459958
H        0.37672944      -2.06257271      -0.83542598
15
Frame=13 idx=010993 GeodesicLength=1.4443001184251034 rxn_smarts="[C:1]([C@@:2]1([O:3][H:11])[C:4]([H:12])([H:13])[C@@:5]2([H:14])[O:6][C@@:7]12[H:15])([H:8])([H:9])[H:10]>>[C:1]([C@@:2]1([O:3][H:11])[C:4]([H:12])([H:13])[C-:5]([H:14])[O+:6]=[C:7]1[H:15])([H:8])([H:9])[H:10]"
C        1.45808947       0.70792453      -0.38626594
C        0.37389079      -0.06128706       0.34220748
O        0.84910939      -0.36026183       1.63701061
C       -0.98879809       0.67129915       0.44818953
C       -1.74112420      -0.22856407      -0.48395769
O       -1.02448263      -0.67024451      -1.50563574
C       -0.21343656      -1.24132433      -0.41616857
H        1.10917749       1.01548982      -1.37353667
H        1.72727692       1.60981853       0.16756402
H        2.34708383       0.08396738      -0.49755067
H        0.93789944      -1.30810117       1.74884047
H       -1.37884847       0.55796033       1.46602691
H       -0.99254821       1.72594636       0.17371857
H       -2.80857718      -0.41788245      -0.51450332
H        0.34528801      -2.08474068      -0.80593899
15
Frame=14 idx=010993 GeodesicLength=1.5551323848821763 rxn_smarts="[C:1]([C@@:2]1([O:3][H:11])[C:4]([H:12])([H:13])[C@@:5]2([H:14])[O:6][C@@:7]12[H:15])([H:8])([H:9])[H:10]>>[C:1]([C@@:2]1([O:3][H:11])[C:4]([H:12])([H:13])[C-:5]([H:14])[O+:6]=[C:7]1[H:15])([H:8])([H:9])[H:10]"
C        1.45710233       0.70944118      -0.38311097
C        0.37029381      -0.05984285       0.34151502
O        0.83924793      -0.36221600       1.63755330
C       -0.99221741       0.67360331       0.44809416
C       -1.73860907      -0.23405865      -0.48025492
O       -1.00637025      -0.67445222      -1.50227323
C       -0.22280716      -1.22811095      -0.43140614
H        1.10978109       1.02406081      -1.36878622
H        1.72815549       1.60796500       0.17531213
H        2.34418642       0.08327290      -0.49807622
H        0.98505460      -1.30496521       1.72863018
H       -1.38151443       0.55777145       1.46647081
H       -0.99783434       1.72871472       0.17646746
H       -2.80530639      -0.41504401      -0.53493219
H        0.31083738      -2.10613948      -0.77520317
15
Frame=15 idx=010993 GeodesicLength=1.6654191089031258 rxn_smarts="[C:1]([C@@:2]1([O:3][H:11])[C:4]([H:12])([H:13])[C@@:5]2([H:14])[O:6][C@@:7]12[H:15])([H:8])([H:9])[H:10]>>[C:1]([C@@:2]1([O:3][H:11])[C:4]([H:12])([H:13])[C-:5]([H:14])[O+:6]=[C:7]1[H:15])([H:8])([H:9])[H:10]"
C        1.45623564       0.71100036      -0.37994467
C        0.36701481      -0.05879381       0.34066422
O        0.82999231      -0.36529873       1.63783734
C       -0.99555553       0.67532687       0.44800484
C       -1.73598008      -0.24012541      -0.47678442
O       -0.98828233      -0.67790539      -1.49989632
C       -0.23133572      -1.21552083      -0.44683372
H        1.11028697       1.03301753      -1.36390769
H        1.72911419       1.60599360       0.18353973
H        2.34152274       0.08270500      -0.49903482
H        1.03250185      -1.29915238       1.70899959
H       -1.38395776       0.55676331       1.46699042
H       -1.00327196       1.73109850       0.17960903
H       -2.80145119      -0.41224972      -0.55611358
H        0.27316605      -2.12685890      -0.74312994
15
Frame=16 idx=010993 GeodesicLength=1.7769512876936173 rxn_smarts="[C:1]([C@@:2]1([O:3][H:11])[C:4]([H:12])([H:13])[C@@:5]2([H:14])[O:6][C@@:7]12[H:15])([H:8])([H:9])[H:10]>>[C:1]([C@@:2]1([O:3][H:11])[C:4]([H:12])([H:13])[C-:5]([H:14])[O+:6]=[C:7]1[H:15])([H:8])([H:9])[H:10]"
C        1.45541496       0.71248053      -0.37696430
C        0.36394492      -0.05817458       0.33946306
O        0.82092102      -0.36938694       1.63724920
C       -0.99858658       0.67606284       0.44786966
C       -1.73281311      -0.24680308      -0.47318588
O       -0.96976905      -0.68041187      -1.49788350
C       -0.23906428      -1.20317701      -0.46224590
H        1.11089729       1.04222744      -1.35877453
H        1.73005465       1.60342270       0.19179133
H        2.33879722       0.08245731      -0.50068308
H        1.07858921      -1.29044023       1.68996589
H       -1.38608889       0.55442929       1.46731726
H       -1.00844133       1.73234146       0.18311209
H       -2.79635258      -0.40963100      -0.57735945
H        0.23249655      -2.14539688      -0.70967185
