12
Frame=0 idx=003838 GeodesicLength=0.0 rxn_smarts="[N:1]#[C:2][C:3]([C@@:4]1([H:9])[C:5]([H:10])([H:11])[N:6]1[H:12])([H:7])[H:8]>>[N:1]#[C:2][N:6]([C:5]([C:4](=[C:3]([H:7])[H:8])[H:9])([H:10])[H:11])[H:12]"
N       -0.73853395       1.85609248      -1.53316237
C       -0.41515398       1.03885046      -0.72930594
C       -1.03737242       0.40480418       0.68205034
C        0.16510360      -0.35898164       0.94820271
C        0.56444549      -1.12636520      -0.23588114
N        0.84793286       0.26324224      -0.61420333
H       -1.28264449       1.19011216       1.38887984
H       -1.90430053      -0.20096227       0.42294111
H        0.84610610      -0.23106752       1.77741268
H       -0.21320563      -1.61644869      -0.81994462
H        1.47209778      -1.71620888      -0.15558470
H        1.69552519       0.49693272      -1.13140454
12
Frame=1 idx=003838 GeodesicLength=0.11487420412214615 rxn_smarts="[N:1]#[C:2][C:3]([C@@:4]1([H:9])[C:5]([H:10])([H:11])[N:6]1[H:12])([H:7])[H:8]>>[N:1]#[C:2][N:6]([C:5]([C:4](=[C:3]([H:7])[H:8])[H:9])([H:10])[H:11])[H:12]"
N       -0.77357941       1.84205447      -1.56525361
C       -0.43414787       1.04249168      -0.75375663
C       -1.03824196       0.40876459       0.69196239
C        0.16146136      -0.36126992       0.93862366
C        0.56772744      -1.12721873      -0.24479813
N        0.85695715       0.26094661      -0.61969650
H       -1.25984690       1.20319877       1.39691939
H       -1.91660512      -0.19130757       0.46060484
H        0.83638007      -0.24950189       1.77527415
H       -0.20430865      -1.60947600      -0.84208567
H        1.47141468      -1.72212391      -0.15763075
H        1.73278921       0.50344189      -1.08016315
12
Frame=2 idx=003838 GeodesicLength=0.22974051717513094 rxn_smarts="[N:1]#[C:2][C:3]([C@@:4]1([H:9])[C:5]([H:10])([H:11])[N:6]1[H:12])([H:7])[H:8]>>[N:1]#[C:2][N:6]([C:5]([C:4](=[C:3]([H:7])[H:8])[H:9])([H:10])[H:11])[H:12]"
N       -0.80987359       1.82673167      -1.59771824
C       -0.45331712       1.04614633      -0.77856277
C       -1.03869893       0.41300953       0.70187506
C        0.15779209      -0.36354278       0.92874868
C        0.57129361      -1.12775077      -0.25406991
N        0.86701584       0.25902403      -0.62500791
H       -1.23606558       1.21664322       1.40411795
H       -1.92806346      -0.18065970       0.49891996
H        0.82600936      -0.26902372       1.77305610
H       -0.19473324      -1.60186428      -0.86488442
H        1.47070482      -1.72802764      -0.15993284
H        1.76793619       0.50931413      -1.02654166
12
Frame=3 idx=003838 GeodesicLength=0.34458889942356397 rxn_smarts="[N:1]#[C:2][C:3]([C@@:4]1([H:9])[C:5]([H:10])([H:11])[N:6]1[H:12])([H:7])[H:8]>>[N:1]#[C:2][N:6]([C:5]([C:4](=[C:3]([H:7])[H:8])[H:9])([H:10])[H:11])[H:12]"
N       -0.84740947       1.81001700      -1.63046579
C       -0.47258636       1.04989562      -0.80364877
C       -1.03875260       0.41754325       0.71180910
C        0.15405567      -0.36579924       0.91862864
C        0.57519116      -1.12788320      -0.26365738
N        0.87824996       0.25756764      -0.62991822
H       -1.21137058       1.23038346       1.41048332
H       -1.93862651      -0.16898793       0.53783889
H        0.81484691      -0.28970264       1.77081335
H       -0.18435823      -1.59346497      -0.88839918
H        1.46997362      -1.73387817      -0.16242727
H        1.80078643       0.51430918      -0.97105669
12
Frame=4 idx=003838 GeodesicLength=0.4594410632268978 rxn_smarts="[N:1]#[C:2][C:3]([C@@:4]1([H:9])[C:5]([H:10])([H:11])[N:6]1[H:12])([H:7])[H:8]>>[N:1]#[C:2][N:6]([C:5]([C:4](=[C:3]([H:7])[H:8])[H:9])([H:10])[H:11])[H:12]"
N       -0.88616627       1.79182778      -1.66339181
C       -0.49191058       1.05381005      -0.82896512
C       -1.03842981       0.42236681       0.72178944
C        0.15020766      -0.36803782       0.90830820
C        0.57945727      -1.12755874      -0.27352005
N        0.89076474       0.25664420      -0.63422998
H       -1.18584080       1.24436600       1.41603002
H       -1.94826996      -0.15627652       0.57734088
H        0.80275435      -0.31158292       1.76856685
H       -0.17307491      -1.58415916      -0.91266207
H        1.46922069      -1.73965334      -0.16505664
H        1.83128760       0.51825366      -0.91420972
12
Frame=5 idx=003838 GeodesicLength=0.5742817233679075 rxn_smarts="[N:1]#[C:2][C:3]([C@@:4]1([H:9])[C:5]([H:10])([H:11])[N:6]1[H:12])([H:7])[H:8]>>[N:1]#[C:2][N:6]([C:5]([C:4](=[C:3]([H:7])[H:8])[H:9])([H:10])[H:11])[H:12]"
N       -0.92608940       1.77214746      -1.69634564
C       -0.51129825       1.05789619      -0.85452074
C       -1.03775848       0.42747089       0.73182436
C        0.14620837      -0.37024920       0.89780859
C        0.58411011      -1.12673986      -0.28361879
N        0.90460540       0.25627024      -0.63779601
H       -1.15952369       1.25854193       1.42074445
H       -1.95697031      -0.14252768       0.61743262
H        0.78962258      -0.33466773       1.76628186
H       -0.16079874      -1.57387164      -0.93766655
H        1.46842770      -1.74533358      -0.16776471
H        1.85946472       0.52106297      -0.85637943
12
Frame=6 idx=003838 GeodesicLength=0.6891267662137744 rxn_smarts="[N:1]#[C:2][C:3]([C@@:4]1([H:9])[C:5]([H:10])([H:11])[N:6]1[H:12])([H:7])[H:8]>>[N:1]#[C:2][N:6]([C:5]([C:4](=[C:3]([H:7])[H:8])[H:9])([H:10])[H:11])[H:12]"
N       -0.96715084       1.75090629      -1.72920881
C       -0.53073636       1.06223563      -0.88027412
C       -1.03678049       0.43284473       0.74194478
C        0.14202325      -0.37241095       0.88716582
C        0.58916242      -1.12538147      -0.29390971
N        0.91982362       0.25648076      -0.64044979
H       -1.13255005       1.27283352       1.42466294
H       -1.96470992      -0.12775618       0.65808633
H        0.77535211      -0.35892274       1.76392356
H       -0.14744883      -1.56249302      -0.96341202
H        1.46756632      -1.75090941      -0.17051309
H        1.88544878       0.52257284      -0.79801590
12
Frame=7 idx=003838 GeodesicLength=0.8039599520563029 rxn_smarts="[N:1]#[C:2][C:3]([C@@:4]1([H:9])[C:5]([H:10])([H:11])[N:6]1[H:12])([H:7])[H:8]>>[N:1]#[C:2][N:6]([C:5]([C:4](=[C:3]([H:7])[H:8])[H:9])([H:10])[H:11])[H:12]"
N       -1.00930506       1.72809446      -1.76183429
C       -0.55026566       1.06683755      -0.90625418
C       -1.03552733       0.43847101       0.75216034
C        0.13762674      -0.37449469       0.87638542
C        0.59460890      -1.12345725      -0.30435883
N        0.93642079       0.25725997      -0.64209006
H       -1.10499654       1.28717668       1.42778399
H       -1.97145881      -0.11198817       0.69930887
H        0.75987899      -0.38428147       1.76140002
H       -0.13297015      -1.54995571      -0.98986361
H        1.46658693      -1.75637719      -0.17327255
H        1.90940121       0.52271480      -0.73936513
12
Frame=8 idx=003838 GeodesicLength=0.9188221990887009 rxn_smarts="[N:1]#[C:2][C:3]([C@@:4]1([H:9])[C:5]([H:10])([H:11])[N:6]1[H:12])([H:7])[H:8]>>[N:1]#[C:2][N:6]([C:5]([C:4](=[C:3]([H:7])[H:8])[H:9])([H:10])[H:11])[H:12]"
N       -1.05253645       1.70368708      -1.79409306
C       -0.56994200       1.07172984      -0.93248915
C       -1.03404113       0.44434560       0.76248680
C        0.13300317      -0.37646726       0.86546446
C        0.60044500      -1.12096014      -0.31494425
N        0.95440884       0.25858418      -0.64263119
H       -1.07696015       1.30153654       1.43011704
H       -1.97720826      -0.09525074       0.74111200
H        0.74316383      -0.41066245       1.75860361
H       -0.11732221      -1.53621237      -1.01698945
H        1.46544809      -1.76176793      -0.17604266
H        1.93154127       0.52143763      -0.68059414
12
Frame=9 idx=003838 GeodesicLength=1.0336157281190166 rxn_smarts="[N:1]#[C:2][C:3]([C@@:4]1([H:9])[C:5]([H:10])([H:11])[N:6]1[H:12])([H:7])[H:8]>>[N:1]#[C:2][N:6]([C:5]([C:4](=[C:3]([H:7])[H:8])[H:9])([H:10])[H:11])[H:12]"
N       -1.09669074       1.67788476      -1.82578145
C       -0.58989760       1.07675046      -0.95912119
C       -1.03232908       0.45043069       0.77290678
C        0.12814316      -0.37829100       0.85437186
C        0.60665329      -1.11789073      -0.32563447
N        0.97372001       0.26035526      -0.64206932
H       -1.04845122       1.31587079       1.43157568
H       -1.98187082      -0.07760284       0.78356900
H        0.72515787      -0.43797099       1.75540063
H       -0.10045202      -1.52128122      -1.04469295
H        1.46408361      -1.76706133      -0.17878707
H        1.95193353       0.51880614      -0.62173749
12
Frame=10 idx=003838 GeodesicLength=1.1484288229771429 rxn_smarts="[N:1]#[C:2][C:3]([C@@:4]1([H:9])[C:5]([H:10])([H:11])[N:6]1[H:12])([H:7])[H:8]>>[N:1]#[C:2][N:6]([C:5]([C:4](=[C:3]([H:7])[H:8])[H:9])([H:10])[H:11])[H:12]"
N       -1.14182000       1.65061132      -1.85681148
C       -0.61018036       1.08198625      -0.98614509
C       -1.03044150       0.45672920       0.78344496
C        0.12304839      -0.37991384       0.84311202
C        0.61322742      -1.11423559      -0.33641155
N        0.99440452       0.26256385      -0.64029319
H       -1.01963736       1.33013957       1.43220463
H       -1.98544005      -0.05908559       0.82663958
H        0.70587092      -0.46607663       1.75167458
H       -0.08233264      -1.50507653      -1.07295121
H        1.46243895      -1.77231695      -0.18153510
H        1.97086172       0.51467493      -0.56292816
12
Frame=11 idx=003838 GeodesicLength=1.2632237277361575 rxn_smarts="[N:1]#[C:2][C:3]([C@@:4]1([H:9])[C:5]([H:10])([H:11])[N:6]1[H:12])([H:7])[H:8]>>[N:1]#[C:2][N:6]([C:5]([C:4](=[C:3]([H:7])[H:8])[H:9])([H:10])[H:11])[H:12]"
N       -1.18787400       1.62194382      -1.88705523
C       -0.63090572       1.08735187      -1.01365783
C       -1.02838790       0.46322195       0.79409734
C        0.11772141      -0.38129055       0.83165884
C        0.62015144      -1.10998201      -0.34725774
N        1.01644650       0.26513966      -0.63725457
H       -0.99057180       1.34431382       1.43195407
H       -1.98783555      -0.03974815       0.87036149
H        0.68528738      -0.49487643       1.74729005
H       -0.06291754      -1.48755552      -1.10170005
H        1.46043412      -1.77754488      -0.18429404
H        1.98845166       0.50902642      -0.50414234
12
Frame=12 idx=003838 GeodesicLength=1.3779985236489283 rxn_smarts="[N:1]#[C:2][C:3]([C@@:4]1([H:9])[C:5]([H:10])([H:11])[N:6]1[H:12])([H:7])[H:8]>>[N:1]#[C:2][N:6]([C:5]([C:4](=[C:3]([H:7])[H:8])[H:9])([H:10])[H:11])[H:12]"
N       -1.23482584       1.59196227      -1.91640167
C       -0.65219607       1.09276806      -1.04174803
C       -1.02618398       0.46989673       0.80486567
C        0.11217295      -0.38236935       0.81998951
C        0.62741519      -1.10512199      -0.35815947
N        1.03985559       0.26801176      -0.63289472
H       -0.96133530       1.35838034       1.43078376
H       -1.98898442      -0.01964440       0.91476050
H        0.66340787      -0.52425584       1.74211526
H       -0.04216121      -1.46867609      -1.13087863
H        1.45799317      -1.78277324      -0.18708721
H        2.00484205       0.50182175      -0.44534498
12
Frame=13 idx=003838 GeodesicLength=1.4927530682323558 rxn_smarts="[N:1]#[C:2][C:3]([C@@:4]1([H:9])[C:5]([H:10])([H:11])[N:6]1[H:12])([H:7])[H:8]>>[N:1]#[C:2][N:6]([C:5]([C:4](=[C:3]([H:7])[H:8])[H:9])([H:10])[H:11])[H:12]"
N       -1.28267301       1.56071260      -1.94476975
C       -0.67417810       1.09815793      -1.07049746
C       -1.02383776       0.47674708       0.81575551
C        0.10642004      -0.38309448       0.80808236
C        0.63500957      -1.09963756      -0.36910827
N        1.06465720       0.27110908      -0.62713741
H       -0.93200990       1.37233495       1.42865491
H       -1.98880093       0.00117729       0.95985753
H        0.64023473      -0.55411122       1.73602294
H       -0.02001406      -1.44836942      -1.16043344
H        1.45502986      -1.78802945      -0.18995483
H        2.02016235       0.49300321      -0.38647208
12
Frame=14 idx=003838 GeodesicLength=1.6074853923198065 rxn_smarts="[N:1]#[C:2][C:3]([C@@:4]1([H:9])[C:5]([H:10])([H:11])[N:6]1[H:12])([H:7])[H:8]>>[N:1]#[C:2][N:6]([C:5]([C:4](=[C:3]([H:7])[H:8])[H:9])([H:10])[H:11])[H:12]"
N       -1.33142112       1.52826724      -1.97208508
C       -0.69699604       1.10341909      -1.09999403
C       -1.02135327       0.48376749       0.82677056
C        0.10048707      -0.38340506       0.79591534
C        0.64293018      -1.09350895      -0.38009630
N        1.09088888       0.27435085      -0.61989667
H       -0.90268192       1.38618651       1.42551502
H       -1.98718752       0.02266278       1.00567381
H        0.61577567      -0.58433764       1.72888527
H        0.00358205      -1.42656339      -1.19030440
H        1.45145289      -1.79334295      -0.19294447
H        2.03452313       0.48250404      -0.32743905
12
Frame=15 idx=003838 GeodesicLength=1.7221898303944185 rxn_smarts="[N:1]#[C:2][C:3]([C@@:4]1([H:9])[C:5]([H:10])([H:11])[N:6]1[H:12])([H:7])[H:8]>>[N:1]#[C:2][N:6]([C:5]([C:4](=[C:3]([H:7])[H:8])[H:9])([H:10])[H:11])[H:12]"
N       -1.38111046       1.49462988      -1.99830070
C       -0.72079288       1.10845832      -1.13031611
C       -1.01872349       0.49096065       0.83791888
C        0.09440377      -0.38323397       0.78346873
C        0.65117341      -1.08669714      -0.39112197
N        1.11860834       0.27765896      -0.61105750
H       -0.87343701       1.39995227       1.42131549
H       -1.98403168       0.04476887       1.05222145
H        0.59003290      -0.61484448       1.72057535
H        0.02869353      -1.40313923      -1.22044071
H        1.44715199      -1.79873644      -0.19612773
H        2.04803158       0.47022232      -0.26813518
12
Frame=16 idx=003838 GeodesicLength=1.8368611487559152 rxn_smarts="[N:1]#[C:2][C:3]([C@@:4]1([H:9])[C:5]([H:10])([H:11])[N:6]1[H:12])([H:7])[H:8]>>[N:1]#[C:2][N:6]([C:5]([C:4](=[C:3]([H:7])[H:8])[H:9])([H:10])[H:11])[H:12]"
N       -1.43180603       1.45978892      -2.02337390
C       -0.74572647       1.11316420      -1.16154503
C       -1.01593509       0.49833607       0.84920773
C        0.08820677      -0.38250708       0.77072270
C        0.65974199      -1.07915287      -0.40218810
N        1.14789285       0.28094601      -0.60048174
H       -0.84436197       1.41366741       1.41599602
H       -1.97920994       0.06745673       1.09951013
H        0.56300621      -0.64554553       1.71096192
H        0.05540090      -1.37795342      -1.25079166
H        1.44200583      -1.80423118      -0.19959569
H        2.06078495       0.45603074      -0.20842238
