16
Frame=0 idx=009861 GeodesicLength=0.0 rxn_smarts="[O:1]([C@@:2]1([H:9])[C:3]([H:10])([H:11])[C@:4]2([C:5]([H:12])([H:13])[N:6]2[H:14])[C:7]1([H:15])[H:16])[H:8]>>[O:1]([C:2][C:3]([C@@:4]1([C:7]([H:9])([H:15])[H:16])[C:5]([H:12])([H:13])[N:6]1[H:14])([H:10])[H:11])[H:8]"
O       -2.65396972      -0.78173309       0.40716546
C       -1.61036689      -0.47996683      -0.36518086
C       -0.87512924       0.80552380      -0.05474905
C        0.52920103       0.25467217      -0.02336051
C        1.56049266       0.56357963      -1.02980556
N        1.66583046       1.08070259       0.33828525
C        0.26118747      -1.13620981       0.45277414
H       -2.70866839      -0.19496906       1.17577829
H       -0.79874012      -1.37708746      -0.49411960
H       -1.12666537       1.18083695       0.95215860
H       -1.07720398       1.60345373      -0.77049864
H        1.36527828       1.31448181      -1.78661700
H        2.22769104      -0.23470095      -1.33710443
H        2.33466802       0.54065304       0.87433383
H        0.94829887      -1.93148390       0.16386259
H       -0.04190416      -1.20775261       1.49707754
16
Frame=1 idx=009861 GeodesicLength=0.10283814689502549 rxn_smarts="[O:1]([C@@:2]1([H:9])[C:3]([H:10])([H:11])[C@:4]2([C:5]([H:12])([H:13])[N:6]2[H:14])[C:7]1([H:15])[H:16])[H:8]>>[O:1]([C:2][C:3]([C@@:4]1([C:7]([H:9])([H:15])[H:16])[C:5]([H:12])([H:13])[N:6]1[H:14])([H:10])[H:11])[H:8]"
O       -2.64903402      -0.75615914       0.50232162
C       -1.64278154      -0.49121663      -0.33238631
C       -0.88731820       0.79909485      -0.10463378
C        0.51378567       0.24473583      -0.04431848
C        1.57910223       0.58218491      -1.00391379
N        1.63079019       1.07125350       0.37777555
C        0.25032160      -1.15411266       0.41104903
H       -2.62564334      -0.17393315       1.27706633
H       -0.82580905      -1.40265536      -0.51718359
H       -1.13617172       1.24919238       0.87093953
H       -1.09155664       1.54788847      -0.87122995
H        1.41109222       1.34917755      -1.75104182
H        2.26541793      -0.20289611      -1.30292979
H        2.28827967       0.52707001       0.92346003
H        0.94025950      -1.93967931       0.10272518
H       -0.02073450      -1.24994515       1.46230023
16
Frame=2 idx=009861 GeodesicLength=0.20523171416275388 rxn_smarts="[O:1]([C@@:2]1([H:9])[C:3]([H:10])([H:11])[C@:4]2([C:5]([H:12])([H:13])[N:6]2[H:14])[C:7]1([H:15])[H:16])[H:8]>>[O:1]([C:2][C:3]([C@@:4]1([C:7]([H:9])([H:15])[H:16])[C:5]([H:12])([H:13])[N:6]1[H:14])([H:10])[H:11])[H:8]"
O       -2.63584677      -0.72436953       0.60362127
C       -1.67400059      -0.50161033      -0.29507142
C       -0.90020544       0.79012032      -0.15612771
C        0.49802507       0.23438686      -0.06483227
C        1.59575972       0.60227333      -0.97440080
N        1.59161073       1.06076577       0.41892669
C        0.23975961      -1.17321377       0.36690119
H       -2.53273092      -0.14319137       1.37377355
H       -0.85625301      -1.42896803      -0.53770648
H       -1.14786442       1.31600221       0.78017098
H       -1.10582668       1.48245089      -0.97385816
H        1.45360606       1.38588067      -1.70954423
H        2.30180990      -0.16851024      -1.26443911
H        2.23761839       0.51218497       0.97372833
H        0.93188903      -1.94736702       0.03528425
H        0.00264932      -1.29683471       1.42357391
16
Frame=3 idx=009861 GeodesicLength=0.307399338581915 rxn_smarts="[O:1]([C@@:2]1([H:9])[C:3]([H:10])([H:11])[C@:4]2([C:5]([H:12])([H:13])[N:6]2[H:14])[C:7]1([H:15])[H:16])[H:8]>>[O:1]([C:2][C:3]([C@@:4]1([C:7]([H:9])([H:15])[H:16])[C:5]([H:12])([H:13])[N:6]1[H:14])([H:10])[H:11])[H:8]"
O       -2.61310052      -0.68556465       0.70942302
C       -1.70325954      -0.51045709      -0.25338517
C       -0.91367086       0.77855316      -0.20873485
C        0.48204096       0.22371747      -0.08465730
C        1.61002188       0.62381470      -0.94117532
N        1.54832658       1.04906611       0.46154598
C        0.22939200      -1.19324876       0.32055244
H       -2.42966601      -0.10268573       1.46435968
H       -0.89000543      -1.45596350      -0.55502010
H       -1.16160014       1.37953899       0.68019906
H       -1.11975375       1.40683666      -1.07662006
H        1.49171930       1.42440672      -1.66210115
H        2.33614342      -0.13169781      -1.22160275
H        2.18280003       0.49568763       1.02475323
H        0.92298801      -1.95398198      -0.03814845
H        0.02762406      -1.34802190       1.38061174
16
Frame=4 idx=009861 GeodesicLength=0.4097478243621117 rxn_smarts="[O:1]([C@@:2]1([H:9])[C:3]([H:10])([H:11])[C@:4]2([C:5]([H:12])([H:13])[N:6]2[H:14])[C:7]1([H:15])[H:16])[H:8]>>[O:1]([C:2][C:3]([C@@:4]1([C:7]([H:9])([H:15])[H:16])[C:5]([H:12])([H:13])[N:6]1[H:14])([H:10])[H:11])[H:8]"
O       -2.57989822      -0.63970667       0.81706778
C       -1.72964174      -0.51706357      -0.20796664
C       -0.92748439       0.76448608      -0.26147994
C        0.46607919       0.21285650      -0.10364716
C        1.62147488       0.64655361      -0.90457382
N        1.50133999       1.03604692       0.50498372
C        0.21910576      -1.21375152       0.27263400
H       -2.31742353      -0.05282203       1.54635869
H       -0.92652618      -1.48353245      -0.56847844
H       -1.17685511       1.43750789       0.57280529
H       -1.13315850       1.32198342      -1.17655918
H        1.52438038       1.46427037      -1.60926922
H        2.36753366      -0.09301986      -1.17489128
H        2.12435383       0.47740133       1.07569814
H        0.91342292      -1.95886476      -0.11631255
H        0.05329707      -1.40234526       1.33363060
16
Frame=5 idx=009861 GeodesicLength=0.5128871069297984 rxn_smarts="[O:1]([C@@:2]1([H:9])[C:3]([H:10])([H:11])[C@:4]2([C:5]([H:12])([H:13])[N:6]2[H:14])[C:7]1([H:15])[H:16])[H:8]>>[O:1]([C:2][C:3]([C@@:4]1([C:7]([H:9])([H:15])[H:16])[C:5]([H:12])([H:13])[N:6]1[H:14])([H:10])[H:11])[H:8]"
O       -2.53656631      -0.58746605       0.92252622
C       -1.75223364      -0.52072411      -0.16022113
C       -0.94129364       0.74848028      -0.31288988
C        0.45052207       0.20209276      -0.12168084
C        1.62984522       0.66991345      -0.86549780
N        1.45168523       1.02178252       0.54810490
C        0.20876981      -1.23395923       0.22437061
H       -2.19837865       0.00399506       1.61734276
H       -0.96461949      -1.51140906      -0.57768746
H       -1.19276161       1.48778930       0.46152150
H       -1.14586139       1.23040688      -1.27011894
H        1.55068082       1.50440308      -1.55257289
H        2.39515310      -0.05354848      -1.12539155
H        2.06353086       0.45740223       1.12523121
H        0.90313375      -1.96141195      -0.19671583
H        0.07839386      -1.45774667       1.28367911
16
Frame=6 idx=009861 GeodesicLength=0.6174117804612452 rxn_smarts="[O:1]([C@@:2]1([H:9])[C:3]([H:10])([H:11])[C@:4]2([C:5]([H:12])([H:13])[N:6]2[H:14])[C:7]1([H:15])[H:16])[H:8]>>[O:1]([C:2][C:3]([C@@:4]1([C:7]([H:9])([H:15])[H:16])[C:5]([H:12])([H:13])[N:6]1[H:14])([H:10])[H:11])[H:8]"
O       -2.48473848      -0.53070541       1.02161189
C       -1.77047303      -0.52113451      -0.11200823
C       -0.95471876       0.73132317      -0.36143946
C        0.43581639       0.19172839      -0.13875501
C        1.63509172       0.69316311      -0.82528018
N        1.40094784       1.00645538       0.58956617
C        0.19829174      -1.25310471       0.17730808
H       -2.07596500       0.06455705       1.67537556
H       -1.00271736      -1.53926018      -0.58289419
H       -1.20830595       1.52906325       0.35072549
H       -1.15800458       1.13593544      -1.35402686
H        1.57039146       1.54377931      -1.49390974
H        2.41822996      -0.01467162      -1.07482629
H        2.00216565       0.43592670       1.17189788
H        0.89227885      -1.96137218      -0.27589140
H        0.10170954      -1.51168321       1.23254628
16
Frame=7 idx=009861 GeodesicLength=0.7235490205044237 rxn_smarts="[O:1]([C@@:2]1([H:9])[C:3]([H:10])([H:11])[C@:4]2([C:5]([H:12])([H:13])[N:6]2[H:14])[C:7]1([H:15])[H:16])[H:8]>>[O:1]([C:2][C:3]([C@@:4]1([C:7]([H:9])([H:15])[H:16])[C:5]([H:12])([H:13])[N:6]1[H:14])([H:10])[H:11])[H:8]"
O       -2.42709123      -0.47157926       1.11114373
C       -1.78423551      -0.51833190      -0.06502362
C       -0.96741989       0.71394628      -0.40583960
C        0.42233001       0.18208457      -0.15484103
C        1.63754383       0.71551497      -0.78534452
N        1.35069551       0.99042460       0.62812259
C        0.18767741      -1.27050278       0.13284220
H       -1.95442330       0.12518368       1.72015710
H       -1.03905241      -1.56666380      -0.58487366
H       -1.22267660       1.56125402       0.24464331
H       -1.16962723       1.04238846      -1.42625100
H        1.58397472       1.58114032      -1.43546842
H        2.43678396       0.02237403      -1.02489688
H        1.94201893       0.41353176       1.21438268
H        0.88118601      -1.95878613      -0.35087460
H        0.12231580      -1.56197882       1.18212171
16
Frame=8 idx=009861 GeodesicLength=0.8312344844039119 rxn_smarts="[O:1]([C@@:2]1([H:9])[C:3]([H:10])([H:11])[C@:4]2([C:5]([H:12])([H:13])[N:6]2[H:14])[C:7]1([H:15])[H:16])[H:8]>>[O:1]([C:2][C:3]([C@@:4]1([C:7]([H:9])([H:15])[H:16])[C:5]([H:12])([H:13])[N:6]1[H:14])([H:10])[H:11])[H:8]"
O       -2.36635402      -0.41224502       1.18969827
C       -1.79399847      -0.51277478      -0.02046688
C       -0.97926586       0.69707405      -0.44560842
C        0.41026443       0.17334995      -0.16991937
C        1.63766286       0.73653505      -0.74671515
N        1.30239311       0.97404152       0.66317479
C        0.17694737      -1.28592681       0.09187104
H       -1.83671433       0.18327897       1.75260534
H       -1.07265856      -1.59340563      -0.58481416
H       -1.23540347       1.58546191       0.14570320
H       -1.18111380       0.95267212      -1.48659752
H        1.59233656       1.61602757      -1.37864678
H        2.45105342       0.05684495      -0.97695159
H        1.88473089       0.39066692       1.25216478
H        0.87020194      -1.95416350      -0.41947399
H        0.13991792      -1.60743727       1.13397645
16
Frame=9 idx=009861 GeodesicLength=0.9401744639255447 rxn_smarts="[O:1]([C@@:2]1([H:9])[C:3]([H:10])([H:11])[C@:4]2([C:5]([H:12])([H:13])[N:6]2[H:14])[C:7]1([H:15])[H:16])[H:8]>>[O:1]([C:2][C:3]([C@@:4]1([C:7]([H:9])([H:15])[H:16])[C:5]([H:12])([H:13])[N:6]1[H:14])([H:10])[H:11])[H:8]"
O       -2.30476646      -0.35398729       1.25741249
C       -1.80027829      -0.50494094       0.02119595
C       -0.99014282       0.68114333      -0.48071058
C        0.39961900       0.16560730      -0.18393300
C        1.63593032       0.75593786      -0.71003351
N        1.25668863       0.95757964       0.69456674
C        0.16620045      -1.29929152       0.05467156
H       -1.72502882       0.23725273       1.77470298
H       -1.10277869      -1.61931986      -0.58380806
H       -1.24637366       1.60314273       0.05498636
H       -1.19238860       0.86818242      -1.53590564
H        1.59652447       1.64808001      -1.32433358
H        2.46167402       0.08845263      -0.93182108
H        1.83093268       0.36775849       1.28513736
H        0.85966520      -1.94792505      -0.48103248
H        0.15452258      -1.64767248       1.08890448
16
Frame=10 idx=009861 GeodesicLength=1.0500920489640362 rxn_smarts="[O:1]([C@@:2]1([H:9])[C:3]([H:10])([H:11])[C@:4]2([C:5]([H:12])([H:13])[N:6]2[H:14])[C:7]1([H:15])[H:16])[H:8]>>[O:1]([C:2][C:3]([C@@:4]1([C:7]([H:9])([H:15])[H:16])[C:5]([H:12])([H:13])[N:6]1[H:14])([H:10])[H:11])[H:8]"
O       -2.24388768      -0.29781687       1.31520984
C       -1.80384421      -0.49540956       0.05980923
C       -1.00014180       0.66639783      -0.51157170
C        0.39031480       0.15885864      -0.19681911
C        1.63280953       0.77379494      -0.67552961
N        1.21420261       0.94131056       0.72258163
C        0.15545334      -1.31085605       0.02122870
H       -1.62015817       0.28663332       1.78839221
H       -1.12952984      -1.64455137      -0.58286012
H       -1.25563773       1.61588578      -0.02774444
H       -1.20373020       0.78954947      -1.57569965
H        1.59744250       1.67756052      -1.27283598
H        2.46925213       0.11730665      -0.88984709
H        1.78129458       0.34508190       1.31375173
H        0.84972420      -1.94068240      -0.53542174
H        0.16643593      -1.68306337       1.04735611
16
Frame=11 idx=009861 GeodesicLength=1.1607141456975505 rxn_smarts="[O:1]([C@@:2]1([H:9])[C:3]([H:10])([H:11])[C@:4]2([C:5]([H:12])([H:13])[N:6]2[H:14])[C:7]1([H:15])[H:16])[H:8]>>[O:1]([C:2][C:3]([C@@:4]1([C:7]([H:9])([H:15])[H:16])[C:5]([H:12])([H:13])[N:6]1[H:14])([H:10])[H:11])[H:8]"
O       -2.18474328      -0.24399263       1.36439392
C       -1.80523899      -0.48455664       0.09557516
C       -1.00929171       0.65289172      -0.53864710
C        0.38219068       0.15305524      -0.20853480
C        1.62864328       0.79017245      -0.64326844
N        1.17497090       0.92536955       0.74757642
C        0.14476040      -1.32079013      -0.00874156
H       -1.52245970       0.33133110       1.79564797
H       -1.15294017      -1.66919924      -0.58263266
H       -1.26334973       1.62491408      -0.10310935
H       -1.21498907       0.71657230      -1.60742567
H        1.59584557       1.70462440      -1.22419908
H        2.47439551       0.14363335      -0.85114670
H        1.73576330       0.32281452       1.33844177
H        0.84049460      -1.93274503      -0.58321511
H        0.17594840      -1.71409503       1.00928523
16
Frame=12 idx=009861 GeodesicLength=1.2718431562019181 rxn_smarts="[O:1]([C@@:2]1([H:9])[C:3]([H:10])([H:11])[C@:4]2([C:5]([H:12])([H:13])[N:6]2[H:14])[C:7]1([H:15])[H:16])[H:8]>>[O:1]([C:2][C:3]([C@@:4]1([C:7]([H:9])([H:15])[H:16])[C:5]([H:12])([H:13])[N:6]1[H:14])([H:10])[H:11])[H:8]"
O       -2.12790124      -0.19272848       1.40626561
C       -1.80498616      -0.47274490       0.12871815
C       -1.01769167       0.64061628      -0.56244926
C        0.37508668       0.14812141      -0.21905657
C        1.62371592       0.80524074      -0.61317832
N        1.13904060       0.90988802       0.76999185
C        0.13412414      -1.32936579      -0.03554986
H       -1.43176752       0.37174130       1.79803650
H       -1.17332105      -1.69350068      -0.58370068
H       -1.26967151       1.63123774      -0.17199015
H       -1.22620434       0.64896001      -1.63245234
H        1.59229502       1.72959444      -1.17832975
H        2.47758754       0.16773150      -0.81564630
H        1.69433161       0.30106871       1.35977849
H        0.83199060      -1.92444357      -0.62500935
H        0.18337139      -1.74141673       0.97457198
16
Frame=13 idx=009861 GeodesicLength=1.383249277779937 rxn_smarts="[O:1]([C@@:2]1([H:9])[C:3]([H:10])([H:11])[C@:4]2([C:5]([H:12])([H:13])[N:6]2[H:14])[C:7]1([H:15])[H:16])[H:8]>>[O:1]([C:2][C:3]([C@@:4]1([C:7]([H:9])([H:15])[H:16])[C:5]([H:12])([H:13])[N:6]1[H:14])([H:10])[H:11])[H:8]"
O       -2.07366412      -0.14395913       1.44198890
C       -1.80346175      -0.46019291       0.15954470
C       -1.02541704       0.62948275      -0.58338804
C        0.36884004       0.14396299      -0.22838644
C        1.61822453       0.81910818      -0.58513563
N        1.10625922       0.89489203       0.79018249
C        0.12356433      -1.33673837      -0.05954012
H       -1.34776888       0.40831490       1.79678840
H       -1.19088168      -1.71758979      -0.58642994
H       -1.27477610       1.63551286      -0.23520982
H       -1.23730448       0.58623282      -1.65181791
H        1.58720492       1.75264661      -1.13503056
H        2.47922182       0.18986521      -0.78319921
H        1.65675486       0.27988169       1.37817942
H        0.82422988      -1.91589613      -0.66147104
H        0.18897444      -1.76552371       0.94292478
16
Frame=14 idx=009861 GeodesicLength=1.494768206382428 rxn_smarts="[O:1]([C@@:2]1([H:9])[C:3]([H:10])([H:11])[C@:4]2([C:5]([H:12])([H:13])[N:6]2[H:14])[C:7]1([H:15])[H:16])[H:8]>>[O:1]([C:2][C:3]([C@@:4]1([C:7]([H:9])([H:15])[H:16])[C:5]([H:12])([H:13])[N:6]1[H:14])([H:10])[H:11])[H:8]"
O       -2.02217839      -0.09750432       1.47257273
C       -1.80099964      -0.44705552       0.18832352
C       -1.03255650       0.61941814      -0.60185755
C        0.36329937       0.14050231      -0.23655052
C        1.61233196       0.83192543      -0.55900691
N        1.07647814       0.88042204       0.80849025
C        0.11305629      -1.34307635      -0.08100977
H       -1.26995652       0.44136589       1.79292496
H       -1.20586173      -1.74163910      -0.59109354
H       -1.27880382       1.63827107      -0.29357471
H       -1.24825007       0.52790001      -1.66643991
H        1.58090337       1.77401661      -1.09412920
H        2.47961619       0.21030189      -0.75362853
H        1.62281000       0.25928058       1.39406640
H        0.81716610      -1.90722967      -0.69318291
H        0.19294527      -1.78689901       0.91409570
16
Frame=15 idx=009861 GeodesicLength=1.6062636092289626 rxn_smarts="[O:1]([C@@:2]1([H:9])[C:3]([H:10])([H:11])[C@:4]2([C:5]([H:12])([H:13])[N:6]2[H:14])[C:7]1([H:15])[H:16])[H:8]>>[O:1]([C:2][C:3]([C@@:4]1([C:7]([H:9])([H:15])[H:16])[C:5]([H:12])([H:13])[N:6]1[H:14])([H:10])[H:11])[H:8]"
O       -1.97344715      -0.05317174       1.49888243
C       -1.79784856      -0.43344404       0.21531556
C       -1.03918746       0.61033588      -0.61817884
C        0.35833104       0.13765734      -0.24359467
C        1.60615504       0.84381033      -0.53465508
N        1.04950083       0.86649217       0.82519989
C        0.10257669      -1.34851972      -0.10023312
H       -1.19781263       0.47128930       1.78722757
H       -1.21843356      -1.76580621      -0.59793120
H       -1.28187523       1.63987908      -0.34776115
H       -1.25902079       0.47353670      -1.67703869
H        1.57363450       1.79387876      -1.05545841
H        2.47901136       0.22925576      -0.72674640
H        1.59221630       0.23927207       1.40779606
H        0.81076301      -1.89852476      -0.72065444
H        0.19543659      -1.80594092       0.88783049
16
Frame=16 idx=009861 GeodesicLength=1.7176295061892493 rxn_smarts="[O:1]([C@@:2]1([H:9])[C:3]([H:10])([H:11])[C@:4]2([C:5]([H:12])([H:13])[N:6]2[H:14])[C:7]1([H:15])[H:16])[H:8]>>[O:1]([C:2][C:3]([C@@:4]1([C:7]([H:9])([H:15])[H:16])[C:5]([H:12])([H:13])[N:6]1[H:14])([H:10])[H:11])[H:8]"
O       -1.92738408      -0.01074760       1.52165181
C       -1.79420443      -0.41943037       0.24076595
C       -1.04538661       0.60215163      -0.63262233
C        0.35381667       0.13535187      -0.24957743
C        1.59978147       0.85486630      -0.51194505
N        1.02511973       0.85310416       0.84055149
C        0.09209269      -1.35318918      -0.11745298
H       -1.13080589       0.49845598       1.78030130
H       -1.22871939      -1.79023711      -0.60715170
H       -1.28409945       1.64060014      -0.39834939
H       -1.26961884       0.42276159      -1.68419903
H        1.56558836       1.81238190      -1.01886334
H        2.47759516       0.24690747      -0.70236097
H        1.56468474       0.21984980       1.41967550
H        0.80497927      -1.88984067      -0.74431708
H        0.19656061      -1.82298592       0.86389325
