12
Frame=0 idx=004518 GeodesicLength=0.0 rxn_smarts="[O:1]([C@@:2]1([H:8])[C@@:3]2([H:9])[C:4]([H:10])([H:11])[O:5][C@@:6]12[H:12])[H:7]>>[C@:2]12([H:8])[C@:3]3([H:9])[C@@:4]1([H:10])[O:5][C@:6]23[H:12].[O:1]([H:7])[H:11]"
O       -1.22135611       0.40258933      -1.59907229
C        0.01465402       0.87323680      -0.06443513
C       -0.19665926       0.09090117       1.11120887
C       -0.16856329      -1.18370808       0.25261820
O        1.27623886      -1.16920468       0.16231374
C        1.21753150       0.14849799       0.52655246
H       -0.72353727       0.46118553      -2.42272909
H       -0.11624809       1.92519679      -0.26967146
H       -0.64638583       0.34422113       2.06321669
H       -0.62163187      -2.09838903       0.61933411
H       -0.93032076      -0.48995167      -1.16045390
H        2.11627810       0.69542473       0.78111785
12
Frame=1 idx=004518 GeodesicLength=0.10026156711351118 rxn_smarts="[O:1]([C@@:2]1([H:8])[C@@:3]2([H:9])[C:4]([H:10])([H:11])[O:5][C@@:6]12[H:12])[H:7]>>[C@:2]12([H:8])[C@:3]3([H:9])[C@@:4]1([H:10])[O:5][C@:6]23[H:12].[O:1]([H:7])[H:11]"
O       -1.18952736       0.41110137      -1.62990740
C       -0.01186693       0.87750769      -0.05057846
C       -0.18948757       0.09012464       1.13083408
C       -0.18762899      -1.17114024       0.25738618
O        1.25266097      -1.15518904       0.11031230
C        1.20635104       0.15754968       0.50859701
H       -0.62051759       0.42069476      -2.40895854
H       -0.15216358       1.93309333      -0.23104687
H       -0.61202536       0.33653521       2.09681187
H       -0.62958464      -2.09018388       0.62662794
H       -0.97967126      -0.50832412      -1.15591541
H        2.11346127       0.69823058       0.74583731
12
Frame=2 idx=004518 GeodesicLength=0.20048183917305934 rxn_smarts="[O:1]([C@@:2]1([H:8])[C@@:3]2([H:9])[C:4]([H:10])([H:11])[O:5][C@@:6]12[H:12])[H:7]>>[C@:2]12([H:8])[C@:3]3([H:9])[C@@:4]1([H:10])[O:5][C@:6]23[H:12].[O:1]([H:7])[H:11]"
O       -1.15685022       0.41688183      -1.65801597
C       -0.03632574       0.88139649      -0.03747871
C       -0.18178898       0.08935345       1.14884088
C       -0.20593483      -1.15807918       0.26095692
O        1.22837674      -1.14130976       0.06292094
C        1.19547119       0.16645939       0.49189671
H       -0.52706546       0.38176062      -2.38859363
H       -0.18613038       1.93935674      -0.19564768
H       -0.57856338       0.32900835       2.12702481
H       -0.63815439      -2.08093673       0.63174656
H       -1.02320414      -0.52492934      -1.15596308
H        2.11016960       0.70103813       0.71231226
12
Frame=3 idx=004518 GeodesicLength=0.30076716336625814 rxn_smarts="[O:1]([C@@:2]1([H:8])[C@@:3]2([H:9])[C:4]([H:10])([H:11])[O:5][C@@:6]12[H:12])[H:7]>>[C@:2]12([H:8])[C@:3]3([H:9])[C@@:4]1([H:10])[O:5][C@:6]23[H:12].[O:1]([H:7])[H:11]"
O       -1.12433426       0.42057905      -1.68337636
C       -0.05875291       0.88475839      -0.02536822
C       -0.17370264       0.08867083       1.16534901
C       -0.22351895      -1.14481904       0.26379069
O        1.20391964      -1.12793527       0.02003776
C        1.18503940       0.17515506       0.47639179
H       -0.44302932       0.34572840      -2.36343817
H       -0.21811837       1.94419636      -0.16297670
H       -0.54614845       0.32201791       2.15417271
H       -0.64740479      -2.07095229       0.63546872
H       -1.06059169      -0.54123343      -1.16056859
H        2.10664233       0.70383402       0.68051735
12
Frame=4 idx=004518 GeodesicLength=0.4012966111906393 rxn_smarts="[O:1]([C@@:2]1([H:8])[C@@:3]2([H:9])[C:4]([H:10])([H:11])[O:5][C@@:6]12[H:12])[H:7]>>[C@:2]12([H:8])[C@:3]3([H:9])[C@@:4]1([H:10])[O:5][C@:6]23[H:12].[O:1]([H:7])[H:11]"
O       -1.09257007       0.42289529      -1.70618152
C       -0.07931343       0.88763858      -0.01429597
C       -0.16537315       0.08811919       1.18055940
C       -0.24044067      -1.13161525       0.26622175
O        1.17970602      -1.11534571      -0.01871232
C        1.17515618       0.18362327       0.46194472
H       -0.36765223       0.31325310      -2.33506509
H       -0.24811954       1.94799052      -0.13259806
H       -0.51490296       0.31572873       2.17870864
H       -0.65737199      -2.06058648       0.63839402
H       -1.09222212      -0.55834784      -1.16927454
H        2.10310397       0.70664661       0.65029898
12
Frame=5 idx=004518 GeodesicLength=0.5019723164550294 rxn_smarts="[O:1]([C@@:2]1([H:8])[C@@:3]2([H:9])[C:4]([H:10])([H:11])[O:5][C@@:6]12[H:12])[H:7]>>[C@:2]12([H:8])[C@:3]3([H:9])[C@@:4]1([H:10])[O:5][C@:6]23[H:12].[O:1]([H:7])[H:11]"
O       -1.06178695       0.42441505      -1.72667597
C       -0.09818386       0.89002057      -0.00421477
C       -0.15681708       0.08769578       1.19454654
C       -0.25671172      -1.11841059       0.26837083
O        1.15592253      -1.10349920      -0.05373776
C        1.16580725       0.19184522       0.44847446
H       -0.30009739       0.28419737      -2.30458006
H       -0.27621872       1.95079197      -0.10407769
H       -0.48473027       0.31011563       2.20082514
H       -0.66790466      -2.04974341       0.64075500
H       -1.11885000      -0.57678518      -1.18138757
H        2.09957087       0.70935680       0.62170185
12
Frame=6 idx=004518 GeodesicLength=0.6027432032572222 rxn_smarts="[O:1]([C@@:2]1([H:8])[C@@:3]2([H:9])[C:4]([H:10])([H:11])[O:5][C@@:6]12[H:12])[H:7]>>[C@:2]12([H:8])[C@:3]3([H:9])[C@@:4]1([H:10])[O:5][C@:6]23[H:12].[O:1]([H:7])[H:11]"
O       -1.03202291       0.42548444      -1.74521442
C       -0.11558415       0.89200811       0.00500408
C       -0.14808277       0.08738501       1.20749709
C       -0.27243657      -1.10520727       0.27033393
O        1.13260784      -1.09237351      -0.08548081
C        1.15692402       0.19985042       0.43588148
H       -0.23935241       0.25835348      -2.27278117
H       -0.30254296       1.95280400      -0.07706125
H       -0.45544801       0.30506886       2.22093537
H       -0.67897085      -2.03848309       0.64276565
H       -1.14114704      -0.59685066      -1.19637537
H        2.09605582       0.71196022       0.59449543
12
Frame=7 idx=004518 GeodesicLength=0.7035872916255789 rxn_smarts="[O:1]([C@@:2]1([H:8])[C@@:3]2([H:9])[C:4]([H:10])([H:11])[O:5][C@@:6]12[H:12])[H:7]>>[C@:2]12([H:8])[C@:3]3([H:9])[C@@:4]1([H:10])[O:5][C@:6]23[H:12].[O:1]([H:7])[H:11]"
O       -1.00329903       0.42637275      -1.76202268
C       -0.13166634       0.89370421       0.01346694
C       -0.13921579       0.08717773       1.21951924
C       -0.28769156      -1.09197428       0.27214015
O        1.10981066      -1.08192552      -0.11434363
C        1.14847894       0.20766058       0.42407198
H       -0.18463378       0.23540285      -2.24023812
H       -0.32721399       1.95419299      -0.05124635
H       -0.42697631       0.30050789       2.23928969
H       -0.69053324      -2.02681306       0.64452756
H       -1.15965872      -0.61872640      -1.21373968
H        2.09259916       0.71442026       0.56857492
12
Frame=8 idx=004518 GeodesicLength=0.8044717425670663 rxn_smarts="[O:1]([C@@:2]1([H:8])[C@@:3]2([H:9])[C:4]([H:10])([H:11])[O:5][C@@:6]12[H:12])[H:7]>>[C@:2]12([H:8])[C@:3]3([H:9])[C@@:4]1([H:10])[O:5][C@:6]23[H:12].[O:1]([H:7])[H:11]"
O       -0.97562100       0.42726855      -1.77728365
C       -0.14653672       0.89518405       0.02126622
C       -0.13022964       0.08706981       1.23068103
C       -0.30252973      -1.07863660       0.27377279
O        1.08753568      -1.07206488      -0.14066475
C        1.14043752       0.21529790       0.41298743
H       -0.13534546       0.21496292      -2.20737217
H       -0.35032809       1.95504072      -0.02637642
H       -0.39922423       0.29635402       2.25605464
H       -0.70253377      -2.01466514       0.64605311
H       -1.17483101      -0.64249705      -1.23305767
H        2.08920645       0.71668569       0.54393943
12
Frame=9 idx=004518 GeodesicLength=0.9054021310988947 rxn_smarts="[O:1]([C@@:2]1([H:8])[C@@:3]2([H:9])[C:4]([H:10])([H:11])[O:5][C@@:6]12[H:12])[H:7]>>[C@:2]12([H:8])[C@:3]3([H:9])[C@@:4]1([H:10])[O:5][C@:6]23[H:12].[O:1]([H:7])[H:11]"
O       -0.94899907       0.42828333      -1.79114632
C       -0.16031348       0.89657894       0.02849721
C       -0.12118904       0.08704879       1.24107596
C       -0.31704309      -1.06519540       0.27525163
O        1.06577961      -1.06277548      -0.16476214
C        1.13277327       0.22278540       0.40254018
H       -0.09088701       0.19684552      -2.17446312
H       -0.37196812       1.95555245      -0.00227345
H       -0.37215519       0.29252866       2.27144196
H       -0.71499856      -2.00210349       0.64741807
H       -1.18692858      -0.66829316      -1.25400480
H        2.08592927       0.71874444       0.52042483
12
Frame=10 idx=004518 GeodesicLength=1.006358624755357 rxn_smarts="[O:1]([C@@:2]1([H:8])[C@@:3]2([H:9])[C:4]([H:10])([H:11])[O:5][C@@:6]12[H:12])[H:7]>>[C@:2]12([H:8])[C@:3]3([H:9])[C@@:4]1([H:10])[O:5][C@:6]23[H:12].[O:1]([H:7])[H:11]"
O       -0.92344343       0.42951472      -1.80373956
C       -0.17306844       0.89796605       0.03523313
C       -0.11211125       0.08711045       1.25076165
C       -0.33127940      -1.05158734       0.27654915
O        1.04452322      -1.05397516      -0.18689985
C        1.12546402       0.23014373       0.39268528
H       -0.05084714       0.18074100      -2.14176495
H       -0.39220069       1.95580581       0.02123659
H       -0.34571916       0.28896198       2.28558314
H       -0.72789731      -1.98907614       0.64860566
H       -1.19620529      -0.69616095      -1.27628615
H        2.08278487       0.72055585       0.49803592
12
Frame=11 idx=004518 GeodesicLength=1.107331789168818 rxn_smarts="[O:1]([C@@:2]1([H:8])[C@@:3]2([H:9])[C:4]([H:10])([H:11])[O:5][C@@:6]12[H:12])[H:7]>>[C@:2]12([H:8])[C@:3]3([H:9])[C@@:4]1([H:10])[O:5][C@:6]23[H:12].[O:1]([H:7])[H:11]"
O       -0.89896432       0.43102726      -1.81516790
C       -0.18487303       0.89943362       0.04154222
C       -0.10302790       0.08724487       1.25978850
C       -0.34529807      -1.03777259       0.27764968
O        1.02373455      -1.04560566      -0.20731282
C        1.11848363       0.23739161       0.38336834
H       -0.01484151       0.16643167      -2.10943724
H       -0.41107995       1.95590823       0.04428809
H       -0.31988048       0.28558260       2.29859674
H       -0.74123067      -1.97556891       0.64961424
H       -1.20281548      -0.72616392      -1.29964568
H        2.07979322       0.72209123       0.47671583
12
Frame=12 idx=004518 GeodesicLength=1.208316807483175 rxn_smarts="[O:1]([C@@:2]1([H:8])[C@@:3]2([H:9])[C:4]([H:10])([H:11])[O:5][C@@:6]12[H:12])[H:7]>>[C@:2]12([H:8])[C@:3]3([H:9])[C@@:4]1([H:10])[O:5][C@:6]23[H:12].[O:1]([H:7])[H:11]"
O       -0.87557219       0.43287222      -1.82552420
C       -0.19578744       0.90106342       0.04748521
C       -0.09396688       0.08744260       1.26819861
C       -0.35915366      -1.02371245       0.27853132
O        1.00337894      -1.03760972      -0.22621177
C        1.11181106       0.24454836       0.37453942
H        0.01745501       0.15371476      -2.07760169
H       -0.42865079       1.95595600       0.06700277
H       -0.29461363       0.28232519       2.31058297
H       -0.75500472      -1.96156615       0.65042758
H       -1.20687221      -0.75836066      -1.32384929
H        2.07697649       0.72332643       0.45641907
12
Frame=13 idx=004518 GeodesicLength=1.3092941048527444 rxn_smarts="[O:1]([C@@:2]1([H:8])[C@@:3]2([H:9])[C:4]([H:10])([H:11])[O:5][C@@:6]12[H:12])[H:7]>>[C@:2]12([H:8])[C@:3]3([H:9])[C@@:4]1([H:10])[O:5][C@:6]23[H:12].[O:1]([H:7])[H:11]"
O       -0.85327802       0.43508656      -1.83489522
C       -0.20586700       0.90292447       0.05311372
C       -0.08495376       0.08768815       1.27602646
C       -0.37289591      -1.00936407       0.27917457
O        0.98340897      -1.02992665      -0.24377766
C        1.10541861       0.25162752       0.36615448
H        0.04632215       0.14243313      -2.04633865
H       -0.44494560       1.95602507       0.08947305
H       -0.26989131       0.27911824       2.32162451
H       -0.76922501      -1.94703918       0.65102912
H       -1.20843498      -0.79280500      -1.34867823
H        2.07434184       0.72423175       0.43709384
12
Frame=14 idx=004518 GeodesicLength=1.4102668937280602 rxn_smarts="[O:1]([C@@:2]1([H:8])[C@@:3]2([H:9])[C:4]([H:10])([H:11])[O:5][C@@:6]12[H:12])[H:7]>>[C@:2]12([H:8])[C@:3]3([H:9])[C@@:4]1([H:10])[O:5][C@:6]23[H:12].[O:1]([H:7])[H:11]"
O       -0.83208286       0.43772116      -1.84335852
C       -0.21515687       0.90508476       0.05847445
C       -0.07600993       0.08797075       1.28329881
C       -0.38656809      -0.99469080       0.27954899
O        0.96378896      -1.02250115      -0.26017978
C        1.09928911       0.25864874       0.35816899
H        0.07199206       0.13239901      -2.01572136
H       -0.45999416       1.95619002       0.11180097
H       -0.24570100       0.27590143       2.33179030
H       -0.78390087      -1.93197005       0.65138044
H       -1.20756147      -0.82954531      -1.37391449
H        2.07190511       0.72479144       0.41871120
12
Frame=15 idx=004518 GeodesicLength=1.5112278720737382 rxn_smarts="[O:1]([C@@:2]1([H:8])[C@@:3]2([H:9])[C:4]([H:10])([H:11])[O:5][C@@:6]12[H:12])[H:7]>>[C@:2]12([H:8])[C@:3]3([H:9])[C@@:4]1([H:10])[O:5][C@:6]23[H:12].[O:1]([H:7])[H:11]"
O       -0.81198400       0.44082326      -1.85099096
C       -0.22370122       0.90760189       0.06360676
C       -0.06715650       0.08827315       1.29003612
C       -0.40021102      -0.97965532       0.27962848
O        0.94447478      -1.01527879      -0.27556498
C        1.09339956       0.26562663       0.35054074
H        0.09467009       0.12346987      -1.98579456
H       -0.47381912       1.95651085       0.13406567
H       -0.22202803       0.27260796       2.34113667
H       -0.79904432      -1.91633369       0.65144749
H       -1.20427095      -0.86863151      -1.39934048
H        2.06967071       0.72498568       0.40122905
12
Frame=16 idx=004518 GeodesicLength=1.6121725397020166 rxn_smarts="[O:1]([C@@:2]1([H:8])[C@@:3]2([H:9])[C:4]([H:10])([H:11])[O:5][C@@:6]12[H:12])[H:7]>>[C@:2]12([H:8])[C@:3]3([H:9])[C@@:4]1([H:10])[O:5][C@:6]23[H:12].[O:1]([H:7])[H:11]"
O       -0.79296910       0.44444943      -1.85786730
C       -0.23154089       0.91052740       0.06854473
C       -0.05841317       0.08857638       1.29625311
C       -0.41386143      -0.96422359       0.27938463
O        0.92542451      -1.00820862      -0.29006742
C        1.08772871       0.27257559       0.34322794
H        0.11453435       0.11551411      -1.95659358
H       -0.48643967       1.95703957       0.15634050
H       -0.19886378       0.26917294       2.34970939
H       -0.81466914      -1.90010732       0.65119064
H       -1.19857198      -0.91011423      -1.42473032
H        2.06764159       0.72479834       0.38460769
