15
Frame=0 idx=007360 GeodesicLength=0.0 rxn_smarts="[C:1]1([H:8])([H:9])[C:2]([H:10])([H:11])[C:3]12[C:4]([H:12])([H:13])[C@@:5]1([H:14])[O:6][C@@:7]21[H:15]>>[C:1]1([H:8])([H:9])[C:2]([H:10])([H:11])[C:3]12[C:4]([H:12])([H:13])[C@:7]2([O+:6]=[C-:5][H:14])[H:15]"
C       -1.48895474       0.28639551      -0.91685801
C       -1.77888751       0.06663340       0.55359996
C       -0.40606347      -0.06586000       0.01811781
C        0.66865008      -1.06164634       0.04163667
C        2.42639519       0.16535910      -0.52589783
O        1.58065063       1.29401814      -0.54806572
C        0.85780425       0.57572025       0.37107011
H       -1.81578045      -0.47157334      -1.61690396
H       -1.51565151       1.30034508      -1.29374311
H       -2.00869401       0.93509557       1.15808563
H       -2.29931759      -0.83876186       0.83863242
H        0.80554508      -1.65792868       0.93488760
H        0.94483974      -1.53427854      -0.88569806
H        2.95858524       0.22030541       0.45623126
H        1.07087905       0.78617635       1.41490518
15
Frame=1 idx=007360 GeodesicLength=0.053383364914965134 rxn_smarts="[C:1]1([H:8])([H:9])[C:2]([H:10])([H:11])[C:3]12[C:4]([H:12])([H:13])[C@@:5]1([H:14])[O:6][C@@:7]21[H:15]>>[C:1]1([H:8])([H:9])[C:2]([H:10])([H:11])[C:3]12[C:4]([H:12])([H:13])[C@:7]2([O+:6]=[C-:5][H:14])[H:15]"
C       -1.48192866       0.28713282      -0.91858026
C       -1.77892333       0.06237593       0.54942641
C       -0.40188695      -0.06051379       0.02194748
C        0.67469806      -1.05700910       0.05174289
C        2.40318706       0.17776672      -0.54570732
O        1.57592218       1.31272506      -0.53206203
C        0.85696584       0.58540382       0.38725748
H       -1.79958720      -0.47108965      -1.62257267
H       -1.51046481       1.30163465      -1.29405450
H       -2.01785999       0.92803572       1.15440304
H       -2.29553763      -0.84684696       0.82932935
H        0.80124702      -1.65687574       0.94448586
H        0.94006985      -1.54499398      -0.87139666
H        2.96892909       0.17494400       0.41645191
H        1.06516947       0.80731050       1.42932901
15
Frame=2 idx=007360 GeodesicLength=0.10696632601547401 rxn_smarts="[C:1]1([H:8])([H:9])[C:2]([H:10])([H:11])[C:3]12[C:4]([H:12])([H:13])[C@@:5]1([H:14])[O:6][C@@:7]21[H:15]>>[C:1]1([H:8])([H:9])[C:2]([H:10])([H:11])[C:3]12[C:4]([H:12])([H:13])[C@:7]2([O+:6]=[C-:5][H:14])[H:15]"
C       -1.47441339       0.28797267      -0.92025341
C       -1.77878913       0.05810331       0.54515170
C       -0.39754285      -0.05525032       0.02606113
C        0.68079084      -1.05257439       0.06210187
C        2.37941372       0.19032770      -0.56440123
O        1.57149420       1.33090918      -0.51559198
C        0.85623317       0.59483794       0.40392135
H       -1.78275467      -0.47035317      -1.62827788
H       -1.50461707       1.30305128      -1.29423891
H       -2.02687812       0.92087509       1.15058045
H       -2.29165919      -0.85489589       0.81974451
H        0.79684384      -1.65601752       0.95423689
H        0.93560634      -1.55566982      -0.85651839
H        2.97763460       0.12992730       0.37333864
H        1.05863772       0.82875666       1.44414526
15
Frame=3 idx=007360 GeodesicLength=0.1606953826819429 rxn_smarts="[C:1]1([H:8])([H:9])[C:2]([H:10])([H:11])[C:3]12[C:4]([H:12])([H:13])[C@@:5]1([H:14])[O:6][C@@:7]21[H:15]>>[C:1]1([H:8])([H:9])[C:2]([H:10])([H:11])[C:3]12[C:4]([H:12])([H:13])[C@:7]2([O+:6]=[C-:5][H:14])[H:15]"
C       -1.46644510       0.28889848      -0.92187267
C       -1.77845916       0.05383121       0.54079996
C       -0.39302534      -0.05007514       0.03041740
C        0.68694336      -1.04834751       0.07264948
C        2.35525083       0.20295524      -0.58182627
O        1.56746918       1.34847743      -0.49873746
C        0.85561581       0.60401450       0.42099508
H       -1.76537822      -0.46939579      -1.63396331
H       -1.49817534       1.30457173      -1.29430895
H       -2.03569224       0.91364310       1.14663473
H       -2.28763693      -0.86288241       0.80996754
H        0.79236772      -1.65536916       0.96406645
H        0.93148033      -1.56623973      -0.84118400
H        2.98452734       0.08532036       0.32710126
H        1.05115776       0.85059771       1.45926076
15
Frame=4 idx=007360 GeodesicLength=0.21453384725346974 rxn_smarts="[C:1]1([H:8])([H:9])[C:2]([H:10])([H:11])[C:3]12[C:4]([H:12])([H:13])[C@@:5]1([H:14])[O:6][C@@:7]21[H:15]>>[C:1]1([H:8])([H:9])[C:2]([H:10])([H:11])[C:3]12[C:4]([H:12])([H:13])[C@:7]2([O+:6]=[C-:5][H:14])[H:15]"
C       -1.45805115       0.28990152      -0.92343622
C       -1.77792401       0.04956903       0.53638462
C       -0.38833510      -0.04500616       0.03500036
C        0.69316168      -1.04435217       0.08335718
C        2.33084019       0.21556118      -0.59786498
O        1.56391247       1.36535837      -0.48156197
C        0.85512957       0.61291543       0.43844819
H       -1.74753450      -0.46823575      -1.63959985
H       -1.49116546       1.30619013      -1.29427978
H       -2.04425936       0.90636720       1.14256981
H       -2.28346942      -0.87079158       0.80004852
H        0.78782753      -1.65497533       0.97393620
H        0.92767717      -1.57667753      -0.82547805
H        2.98952715       0.04129377       0.27787083
H        1.04266324       0.87288188       1.47460511
15
Frame=5 idx=007360 GeodesicLength=0.2684578782474687 rxn_smarts="[C:1]1([H:8])([H:9])[C:2]([H:10])([H:11])[C:3]12[C:4]([H:12])([H:13])[C@@:5]1([H:14])[O:6][C@@:7]21[H:15]>>[C:1]1([H:8])([H:9])[C:2]([H:10])([H:11])[C:3]12[C:4]([H:12])([H:13])[C@:7]2([O+:6]=[C-:5][H:14])[H:15]"
C       -1.44926753       0.29097349      -0.92494893
C       -1.77715912       0.04533049       0.53192536
C       -0.38346853      -0.04005234       0.03978399
C        0.69945974      -1.04061310       0.09418264
C        2.30633673       0.22805542      -0.61239908
O        1.56087232       1.38149716      -0.46413727
C        0.85478134       0.62154417       0.45624551
H       -1.72930593      -0.46690545      -1.64517503
H       -1.48364582       1.30790954      -1.29416575
H       -2.05252855       0.89908868       1.13841098
H       -2.27912014      -0.87861520       0.79004151
H        0.78325770      -1.65487841       0.98379830
H        0.92418874      -1.58697741      -0.80950748
H        2.99251050      -0.00204500       0.22584452
H        1.03308854       0.89568797       1.49010072
15
Frame=6 idx=007360 GeodesicLength=0.32233001777934844 rxn_smarts="[C:1]1([H:8])([H:9])[C:2]([H:10])([H:11])[C:3]12[C:4]([H:12])([H:13])[C@@:5]1([H:14])[O:6][C@@:7]21[H:15]>>[C:1]1([H:8])([H:9])[C:2]([H:10])([H:11])[C:3]12[C:4]([H:12])([H:13])[C@:7]2([O+:6]=[C-:5][H:14])[H:15]"
C       -1.44005761       0.29208676      -0.92634191
C       -1.77614157       0.04110867       0.52743235
C       -0.37842058      -0.03522329       0.04474580
C        0.70581516      -1.03707184       0.10508041
C        2.28190309       0.24034272      -0.62531030
O        1.55840780       1.39674959      -0.44654209
C        0.85454940       0.62985972       0.47431066
H       -1.71067271      -0.46539218      -1.65055499
H       -1.47556352       1.30964151      -1.29388704
H       -2.06046152       0.89175567       1.13413662
H       -2.27457991      -0.88630143       0.77998270
H        0.77858764      -1.65499946       0.99355006
H        0.92099986      -1.59701060      -0.79331938
H        2.99331733      -0.04454812       0.17117038
H        1.02231715       0.91900228       1.50554673
15
Frame=7 idx=007360 GeodesicLength=0.3762165674113999 rxn_smarts="[C:1]1([H:8])([H:9])[C:2]([H:10])([H:11])[C:3]12[C:4]([H:12])([H:13])[C@@:5]1([H:14])[O:6][C@@:7]21[H:15]>>[C:1]1([H:8])([H:9])[C:2]([H:10])([H:11])[C:3]12[C:4]([H:12])([H:13])[C@:7]2([O+:6]=[C-:5][H:14])[H:15]"
C       -1.43052342       0.29325508      -0.92768895
C       -1.77488294       0.03692570       0.52293185
C       -0.37319333      -0.03051041       0.04987158
C        0.71229280      -1.03379604       0.11603904
C        2.25772011       0.25237433      -0.63655682
O        1.55652466       1.41119019      -0.42882071
C        0.85445886       0.63791929       0.49267143
H       -1.69177052      -0.46375176      -1.65585677
H       -1.46708257       1.31146378      -1.29354464
H       -2.06807161       0.88446068       1.12981642
H       -2.26982295      -0.89388928       0.76992313
H        0.77395739      -1.65544469       1.00323197
H        0.91812496      -1.60687884      -0.77703397
H        2.99189221      -0.08626624       0.11404554
H        1.01037635       0.94294821       1.52097091
15
Frame=8 idx=007360 GeodesicLength=0.43012076305556507 rxn_smarts="[C:1]1([H:8])([H:9])[C:2]([H:10])([H:11])[C:3]12[C:4]([H:12])([H:13])[C@@:5]1([H:14])[O:6][C@@:7]21[H:15]>>[C:1]1([H:8])([H:9])[C:2]([H:10])([H:11])[C:3]12[C:4]([H:12])([H:13])[C@:7]2([O+:6]=[C-:5][H:14])[H:15]"
C       -1.42055510       0.29444801      -0.92891358
C       -1.77331730       0.03274368       0.51840172
C       -0.36776355      -0.02592613       0.05517497
C        0.71882743      -1.03073719       0.12707514
C        2.23382036       0.26413760      -0.64605735
O        1.55525743       1.42477533      -0.41096539
C        0.85449840       0.64570195       0.51129315
H       -1.67248768      -0.46198193      -1.66094874
H       -1.45803208       1.31330851      -1.29305243
H       -2.07526578       0.87712787       1.12537497
H       -2.26481689      -0.90138986       0.75983140
H        0.76924499      -1.65615085       1.01279470
H        0.91543709      -1.61650687      -0.76059575
H        2.98792922      -0.12705644       0.05442169
H        0.99722344       0.96750633       1.53616550
15
Frame=9 idx=007360 GeodesicLength=0.4840002860060768 rxn_smarts="[C:1]1([H:8])([H:9])[C:2]([H:10])([H:11])[C:3]12[C:4]([H:12])([H:13])[C@@:5]1([H:14])[O:6][C@@:7]21[H:15]>>[C:1]1([H:8])([H:9])[C:2]([H:10])([H:11])[C:3]12[C:4]([H:12])([H:13])[C@:7]2([O+:6]=[C-:5][H:14])[H:15]"
C       -1.41023296       0.29570059      -0.93005921
C       -1.77151803       0.02857558       0.51386524
C       -0.36214114      -0.02145897       0.06066133
C        0.72551296      -1.02791666       0.13821387
C        2.21041717       0.27554139      -0.65383359
O        1.55460525       1.43750190      -0.39302664
C        0.85467700       0.65322815       0.53020305
H       -1.65286500      -0.46005277      -1.66593195
H       -1.44855508       1.31523516      -1.29244675
H       -2.08217763       0.86977819       1.12088308
H       -2.25960360      -0.90880945       0.74971357
H        0.76458521      -1.65713247       1.02231698
H        0.91302062      -1.62596336      -0.74404259
H        2.98141832      -0.16695754      -0.00763049
H        0.98285690       0.99273025       1.55111411
15
Frame=10 idx=007360 GeodesicLength=0.5378024691689083 rxn_smarts="[C:1]1([H:8])([H:9])[C:2]([H:10])([H:11])[C:3]12[C:4]([H:12])([H:13])[C@@:5]1([H:14])[O:6][C@@:7]21[H:15]>>[C:1]1([H:8])([H:9])[C:2]([H:10])([H:11])[C:3]12[C:4]([H:12])([H:13])[C@:7]2([O+:6]=[C-:5][H:14])[H:15]"
C       -1.39954788       0.29699673      -0.93109971
C       -1.76942676       0.02439802       0.50932863
C       -0.35631054      -0.01709617       0.06628987
C        0.73232194      -1.02531732       0.14941343
C        2.18771411       0.28654322      -0.65975758
O        1.55459929       1.44937134      -0.37507903
C        0.85497687       0.66053957       0.54935181
H       -1.63292055      -0.45799679      -1.67075064
H       -1.43866408       1.31723266      -1.29168254
H       -2.08872718       0.86238210       1.11635141
H       -2.25410942      -0.91618818       0.73959419
H        0.75992860      -1.65837877       1.03173004
H        0.91081299      -1.63522135      -0.72743081
H        2.97209212      -0.20594014      -0.07189210
H        0.96726051       1.01867510       1.56563304
15
Frame=11 idx=007360 GeodesicLength=0.5916027452346163 rxn_smarts="[C:1]1([H:8])([H:9])[C:2]([H:10])([H:11])[C:3]12[C:4]([H:12])([H:13])[C@@:5]1([H:14])[O:6][C@@:7]21[H:15]>>[C:1]1([H:8])([H:9])[C:2]([H:10])([H:11])[C:3]12[C:4]([H:12])([H:13])[C@:7]2([O+:6]=[C-:5][H:14])[H:15]"
C       -1.38845975       0.29831087      -0.93204820
C       -1.76705037       0.02020959       0.50473588
C       -0.35025757      -0.01287470       0.07212382
C        0.73927195      -1.02294935       0.16077836
C        2.16565086       0.29712940      -0.66383404
O        1.55523354       1.46041546      -0.35696698
C        0.85544547       0.66761486       0.56884222
H       -1.61262185      -0.45583293      -1.67543222
H       -1.42823709       1.31926498      -1.29079358
H       -2.09489990       0.85495401       1.11167767
H       -2.24839540      -0.92351094       0.72938088
H        0.75527459      -1.65989104       1.04112141
H        0.90870862      -1.64435001      -0.71063703
H        2.95975261      -0.24374975      -0.13865949
H        0.95058430       1.04525956       1.57971131
15
Frame=12 idx=007360 GeodesicLength=0.645297780078832 rxn_smarts="[C:1]1([H:8])([H:9])[C:2]([H:10])([H:11])[C:3]12[C:4]([H:12])([H:13])[C@@:5]1([H:14])[O:6][C@@:7]21[H:15]>>[C:1]1([H:8])([H:9])[C:2]([H:10])([H:11])[C:3]12[C:4]([H:12])([H:13])[C@:7]2([O+:6]=[C-:5][H:14])[H:15]"
C       -1.37690636       0.29962125      -0.93287104
C       -1.76425587       0.01602408       0.50016098
C       -0.34394938      -0.00873615       0.07806735
C        0.74634613      -1.02071541       0.17217619
C        2.14455640       0.30718942      -0.66587768
O        1.55641560       1.47049224      -0.33885794
C        0.85592740       0.67448350       0.58857408
H       -1.59184277      -0.45357129      -1.67992574
H       -1.41734020       1.32124255      -1.28970950
H       -2.10061964       0.84745389       1.10699738
H       -2.24220625      -0.93071854       0.71919149
H        0.75061441      -1.66151339       1.05035018
H        0.90677667      -1.65319094      -0.69386090
H        2.94388646      -0.28056048      -0.20755217
H        0.93259739       1.07249928       1.59313733
15
Frame=13 idx=007360 GeodesicLength=0.6988562702252 rxn_smarts="[C:1]1([H:8])([H:9])[C:2]([H:10])([H:11])[C:3]12[C:4]([H:12])([H:13])[C@@:5]1([H:14])[O:6][C@@:7]21[H:15]>>[C:1]1([H:8])([H:9])[C:2]([H:10])([H:11])[C:3]12[C:4]([H:12])([H:13])[C@:7]2([O+:6]=[C-:5][H:14])[H:15]"
C       -1.36500781       0.30098919      -0.93363179
C       -1.76124465       0.01179584       0.49554221
C       -0.33740587      -0.00471537       0.08417942
C        0.75364394      -1.01874760       0.18378434
C        2.12464900       0.31676630      -0.66591876
O        1.55833281       1.47983168      -0.32068130
C        0.85657669       0.68119280       0.60863947
H       -1.57073072      -0.45118703      -1.68431096
H       -1.40602946       1.32335776      -1.28854768
H       -2.10610148       0.83989803       1.10219911
H       -2.23584591      -0.93797256       0.70895501
H        0.74603721      -1.66345921       1.05965181
H        0.90499708      -1.66198771      -0.67687805
H        2.92452201      -0.31612883      -0.27887725
H        0.91360716       1.10036672       1.60589441
15
Frame=14 idx=007360 GeodesicLength=0.7524514675910193 rxn_smarts="[C:1]1([H:8])([H:9])[C:2]([H:10])([H:11])[C:3]12[C:4]([H:12])([H:13])[C@@:5]1([H:14])[O:6][C@@:7]21[H:15]>>[C:1]1([H:8])([H:9])[C:2]([H:10])([H:11])[C:3]12[C:4]([H:12])([H:13])[C@:7]2([O+:6]=[C-:5][H:14])[H:15]"
C       -1.35250050       0.30233930      -0.93430517
C       -1.75782906       0.00754416       0.49083616
C       -0.33056037      -0.00082623       0.09051798
C        0.76112348      -1.01695987       0.19567605
C        2.10573799       0.32576520      -0.66392944
O        1.56081411       1.48831380      -0.30225449
C        0.85728290       0.68770563       0.62914574
H       -1.54891960      -0.44871690      -1.68859305
H       -1.39399520       1.32542738      -1.28724323
H       -2.11117522       0.83226492       1.09722987
H       -2.22909429      -0.94515538       0.69854975
H        0.74145891      -1.66551093       1.06907536
H        0.90326189      -1.67071139      -0.65958671
H        2.90085987      -0.35023974      -0.35309150
H        0.89353507       1.12876004       1.61797268
15
Frame=15 idx=007360 GeodesicLength=0.8060774649397341 rxn_smarts="[C:1]1([H:8])([H:9])[C:2]([H:10])([H:11])[C:3]12[C:4]([H:12])([H:13])[C@@:5]1([H:14])[O:6][C@@:7]21[H:15]>>[C:1]1([H:8])([H:9])[C:2]([H:10])([H:11])[C:3]12[C:4]([H:12])([H:13])[C@:7]2([O+:6]=[C-:5][H:14])[H:15]"
C       -1.33941112       0.30370139      -0.93493729
C       -1.75407227       0.00322528       0.48600192
C       -0.32338979       0.00295828       0.09708661
C        0.76885536      -1.01538575       0.20796658
C        2.08818122       0.33419827      -0.65975208
O        1.56399107       1.49605135      -0.28355481
C        0.85809220       0.69410185       0.65013826
H       -1.52638016      -0.44615711      -1.69283047
H       -1.38130598       1.32754511      -1.28585678
H       -2.11598136       0.82451819       1.09203138
H       -2.22201169      -0.95238809       0.68792151
H        0.73697706      -1.66770334       1.07879616
H        0.90160555      -1.67945602      -0.64184656
H        2.87231353      -0.38286905      -0.43048954
H        0.87253637       1.15765964       1.62932511
15
Frame=16 idx=007360 GeodesicLength=0.8597296674971119 rxn_smarts="[C:1]1([H:8])([H:9])[C:2]([H:10])([H:11])[C:3]12[C:4]([H:12])([H:13])[C@@:5]1([H:14])[O:6][C@@:7]21[H:15]>>[C:1]1([H:8])([H:9])[C:2]([H:10])([H:11])[C:3]12[C:4]([H:12])([H:13])[C@:7]2([O+:6]=[C-:5][H:14])[H:15]"
C       -1.32559890       0.30500587      -0.93554154
C       -1.74991714      -0.00113837       0.48098903
C       -0.31583780       0.00661625       0.10388849
C        0.77686710      -1.01400791       0.22073818
C        2.07217789       0.34199389      -0.65317753
O        1.56789541       1.50299605      -0.26445810
C        0.85896532       0.70036523       0.67168166
H       -1.50296258      -0.44359302      -1.69697287
H       -1.36777788       1.32958985      -1.28445135
H       -2.12048115       0.81669472       1.08647533
H       -2.21456479      -0.95959884       0.67705505
H        0.73253286      -1.66997890       1.08887979
H        0.90002375      -1.68822748      -0.62353112
H        2.83799518      -0.41358432      -0.51150507
H        0.85068273       1.18686698       1.63993005
