11
Frame=0 idx=003121 GeodesicLength=0.0 rxn_smarts="[C:1]([c:2]1[c:3]([H:10])[n:4][c:5]([H:11])[o:6]1)([H:7])([H:8])[H:9]>>[C:1]([C:2]([C@:3]1([H:10])[N:4]=[C:5]1[H:11])=[O:6])([H:7])([H:8])[H:9]"
C       -1.64689061      -0.40463542      -0.06415302
C       -0.17119108      -0.20172335      -0.14724016
C        0.47644527       0.93517925       0.26339718
N        1.87698849       1.17571717      -0.37033354
C        2.03985759       0.02040137      -0.07833214
O        0.58665732      -1.11051107      -0.63697979
H       -1.87370249      -1.33584706       0.45542055
H       -2.14236700       0.42546518       0.43752928
H       -2.04055147      -0.48800452      -1.07951600
H        0.18229887       1.72381171       0.93381098
H        2.71245516      -0.73985330       0.28639670
11
Frame=1 idx=003121 GeodesicLength=0.03231561358904168 rxn_smarts="[C:1]([c:2]1[c:3]([H:10])[n:4][c:5]([H:11])[o:6]1)([H:7])([H:8])[H:9]>>[C:1]([C:2]([C@:3]1([H:10])[N:4]=[C:5]1[H:11])=[O:6])([H:7])([H:8])[H:9]"
C       -1.64851475      -0.40291454      -0.06759039
C       -0.17537855      -0.19271478      -0.16703361
C        0.48286019       0.93122407       0.27142152
N        1.87527669       1.17558258      -0.36182689
C        2.03688133       0.01573347      -0.07348479
O        0.58651658      -1.10009251      -0.65383134
H       -1.86645637      -1.31821979       0.48336170
H       -2.14643037       0.43850181       0.41251733
H       -2.04883123      -0.51861090      -1.07699928
H        0.18299715       1.70988770       0.95118130
H        2.72107933      -0.73837710       0.28228445
11
Frame=2 idx=003121 GeodesicLength=0.06467420526728002 rxn_smarts="[C:1]([c:2]1[c:3]([H:10])[n:4][c:5]([H:11])[o:6]1)([H:7])([H:8])[H:9]>>[C:1]([C:2]([C@:3]1([H:10])[N:4]=[C:5]1[H:11])=[O:6])([H:7])([H:8])[H:9]"
C       -1.64998755      -0.40115011      -0.07100367
C       -0.17959750      -0.18325947      -0.18680155
C        0.48906727       0.92700233       0.27943952
N        1.87359244       1.17530564      -0.35287524
C        2.03370933       0.01078008      -0.06862419
O        0.58618124      -1.08924718      -0.67092474
H       -1.85867549      -1.29927827       0.51115429
H       -2.15072253       0.45109429       0.38672562
H       -2.05660162      -0.54976040      -1.07338546
H        0.18342506       1.69545453       0.96847592
H        2.72960934      -0.73694143       0.27781951
11
Frame=3 idx=003121 GeodesicLength=0.09709961848008242 rxn_smarts="[C:1]([c:2]1[c:3]([H:10])[n:4][c:5]([H:11])[o:6]1)([H:7])([H:8])[H:9]>>[C:1]([C:2]([C@:3]1([H:10])[N:4]=[C:5]1[H:11])=[O:6])([H:7])([H:8])[H:9]"
C       -1.65130089      -0.39934313      -0.07438251
C       -0.18383525      -0.17339356      -0.20642361
C        0.49506338       0.92250665       0.28746404
N        1.87190765       1.17486186      -0.34351878
C        2.03032710       0.00553008      -0.06380134
O        0.58564864      -1.07794498      -0.68831072
H       -1.85040544      -1.27898449       0.53876366
H       -2.15525549       0.46320604       0.36013605
H       -2.06374004      -0.58142392      -1.06865595
H        0.18358661       1.68050763       0.98571102
H        2.73800371      -0.73552218       0.27301814
11
Frame=4 idx=003121 GeodesicLength=0.1295380346222787 rxn_smarts="[C:1]([c:2]1[c:3]([H:10])[n:4][c:5]([H:11])[o:6]1)([H:7])([H:8])[H:9]>>[C:1]([C:2]([C@:3]1([H:10])[N:4]=[C:5]1[H:11])=[O:6])([H:7])([H:8])[H:9]"
C       -1.65249548      -0.39750609      -0.07769358
C       -0.18800320      -0.16363807      -0.22496178
C        0.50087299       0.91766630       0.29551451
N        1.86993056       1.17417248      -0.33437326
C        2.02679180       0.00006783      -0.05912183
O        0.58498630      -1.06663320      -0.70515434
H       -1.84239369      -1.25788196       0.56519842
H       -2.15988174       0.47451567       0.33350175
H       -2.06989271      -0.61242055      -1.06311941
H        0.18349916       1.66540279       1.00240792
H        2.74658600      -0.73374521       0.26780161
11
Frame=5 idx=003121 GeodesicLength=0.16197387495489157 rxn_smarts="[C:1]([c:2]1[c:3]([H:10])[n:4][c:5]([H:11])[o:6]1)([H:7])([H:8])[H:9]>>[C:1]([C:2]([C@:3]1([H:10])[N:4]=[C:5]1[H:11])=[O:6])([H:7])([H:8])[H:9]"
C       -1.65360760      -0.39565390      -0.08092853
C       -0.19209958      -0.15400849      -0.24246546
C        0.50652659       0.91250481       0.30358678
N        1.86772275       1.17323381      -0.32542199
C        2.02314517      -0.00561404      -0.05459189
O        0.58421465      -1.05530124      -0.72156079
H       -1.83466981      -1.23606682       0.59049099
H       -2.16461182       0.48502693       0.30690069
H       -2.07513269      -0.64273288      -1.05682311
H        0.18318500       1.65021625       1.01855565
H        2.75532734      -0.73160442       0.26225767
11
Frame=6 idx=003121 GeodesicLength=0.19442670184377753 rxn_smarts="[C:1]([c:2]1[c:3]([H:10])[n:4][c:5]([H:11])[o:6]1)([H:7])([H:8])[H:9]>>[C:1]([C:2]([C@:3]1([H:10])[N:4]=[C:5]1[H:11])=[O:6])([H:7])([H:8])[H:9]"
C       -1.65469952      -0.39376964      -0.08412447
C       -0.19613194      -0.14456072      -0.25892042
C        0.51204633       0.90700886       0.31176020
N        1.86527546       1.17212065      -0.31666074
C        2.01944737      -0.01146450      -0.05027949
O        0.58336010      -1.04402307      -0.73746771
H       -1.82745205      -1.21338447       0.61483147
H       -2.16948987       0.49492375       0.28000514
H       -2.07945620      -0.67261725      -1.04981839
H        0.18273691       1.63476610       1.03448531
H        2.76436340      -0.72899971       0.25618911
11
Frame=7 idx=003121 GeodesicLength=0.226989183666955 rxn_smarts="[C:1]([c:2]1[c:3]([H:10])[n:4][c:5]([H:11])[o:6]1)([H:7])([H:8])[H:9]>>[C:1]([C:2]([C@:3]1([H:10])[N:4]=[C:5]1[H:11])=[O:6])([H:7])([H:8])[H:9]"
C       -1.65573975      -0.39183787      -0.08728381
C       -0.20009450      -0.13526725      -0.27443040
C        0.51741860       0.90118151       0.31999561
N        1.86255218       1.17084556      -0.30803851
C        2.01565640      -0.01747098      -0.04617453
O        0.58243077      -1.03273716      -0.75294065
H       -1.82071105      -1.18972500       0.63837585
H       -2.17444360       0.50426740       0.25262419
H       -2.08287909      -0.70220836      -1.04205192
H        0.18220168       1.61886208       1.05034228
H        2.77360836      -0.72590992       0.24958190
11
Frame=8 idx=003121 GeodesicLength=0.2595273979746487 rxn_smarts="[C:1]([c:2]1[c:3]([H:10])[n:4][c:5]([H:11])[o:6]1)([H:7])([H:8])[H:9]>>[C:1]([C:2]([C@:3]1([H:10])[N:4]=[C:5]1[H:11])=[O:6])([H:7])([H:8])[H:9]"
C       -1.65674751      -0.38993670      -0.09032513
C       -0.20396764      -0.12625271      -0.28888667
C        0.52270561       0.89511155       0.32814614
N        1.85965705       1.16932211      -0.29976611
C        2.01183369      -0.02366942      -0.04220085
O        0.58145846      -1.02155826      -0.76790106
H       -1.81454010      -1.16581476       0.66055014
H       -2.17936744       0.51271972       0.22576721
H       -2.08552397      -0.73067715      -1.03373454
H        0.18152361       1.60309383       1.06547118
H        2.78296822      -0.72233821       0.24287969
11
Frame=9 idx=003121 GeodesicLength=0.2920572303640308 rxn_smarts="[C:1]([c:2]1[c:3]([H:10])[n:4][c:5]([H:11])[o:6]1)([H:7])([H:8])[H:9]>>[C:1]([C:2]([C@:3]1([H:10])[N:4]=[C:5]1[H:11])=[O:6])([H:7])([H:8])[H:9]"
C       -1.65773712      -0.38805184      -0.09326327
C       -0.20776062      -0.11745137      -0.30244959
C        0.52791473       0.88880914       0.33622394
N        1.85662257       1.16759080      -0.29175589
C        2.00799659      -0.03004618      -0.03839671
O        0.58045814      -1.01042751      -0.78246921
H       -1.80891760      -1.14150231       0.68161117
H       -2.18429438       0.52042203       0.19915168
H       -2.08746051      -0.75833034      -1.02483361
H        0.18076224       1.58727551       1.08012934
H        2.79241596      -0.71828792       0.23605217
11
Frame=10 idx=003121 GeodesicLength=0.3245450335402172 rxn_smarts="[C:1]([c:2]1[c:3]([H:10])[n:4][c:5]([H:11])[o:6]1)([H:7])([H:8])[H:9]>>[C:1]([C:2]([C@:3]1([H:10])[N:4]=[C:5]1[H:11])=[O:6])([H:7])([H:8])[H:9]"
C       -1.65868865      -0.38623157      -0.09604689
C       -0.21146253      -0.10893408      -0.31509224
C        0.53307400       0.88235066       0.34410463
N        1.85346967       1.16560356      -0.28416528
C        2.00414847      -0.03661619      -0.03469078
O        0.57944541      -0.99943344      -0.79654264
H       -1.80383045      -1.11735517       0.70123015
H       -2.18910856       0.52721478       0.17345799
H       -2.08880647      -0.78460477      -1.01556748
H        0.17990805       1.57178533       1.09390399
H        2.80185105      -0.71377911       0.22940854
11
Frame=11 idx=003121 GeodesicLength=0.35697152548239147 rxn_smarts="[C:1]([c:2]1[c:3]([H:10])[n:4][c:5]([H:11])[o:6]1)([H:7])([H:8])[H:9]>>[C:1]([C:2]([C@:3]1([H:10])[N:4]=[C:5]1[H:11])=[O:6])([H:7])([H:8])[H:9]"
C       -1.65961180      -0.38446767      -0.09869365
C       -0.21508167      -0.10065079      -0.32692842
C        0.53820770       0.87571835       0.35182676
N        1.85023700       1.16339298      -0.27693212
C        2.00030116      -0.04336155      -0.03114149
O        0.57841634      -0.98852473      -0.81020153
H       -1.79927200      -1.09328122       0.71960684
H       -2.19383110       0.53320103       0.14850859
H       -2.08958907      -0.80972543      -1.00594188
H        0.17900693       1.55650807       1.10695665
H        2.81121652      -0.70880902       0.22294024
11
Frame=12 idx=003121 GeodesicLength=0.38939610599292035 rxn_smarts="[C:1]([c:2]1[c:3]([H:10])[n:4][c:5]([H:11])[o:6]1)([H:7])([H:8])[H:9]>>[C:1]([C:2]([C@:3]1([H:10])[N:4]=[C:5]1[H:11])=[O:6])([H:7])([H:8])[H:9]"
C       -1.66050304      -0.38274747      -0.10121822
C       -0.21863398      -0.09252832      -0.33810759
C        0.54330867       0.86894420       0.35940438
N        1.84694365       1.16100542      -0.26995216
C        1.99645143      -0.05027917      -0.02773851
O        0.57737360      -0.97763804      -0.82357306
H       -1.79514627      -1.06913954       0.73697252
H       -2.19850715       0.53849977       0.12404352
H       -2.08985810      -0.83398352      -0.99591374
H        0.17809047       1.54132177       1.11949563
H        2.82048071      -0.70345510       0.21658723
11
Frame=13 idx=003121 GeodesicLength=0.42182770674237685 rxn_smarts="[C:1]([c:2]1[c:3]([H:10])[n:4][c:5]([H:11])[o:6]1)([H:7])([H:8])[H:9]>>[C:1]([C:2]([C@:3]1([H:10])[N:4]=[C:5]1[H:11])=[O:6])([H:7])([H:8])[H:9]"
C       -1.66136801      -0.38105649      -0.10363965
C       -0.22212700      -0.08453475      -0.34869763
C        0.54839367       0.86199797       0.36688118
N        1.84359108       1.15847555      -0.26318738
C        1.99261174      -0.05734729      -0.02454957
O        0.57631024      -0.96674246      -0.83670148
H       -1.79146729      -1.04479584       0.75347485
H       -2.20314927       0.54318496       0.09986876
H       -2.08961387      -0.85756690      -0.98545597
H        0.17720001       1.52608738       1.13168107
H        2.82961871      -0.69770214       0.21032581
11
Frame=14 idx=003121 GeodesicLength=0.4542914088077179 rxn_smarts="[C:1]([c:2]1[c:3]([H:10])[n:4][c:5]([H:11])[o:6]1)([H:7])([H:8])[H:9]>>[C:1]([C:2]([C@:3]1([H:10])[N:4]=[C:5]1[H:11])=[O:6])([H:7])([H:8])[H:9]"
C       -1.66221108      -0.37937293      -0.10597671
C       -0.22556359      -0.07665018      -0.35874422
C        0.55346183       0.85485692       0.37430907
N        1.84016474       1.15584072      -0.25657202
C        1.98879219      -0.06454315      -0.02159950
O        0.57523463      -0.95581363      -0.84961488
H       -1.78826118      -1.02005692       0.76926571
H       -2.20778135       0.54733677       0.07571299
H       -2.08883434      -0.88069081      -0.97450436
H        0.17635501       1.51064828       1.14369839
H        2.83864313      -0.69155508       0.20402553
11
Frame=15 idx=003121 GeodesicLength=0.4868195765567049 rxn_smarts="[C:1]([c:2]1[c:3]([H:10])[n:4][c:5]([H:11])[o:6]1)([H:7])([H:8])[H:9]>>[C:1]([C:2]([C@:3]1([H:10])[N:4]=[C:5]1[H:11])=[O:6])([H:7])([H:8])[H:9]"
C       -1.66303024      -0.37768856      -0.10823932
C       -0.22895156      -0.06882328      -0.36832465
C        0.55852191       0.84751803       0.38170688
N        1.83668142       1.15313560      -0.25004115
C        1.98499257      -0.07185443      -0.01891908
O        0.57413632      -0.94478816      -0.86240296
H       -1.78550317      -0.99477330       0.78446589
H       -2.21242214       0.55098264       0.05137886
H       -2.08751865      -0.90354221      -0.96297295
H        0.17558678       1.49487964       1.15568328
H        2.84750676      -0.68504597       0.19766519
11
Frame=16 idx=003121 GeodesicLength=0.5193301723232573 rxn_smarts="[C:1]([c:2]1[c:3]([H:10])[n:4][c:5]([H:11])[o:6]1)([H:7])([H:8])[H:9]>>[C:1]([C:2]([C@:3]1([H:10])[N:4]=[C:5]1[H:11])=[O:6])([H:7])([H:8])[H:9]"
C       -1.66381979      -0.37603729      -0.11038835
C       -0.23228041      -0.06111736      -0.37740833
C        0.56359481       0.84002853       0.38897499
N        1.83314511       1.15032493      -0.24376962
C        1.98123472      -0.07927502      -0.01650249
O        0.57303218      -0.93378609      -0.87491998
H       -1.78317296      -0.96944748       0.79880696
H       -2.21699949       0.55402954       0.02746260
H       -2.08577054      -0.92563101      -0.95110062
H        0.17488606       1.47908619       1.16730517
H        2.85615031      -0.67817494       0.19153966
