16
Frame=0 idx=003242 GeodesicLength=0.0 rxn_smarts="[C:1]([C@@:2]1([H:10])[C:3]([H:11])([H:12])[C:4]([H:13])([H:14])[O:5][C:6]1([H:15])[H:16])([H:7])([H:8])[H:9]>>[C:1](/[C:2](=[C:3](/[C:4]([H:11])([H:13])[H:14])[H:12])[H:10])([H:7])([H:8])[H:9].[O:5]=[C:6]([H:15])[H:16]"
C        1.93196104       0.25157452       0.04315395
C        0.43365817       0.42305788       0.05197886
C       -0.35554659      -0.23558504      -0.92571600
C       -1.74895215      -0.01417263      -0.89539461
O       -1.63472476      -0.37360213       1.32537114
C       -0.35050614      -0.39531336       1.42801728
H        2.42346204       0.93108886      -0.65617452
H        2.33995755       0.45031974       1.03646123
H        2.20886939      -0.77012772      -0.22639758
H        0.10514770       1.44028860       0.25849692
H       -1.03395352       0.42474024      -1.90166868
H       -0.00226415      -1.14589658      -1.40012378
H       -2.43192796      -0.74708110      -1.30310696
H       -2.13778281       0.90129691      -0.47850968
H        0.09887435       0.24421980       2.21031014
H        0.15372790      -1.38480803       1.43330234
16
Frame=1 idx=003242 GeodesicLength=0.0657366913146735 rxn_smarts="[C:1]([C@@:2]1([H:10])[C:3]([H:11])([H:12])[C:4]([H:13])([H:14])[O:5][C:6]1([H:15])[H:16])([H:7])([H:8])[H:9]>>[C:1](/[C:2](=[C:3](/[C:4]([H:11])([H:13])[H:14])[H:12])[H:10])([H:7])([H:8])[H:9].[O:5]=[C:6]([H:15])[H:16]"
C        1.93650571       0.25204514       0.04039194
C        0.43854916       0.42739050       0.04833486
C       -0.35001223      -0.22538286      -0.93406551
C       -1.74941886      -0.01110432      -0.88824731
O       -1.64161731      -0.38784219       1.31755629
C       -0.35734545      -0.40223898       1.43369359
H        2.42974363       0.92969886      -0.65956373
H        2.34522325       0.45171910       1.03330675
H        2.21104772      -0.77065623      -0.22777862
H        0.11595724       1.44729285       0.25275468
H       -1.04215146       0.42503927      -1.91292540
H        0.00218518      -1.14115470      -1.39930314
H       -2.43028799      -0.75753725      -1.27545864
H       -2.13856571       0.91245259      -0.48783700
H        0.07999228       0.23977829       2.22006245
H        0.15019486      -1.38950006       1.43907880
16
Frame=2 idx=003242 GeodesicLength=0.13147341904954568 rxn_smarts="[C:1]([C@@:2]1([H:10])[C:3]([H:11])([H:12])[C:4]([H:13])([H:14])[O:5][C:6]1([H:15])[H:16])([H:7])([H:8])[H:9]>>[C:1](/[C:2](=[C:3](/[C:4]([H:11])([H:13])[H:14])[H:12])[H:10])([H:7])([H:8])[H:9].[O:5]=[C:6]([H:15])[H:16]"
C        1.94103867       0.25250702       0.03749720
C        0.44344405       0.43178330       0.04466482
C       -0.34460070      -0.21523972      -0.94224508
C       -1.74983894      -0.00803123      -0.88094029
O       -1.64837609      -0.40237419       1.30985204
C       -0.36424469      -0.40926070       1.43960087
H        2.43596883       0.92817244      -0.66322988
H        2.35058068       0.45321607       1.02995311
H        2.21313201      -0.77123672      -0.22917784
H        0.12687500       1.45437537       0.24684429
H       -1.05032334       0.42521363      -1.92396031
H        0.00655229      -1.13635893      -1.39829157
H       -2.42816545      -0.76715698      -1.24854912
H       -2.13962449       0.92315594      -0.49708666
H        0.06076259       0.23539109       2.22986771
H        0.14681958      -1.39415640       1.44520070
16
Frame=3 idx=003242 GeodesicLength=0.19720890580695716 rxn_smarts="[C:1]([C@@:2]1([H:10])[C:3]([H:11])([H:12])[C:4]([H:13])([H:14])[O:5][C:6]1([H:15])[H:16])([H:7])([H:8])[H:9]>>[C:1](/[C:2](=[C:3](/[C:4]([H:11])([H:13])[H:14])[H:12])[H:10])([H:7])([H:8])[H:9].[O:5]=[C:6]([H:15])[H:16]"
C        1.94556410       0.25296100       0.03447170
C        0.44834817       0.43624294       0.04096755
C       -0.33930882      -0.20515451      -0.95025372
C       -1.75021173      -0.00494673      -0.87345941
O       -1.65499159      -0.41721217       1.30225368
C       -0.37120291      -0.41638073       1.44574626
H        2.44214448       0.92650760      -0.66717070
H        2.35603362       0.45481052       1.02640202
H        2.21512364      -0.77186846      -0.23059095
H        0.13791009       1.46154242       0.24075772
H       -1.05846972       0.42527133      -1.93477002
H        0.01083595      -1.13150834      -1.39709223
H       -2.42560911      -0.77597275      -1.22241421
H       -2.14094976       0.93342802      -0.50625604
H        0.04117451       0.23105258       2.23972956
H        0.14360907      -1.39877273       1.45167879
16
Frame=4 idx=003242 GeodesicLength=0.26294348503952436 rxn_smarts="[C:1]([C@@:2]1([H:10])[C:3]([H:11])([H:12])[C:4]([H:13])([H:14])[O:5][C:6]1([H:15])[H:16])([H:7])([H:8])[H:9]>>[C:1](/[C:2](=[C:3](/[C:4]([H:11])([H:13])[H:14])[H:12])[H:10])([H:7])([H:8])[H:9].[O:5]=[C:6]([H:15])[H:16]"
C        1.95008675       0.25340778       0.03131788
C        0.45326697       0.44077686       0.03724166
C       -0.33413358      -0.19512528      -0.95809205
C       -1.75053686      -0.00184299      -0.86579196
O       -1.66145366      -0.43237045       1.29475478
C       -0.37821936      -0.42360147       1.45213667
H        2.44827798       0.92470196      -0.67138339
H        2.36158662       0.45650223       1.02265632
H        2.21702466      -0.77255158      -0.23201331
H        0.14907153       1.46880155       0.23448654
H       -1.06659236       0.42522057      -1.94535328
H        0.01503475      -1.12660238      -1.39570884
H       -2.42266685      -0.78401757      -1.19708270
H       -2.14253369       0.94328916      -0.51534361
H        0.02121633       0.22675645       2.24965170
H        0.14057077      -1.40334484       1.45852356
16
Frame=5 idx=003242 GeodesicLength=0.32867056009135903 rxn_smarts="[C:1]([C@@:2]1([H:10])[C:3]([H:11])([H:12])[C:4]([H:13])([H:14])[O:5][C:6]1([H:15])[H:16])([H:7])([H:8])[H:9]>>[C:1](/[C:2](=[C:3](/[C:4]([H:11])([H:13])[H:14])[H:12])[H:10])([H:7])([H:8])[H:9].[O:5]=[C:6]([H:15])[H:16]"
C        1.95460916       0.25384877       0.02803656
C        0.45820606       0.44539157       0.03348428
C       -0.32906979      -0.18514880      -0.96575875
C       -1.75080927       0.00128887      -0.85792285
O       -1.66775303      -0.44786478       1.28734432
C       -0.38529655      -0.43092581       1.45877552
H        2.45437583       0.92275281      -0.67586626
H        2.36723953       0.45829182       1.01871477
H        2.21883378      -0.77328260      -0.23344013
H        0.16037007       1.47615643       0.22801980
H       -1.07468875       0.42506959      -1.95570618
H        0.01914785      -1.12163886      -1.39414121
H       -2.41938251      -0.79132271      -1.17256985
H       -2.14436154       0.95275650      -0.52434582
H        0.00087125       0.22249363       2.25963312
H        0.13770791      -1.40786641       1.46574267
16
Frame=6 idx=003242 GeodesicLength=0.39438375657752744 rxn_smarts="[C:1]([C@@:2]1([H:10])[C:3]([H:11])([H:12])[C:4]([H:13])([H:14])[O:5][C:6]1([H:15])[H:16])([H:7])([H:8])[H:9]>>[C:1](/[C:2](=[C:3](/[C:4]([H:11])([H:13])[H:14])[H:12])[H:10])([H:7])([H:8])[H:9].[O:5]=[C:6]([H:15])[H:16]"
C        1.95913613       0.25428555       0.02463137
C        0.46317041       0.45009460       0.02969211
C       -0.32411580      -0.17522812      -0.97325547
C       -1.75102917       0.00445566      -0.84984195
O       -1.67387708      -0.46369610       1.28001830
C       -0.39243279      -0.43835478       1.46567108
H        2.46044341       0.92066639      -0.68060929
H        2.37299536       0.46017446       1.01458461
H        2.22055489      -0.77406050      -0.23487016
H        0.17181058       1.48361464       0.22134809
H       -1.08275995       0.42482603      -1.96582793
H        0.02317161      -1.11662522      -1.39239011
H       -2.41580375      -0.79791782      -1.14890509
H       -2.14642894       0.96184571      -0.53326301
H       -0.01985904       0.21825446       2.26967585
H        0.13502414      -1.41233496       1.47334160
16
Frame=7 idx=003242 GeodesicLength=0.4600727766735678 rxn_smarts="[C:1]([C@@:2]1([H:10])[C:3]([H:11])([H:12])[C:4]([H:13])([H:14])[O:5][C:6]1([H:15])[H:16])([H:7])([H:8])[H:9]>>[C:1](/[C:2](=[C:3](/[C:4]([H:11])([H:13])[H:14])[H:12])[H:10])([H:7])([H:8])[H:9].[O:5]=[C:6]([H:15])[H:16]"
C        1.96367141       0.25472068       0.02110498
C        0.46816565       0.45489309       0.02586022
C       -0.31926819      -0.16536431      -0.98058297
C       -1.75119349       0.00766505      -0.84153717
O       -1.67981682      -0.47985915       1.27277151
C       -0.39963041      -0.44588903       1.47282777
H        2.46648693       0.91845103      -0.68560070
H        2.37885327       0.46214382       1.01027108
H        2.22219014      -0.77487997      -0.23630386
H        0.18339965       1.49118028       0.21446063
H       -1.09080422       0.42449521      -1.97571727
H        0.02710391      -1.11156576      -1.39045458
H       -2.41197204      -0.80383721      -1.12609956
H       -2.14872768       0.97057091      -0.54209692
H       -0.04097256       0.21402424       2.27977821
H        0.13251444      -1.41674889       1.48131861
16
Frame=8 idx=003242 GeodesicLength=0.5257312495775048 rxn_smarts="[C:1]([C@@:2]1([H:10])[C:3]([H:11])([H:12])[C:4]([H:13])([H:14])[O:5][C:6]1([H:15])[H:16])([H:7])([H:8])[H:9]>>[C:1](/[C:2](=[C:3](/[C:4]([H:11])([H:13])[H:14])[H:12])[H:10])([H:7])([H:8])[H:9].[O:5]=[C:6]([H:15])[H:16]"
C        1.96821795       0.25516003       0.01746131
C        0.47319437       0.45979693       0.02198485
C       -0.31452307      -0.15556357      -0.98774551
C       -1.75130079       0.01092102      -0.83299777
O       -1.68555683      -0.49633845       1.26559594
C       -0.40689059      -0.45353516       1.48024899
H        2.47251682       0.91612160      -0.69082960
H        2.38480802       0.46419989       1.00578560
H        2.22374165      -0.77573682      -0.23774321
H        0.19514187       1.49886618       0.20734724
H       -1.09882145       0.42407470      -1.98537809
H        0.03094091      -1.10646891      -1.38833419
H       -2.40793276      -0.80910431      -1.10414707
H       -2.15123873       0.97894330      -0.55085731
H       -0.06246408       0.20977566       2.28993914
H        0.13016671      -1.42111208       1.48966967
16
Frame=9 idx=003242 GeodesicLength=0.591336593183627 rxn_smarts="[C:1]([C@@:2]1([H:10])[C:3]([H:11])([H:12])[C:4]([H:13])([H:14])[O:5][C:6]1([H:15])[H:16])([H:7])([H:8])[H:9]>>[C:1](/[C:2](=[C:3](/[C:4]([H:11])([H:13])[H:14])[H:12])[H:10])([H:7])([H:8])[H:9].[O:5]=[C:6]([H:15])[H:16]"
C        1.97277088       0.25560246       0.01370485
C        0.47825978       0.46481118       0.01804889
C       -0.30987475      -0.14581673      -0.99473904
C       -1.75134254       0.01422660      -0.82422065
O       -1.69109522      -0.51310929       1.25849077
C       -0.41421686      -0.46128957       1.48794008
H        2.47852156       0.91367463      -0.69626819
H        2.39084896       0.46632771       1.00112505
H        2.22520810      -0.77661903      -0.23916702
H        0.20703275       1.50665852       0.19996842
H       -1.10680791       0.42358240      -1.99480652
H        0.03469024      -1.10132643      -1.38603615
H       -2.40369875      -0.81375205      -1.08302491
H       -2.15396306       0.98696618      -0.55954995
H       -0.08430699       0.20548101       2.30016350
H        0.12797383      -1.42541760       1.49837087
16
Frame=10 idx=003242 GeodesicLength=0.6569162426515975 rxn_smarts="[C:1]([C@@:2]1([H:10])[C:3]([H:11])([H:12])[C:4]([H:13])([H:14])[O:5][C:6]1([H:15])[H:16])([H:7])([H:8])[H:9]>>[C:1](/[C:2](=[C:3](/[C:4]([H:11])([H:13])[H:14])[H:12])[H:10])([H:7])([H:8])[H:9].[O:5]=[C:6]([H:15])[H:16]"
C        1.97734245       0.25605240       0.00983590
C        0.48337084       0.46995073       0.01405864
C       -0.30532118      -0.13612078      -1.00157766
C       -1.75131985       0.01760451      -0.81518892
O       -1.69641678      -0.53020865       1.25142908
C       -0.42161788      -0.46916581       1.49589753
H        2.48453326       0.91111725      -0.70192579
H        2.39698636       0.46853075       0.99630239
H        2.22659272      -0.77753339      -0.24059063
H        0.21909766       1.51458823       0.19233598
H       -1.11477420       0.42300606      -2.00401695
H        0.03834334      -1.09614007      -1.38355870
H       -2.39931765      -0.81781516      -1.06270889
H       -2.15688619       0.99466496      -0.56818174
H       -0.10655204       0.20113727       2.31044193
H        0.12593915      -1.42966829       1.50744783
16
Frame=11 idx=003242 GeodesicLength=0.7224690807405794 rxn_smarts="[C:1]([C@@:2]1([H:10])[C:3]([H:11])([H:12])[C:4]([H:13])([H:14])[O:5][C:6]1([H:15])[H:16])([H:7])([H:8])[H:9]>>[C:1](/[C:2](=[C:3](/[C:4]([H:11])([H:13])[H:14])[H:12])[H:10])([H:7])([H:8])[H:9].[O:5]=[C:6]([H:15])[H:16]"
C        1.98193421       0.25650753       0.00585624
C        0.48853367       0.47522337       0.01000924
C       -0.30085718      -0.12645904      -1.00826376
C       -1.75122482       0.02107134      -0.80589394
O       -1.70150919      -0.54767372       1.24438828
C       -0.42909749      -0.47716776       1.50412326
H        2.49055175       0.90842010      -0.70781491
H        2.40322401       0.47082346       0.99130961
H        2.22789062      -0.77848206      -0.24199082
H        0.23134790       1.52265559       0.18443199
H       -1.12272251       0.42235972      -2.01301156
H        0.04190480      -1.09089701      -1.38090525
H       -2.39481120      -0.82131498      -1.04317809
H       -2.16000088       1.00205256      -0.57674671
H       -0.12924070       0.19673328       2.32077837
H        0.12407701      -1.43385239       1.51690805
16
Frame=12 idx=003242 GeodesicLength=0.7880054640366854 rxn_smarts="[C:1]([C@@:2]1([H:10])[C:3]([H:11])([H:12])[C:4]([H:13])([H:14])[O:5][C:6]1([H:15])[H:16])([H:7])([H:8])[H:9]>>[C:1](/[C:2](=[C:3](/[C:4]([H:11])([H:13])[H:14])[H:12])[H:10])([H:7])([H:8])[H:9].[O:5]=[C:6]([H:15])[H:16]"
C        1.98654954       0.25696617       0.00176770
C        0.49375458       0.48064168       0.00589693
C       -0.29647778      -0.11681787      -1.01480405
C       -1.75105233       0.02464015      -0.79632364
O       -1.70635589      -0.56554259       1.23734100
C       -0.43666323      -0.48530446       1.51261692
H        2.49658901       0.90556610      -0.71393941
H        2.40956599       0.47320703       0.98614654
H        2.22909652      -0.77946876      -0.24335895
H        0.24379765       1.53087300       0.17623859
H       -1.13066151       0.42165182      -2.02179255
H        0.04537570      -1.08558391      -1.37807975
H       -2.39019877      -0.82427067      -1.02439579
H       -2.16329686       1.00913783      -0.58524284
H       -0.15242091       0.19226362       2.33116365
H        0.12239828      -1.43795915       1.52676565
16
Frame=13 idx=003242 GeodesicLength=0.8535359028685419 rxn_smarts="[C:1]([C@@:2]1([H:10])[C:3]([H:11])([H:12])[C:4]([H:13])([H:14])[O:5][C:6]1([H:15])[H:16])([H:7])([H:8])[H:9]>>[C:1](/[C:2](=[C:3](/[C:4]([H:11])([H:13])[H:14])[H:12])[H:10])([H:7])([H:8])[H:9].[O:5]=[C:6]([H:15])[H:16]"
C        1.99119213       0.25742744      -0.00242902
C        0.49904047       0.48621859       0.00171803
C       -0.29217923      -0.10718107      -1.02120348
C       -1.75079704       0.02832530      -0.78646544
O       -1.71093842      -0.58384637       1.23026034
C       -0.44432320      -0.49358411       1.52137881
H        2.50265369       0.90253290      -0.72031083
H        2.41601686       0.47569285       0.98080993
H        2.23020393      -0.78049872      -0.24467546
H        0.25646372       1.53925201       0.16773880
H       -1.13860007       0.42088778      -2.03036382
H        0.04875889      -1.08018674      -1.37508721
H       -2.38549526      -0.82670044      -1.00633008
H       -2.16676806       1.01592835      -0.59366538
H       -0.17613735       0.18771247       2.34159348
H        0.12090892      -1.44198025       1.53703131
16
Frame=14 idx=003242 GeodesicLength=0.9190517307911559 rxn_smarts="[C:1]([C@@:2]1([H:10])[C:3]([H:11])([H:12])[C:4]([H:13])([H:14])[O:5][C:6]1([H:15])[H:16])([H:7])([H:8])[H:9]>>[C:1](/[C:2](=[C:3](/[C:4]([H:11])([H:13])[H:14])[H:12])[H:10])([H:7])([H:8])[H:9].[O:5]=[C:6]([H:15])[H:16]"
C        1.99586220       0.25789517      -0.00673056
C        0.50439550       0.49196373      -0.00253747
C       -0.28795866      -0.09754995      -1.02746537
C       -1.75045351       0.03213284      -0.77630825
O       -1.71524199      -0.60256733       1.22313592
C       -0.45208481      -0.50201117       1.53041111
H        2.50875188       0.89933040      -0.72691256
H        2.42256986       0.47827263       0.97530685
H        2.23121242      -0.78156355      -0.24594304
H        0.26935089       1.54779764       0.15891004
H       -1.14653911       0.42006844      -2.03872485
H        0.05205266      -1.07470958      -1.37192503
H       -2.38072016      -0.82862071      -0.98895471
H       -2.17040425       1.02242466      -0.60202190
H       -0.20038850       0.18305101       2.35206231
H        0.11959558      -1.44591423       1.54769752
16
Frame=15 idx=003242 GeodesicLength=0.984567957167879 rxn_smarts="[C:1]([C@@:2]1([H:10])[C:3]([H:11])([H:12])[C:4]([H:13])([H:14])[O:5][C:6]1([H:15])[H:16])([H:7])([H:8])[H:9]>>[C:1](/[C:2](=[C:3](/[C:4]([H:11])([H:13])[H:14])[H:12])[H:10])([H:7])([H:8])[H:9].[O:5]=[C:6]([H:15])[H:16]"
C        2.00056637       0.25836729      -0.01113408
C        0.50982703       0.49788958      -0.00687252
C       -0.28381417      -0.08791035      -1.03359559
C       -1.75001919       0.03607717      -0.76583829
O       -1.71924630      -0.62174112       1.21593758
C       -0.45995663      -0.51059550       1.53971513
H        2.51489497       0.89593083      -0.73375655
H        2.42923598       0.48096185       0.96963527
H        2.23211957      -0.78266985      -0.24714100
H        0.28247661       1.55652189       0.14973166
H       -1.15449189       0.41920296      -2.04687651
H        0.05525982      -1.06913842      -1.36860069
H       -2.37588934      -0.83004251      -0.97223977
H       -2.17420680       1.02863123      -0.61030707
H       -0.22522502       0.17826564       2.36256309
H        0.11846900      -1.44975070       1.55877932
16
Frame=16 idx=003242 GeodesicLength=1.0500809442333032 rxn_smarts="[C:1]([C@@:2]1([H:10])[C:3]([H:11])([H:12])[C:4]([H:13])([H:14])[O:5][C:6]1([H:15])[H:16])([H:7])([H:8])[H:9]>>[C:1](/[C:2](=[C:3](/[C:4]([H:11])([H:13])[H:14])[H:12])[H:10])([H:7])([H:8])[H:9].[O:5]=[C:6]([H:15])[H:16]"
C        2.00529996       0.25884309      -0.01564268
C        0.51534151       0.50400843      -0.01129394
C       -0.27974074      -0.07824813      -1.03959436
C       -1.74947915       0.04017385      -0.75503572
O       -1.72291717      -0.64141693       1.20862760
C       -0.46794941      -0.51934734       1.54928909
H        2.52108406       0.89231594      -0.74085245
H        2.43601080       0.48376169       0.96378465
H        2.23290893      -0.78381715      -0.24826125
H        0.29586097       1.56543326       0.14017498
H       -1.16245937       0.41829689      -2.05481189
H        0.05837816      -1.06346126      -1.36510368
H       -2.37100876      -0.83096438      -0.95615184
H       -2.17815512       1.03455008      -0.61850794
H       -0.25071428       0.17334184       2.37307745
H        0.11753961      -1.45346988       1.57030198
