15
Frame=0 idx=006668 GeodesicLength=0.0 rxn_smarts="[C:1]([C@@:2]1([H:11])[C@@:3]2([H:12])[O:4][C@:5]1([H:13])[C:6]([H:14])=[C:7]2[H:15])([H:8])([H:9])[H:10]>>[C:1]([C@:2]1([H:11])[C@@:3]2([H:12])[O:4][C:5]([H:13])=[C:6]([H:14])[C@@:7]12[H:15])([H:8])([H:9])[H:10]"
C        2.17691827       0.04901071      -0.12226312
C        0.70345238      -0.07513486      -0.32952986
C       -0.20647539      -0.09973075       0.89966003
O       -0.78048968       1.20875187       0.96867638
C       -1.36279043       1.13970192      -0.26708190
C       -1.91440171      -0.13249756      -0.50831482
C       -1.26836217      -0.97845522       0.35775971
H        2.60880372      -0.85948423       0.31804069
H        2.40835777       0.87615106       0.55471676
H        2.68872063       0.21474401      -1.07150018
H        0.38740135      -0.65480239      -1.18508450
H        0.27111570      -0.36239912       1.84229268
H       -1.68090999       2.07546602      -0.70815772
H       -2.63341757      -0.36659103      -1.27882239
H       -1.39792289      -2.03473037       0.52960827
15
Frame=1 idx=006668 GeodesicLength=0.05827550437893061 rxn_smarts="[C:1]([C@@:2]1([H:11])[C@@:3]2([H:12])[O:4][C@:5]1([H:13])[C:6]([H:14])=[C:7]2[H:15])([H:8])([H:9])[H:10]>>[C:1]([C@:2]1([H:11])[C@@:3]2([H:12])[O:4][C:5]([H:13])=[C:6]([H:14])[C@@:7]12[H:15])([H:8])([H:9])[H:10]"
C        2.16618928       0.04390731      -0.12060925
C        0.69074597      -0.07675040      -0.32449254
C       -0.20680550      -0.09029490       0.91242330
O       -0.78298215       1.21739127       0.96366017
C       -1.34872967       1.13529070      -0.28146158
C       -1.91570024      -0.13528099      -0.50162391
C       -1.25092008      -0.98101010       0.35311364
H        2.60233329      -0.88051550       0.27974123
H        2.40353569       0.84347697       0.58643706
H        2.67278253       0.25049497      -1.06474346
H        0.38708206      -0.63799650      -1.19709940
H        0.26505282      -0.34669944       1.85921903
H       -1.66201822       2.06770106      -0.73329459
H       -2.64172975      -0.37351713      -1.26424911
H       -1.37883601      -2.03619734       0.53297943
15
Frame=2 idx=006668 GeodesicLength=0.11657566291644403 rxn_smarts="[C:1]([C@@:2]1([H:11])[C@@:3]2([H:12])[O:4][C@:5]1([H:13])[C:6]([H:14])=[C:7]2[H:15])([H:8])([H:9])[H:10]>>[C:1]([C@:2]1([H:11])[C@@:3]2([H:12])[O:4][C:5]([H:13])=[C:6]([H:14])[C@@:7]12[H:15])([H:8])([H:9])[H:10]"
C        2.15559230       0.03874702      -0.11896363
C        0.67822344      -0.07852744      -0.31981635
C       -0.20716898      -0.08091385       0.92465310
O       -0.78503372       1.22607316       0.95825874
C       -1.33508213       1.13072869      -0.29550533
C       -1.91682152      -0.13803505      -0.49491296
C       -1.23367011      -0.98335517       0.34863884
H        2.59560157      -0.89999854       0.24111085
H        2.39881507       0.80971675       0.61702927
H        2.65724966       0.28576254      -1.05620427
H        0.38708328      -0.62097593      -1.20898951
H        0.25875640      -0.33109256       1.87567295
H       -1.64369618       2.05968594      -0.75798329
H       -2.64988965      -0.38035434      -1.24950503
H       -1.35995945      -2.03746121       0.53651660
15
Frame=3 idx=006668 GeodesicLength=0.1748846112130507 rxn_smarts="[C:1]([C@@:2]1([H:11])[C@@:3]2([H:12])[O:4][C@:5]1([H:13])[C:6]([H:14])=[C:7]2[H:15])([H:8])([H:9])[H:10]>>[C:1]([C@:2]1([H:11])[C@@:3]2([H:12])[O:4][C:5]([H:13])=[C:6]([H:14])[C@@:7]12[H:15])([H:8])([H:9])[H:10]"
C        2.14506948       0.03353076      -0.11733422
C        0.66580801      -0.08041530      -0.31543042
C       -0.20752052      -0.07157438       0.93624969
O       -0.78658344       1.23458800       0.95242768
C       -1.32185378       1.12587595      -0.30909915
C       -1.91781827      -0.14071093      -0.48807301
C       -1.21669573      -0.98530815       0.34435609
H        2.58858171      -0.91769884       0.20222552
H        2.39417430       0.77484754       0.64622667
H        2.64201825       0.32030633      -1.04576951
H        0.38724898      -0.60374281      -1.22044189
H        0.25234360      -0.31553460       1.89137861
H       -1.62599426       2.05115193      -0.78197057
H       -2.65742689      -0.38713020      -1.23487808
H       -1.34135143      -2.03818531       0.54013259
15
Frame=4 idx=006668 GeodesicLength=0.2330936486118333 rxn_smarts="[C:1]([C@@:2]1([H:11])[C@@:3]2([H:12])[O:4][C@:5]1([H:13])[C:6]([H:14])=[C:7]2[H:15])([H:8])([H:9])[H:10]>>[C:1]([C@:2]1([H:11])[C@@:3]2([H:12])[O:4][C:5]([H:13])=[C:6]([H:14])[C@@:7]12[H:15])([H:8])([H:9])[H:10]"
C        2.13467126       0.02839337      -0.11575696
C        0.65357815      -0.08253244      -0.31142392
C       -0.20788747      -0.06250735       0.94733899
O       -0.78768561       1.24295293       0.94647566
C       -1.30889508       1.12095911      -0.32225962
C       -1.91860711      -0.14326612      -0.48129716
C       -1.20004277      -0.98713385       0.34016592
H        2.58146744      -0.93338361       0.16424200
H        2.38930112       0.74008652       0.67348361
H        2.62728509       0.35327512      -1.03407311
H        0.38776036      -0.58657114      -1.23165870
H        0.24571701      -0.30043764       1.90659673
H       -1.60870558       2.04258800      -0.80521114
H       -2.66498538      -0.39351896      -1.22003051
H       -1.32297144      -2.03890392       0.54340821
15
Frame=5 idx=006668 GeodesicLength=0.29145179108317115 rxn_smarts="[C:1]([C@@:2]1([H:11])[C@@:3]2([H:12])[O:4][C@:5]1([H:13])[C:6]([H:14])=[C:7]2[H:15])([H:8])([H:9])[H:10]>>[C:1]([C@:2]1([H:11])[C@@:3]2([H:12])[O:4][C:5]([H:13])=[C:6]([H:14])[C@@:7]12[H:15])([H:8])([H:9])[H:10]"
C        2.12433660       0.02312119      -0.11423442
C        0.64141712      -0.08467773      -0.30765367
C       -0.20822983      -0.05325401       0.95786050
O       -0.78837282       1.25134962       0.93995104
C       -1.29642605       1.11575939      -0.33515076
C       -1.91930403      -0.14580729      -0.47435949
C       -1.18370554      -0.98848288       0.33643141
H        2.57417772      -0.94782931       0.12447290
H        2.38467337       0.70294399       0.70036126
H        2.61258737       0.38693075      -1.02018556
H        0.38836068      -0.56940004      -1.24226104
H        0.23901107      -0.28497086       1.92115491
H       -1.59207708       2.03340525      -0.82817742
H       -2.67147117      -0.40019857      -1.20567794
H       -1.30497742      -2.03888949       0.54746827
15
Frame=6 idx=006668 GeodesicLength=0.3498261457188364 rxn_smarts="[C:1]([C@@:2]1([H:11])[C@@:3]2([H:12])[O:4][C@:5]1([H:13])[C:6]([H:14])=[C:7]2[H:15])([H:8])([H:9])[H:10]>>[C:1]([C@:2]1([H:11])[C@@:3]2([H:12])[O:4][C:5]([H:13])=[C:6]([H:14])[C@@:7]12[H:15])([H:8])([H:9])[H:10]"
C        2.11409234       0.01783576      -0.11282333
C        0.62937190      -0.08690924      -0.30424307
C       -0.20855364      -0.04404129       0.96802050
O       -0.78867311       1.25987253       0.93329760
C       -1.28432314       1.11059119      -0.34772907
C       -1.91985512      -0.14830269      -0.46743724
C       -1.16772062      -0.98969994       0.33306887
H        2.56677595      -0.96074279       0.08434834
H        2.37999259       0.66485565       0.72606536
H        2.59817281       0.42006976      -1.00481246
H        0.38916094      -0.55244692      -1.25258960
H        0.23218203      -0.26957484       1.93544708
H       -1.57596715       2.02426197      -0.85072505
H       -2.67739757      -0.40690718      -1.19168742
H       -1.28725822      -2.03886196       0.55179950
15
Frame=7 idx=006668 GeodesicLength=0.4080192200687215 rxn_smarts="[C:1]([C@@:2]1([H:11])[C@@:3]2([H:12])[O:4][C@:5]1([H:13])[C:6]([H:14])=[C:7]2[H:15])([H:8])([H:9])[H:10]>>[C:1]([C@:2]1([H:11])[C@@:3]2([H:12])[O:4][C:5]([H:13])=[C:6]([H:14])[C@@:7]12[H:15])([H:8])([H:9])[H:10]"
C        2.10393548       0.01267450      -0.11148810
C        0.61745672      -0.08926020      -0.30120714
C       -0.20882134      -0.03518811       0.97768570
O       -0.78855316       1.26807333       0.92674800
C       -1.27245784       1.10540656      -0.35974150
C       -1.92023972      -0.15060967      -0.46057811
C       -1.15213584      -0.99079205       0.32976045
H        2.55929432      -0.97161862       0.04613371
H        2.37485152       0.62787271       0.74935018
H        2.58431853       0.45074640      -0.98878324
H        0.39018812      -0.53568828      -1.26254355
H        0.22529528      -0.25479596       1.94916149
H       -1.56026273       2.01519564      -0.87220778
H       -2.68318541      -0.41314460      -1.17769538
H       -1.26968394      -2.03887164       0.55540525
15
Frame=8 idx=006668 GeodesicLength=0.4664786509016043 rxn_smarts="[C:1]([C@@:2]1([H:11])[C@@:3]2([H:12])[O:4][C@:5]1([H:13])[C:6]([H:14])=[C:7]2[H:15])([H:8])([H:9])[H:10]>>[C:1]([C@:2]1([H:11])[C@@:3]2([H:12])[O:4][C:5]([H:13])=[C:6]([H:14])[C@@:7]12[H:15])([H:8])([H:9])[H:10]"
C        2.09388542       0.00734846      -0.11015625
C        0.60564340      -0.09156418      -0.29834614
C       -0.20902630      -0.02600265       0.98676114
O       -0.78809923       1.27634815       0.91944773
C       -1.26103069       1.09988890      -0.37172808
C       -1.92051066      -0.15296206      -0.45365238
C       -1.13683432      -0.99138159       0.32692288
H        2.55177002      -0.98107681       0.00540159
H        2.37001908       0.58758120       0.77256628
H        2.57041273       0.48265358      -0.96993951
H        0.39133036      -0.51905040      -1.27178471
H        0.21833763      -0.23935220       1.96219815
H       -1.54509924       2.00536377      -0.89381343
H       -2.68839744      -0.41972723      -1.16378994
H       -1.25240078      -2.03806695       0.55991267
15
Frame=9 idx=006668 GeodesicLength=0.5249381610688802 rxn_smarts="[C:1]([C@@:2]1([H:11])[C@@:3]2([H:12])[O:4][C@:5]1([H:13])[C:6]([H:14])=[C:7]2[H:15])([H:8])([H:9])[H:10]>>[C:1]([C@:2]1([H:11])[C@@:3]2([H:12])[O:4][C:5]([H:13])=[C:6]([H:14])[C@@:7]12[H:15])([H:8])([H:9])[H:10]"
C        2.08394242       0.00201023      -0.10890361
C        0.59395158      -0.09387039      -0.29581297
C       -0.20916829      -0.01681690       0.99544697
O       -0.78733425       1.28467860       0.91199032
C       -1.24993359       1.09437150      -0.38347707
C       -1.92064699      -0.15527293      -0.44677785
C       -1.12186337      -0.99182267       0.32440685
H        2.54422249      -0.98891910      -0.03557071
H        2.36503146       0.54630639       0.79457327
H        2.55680678       0.51390457      -0.94954994
H        0.39265885      -0.50268675      -1.28068223
H        0.21131918      -0.22388798       1.97488054
H       -1.53039259       1.99549666      -0.91507757
H       -2.69331615      -0.42629103      -1.15001587
H       -1.23527753      -2.03720020       0.56456987
15
Frame=10 idx=006668 GeodesicLength=0.5834202154259198 rxn_smarts="[C:1]([C@@:2]1([H:11])[C@@:3]2([H:12])[O:4][C@:5]1([H:13])[C:6]([H:14])=[C:7]2[H:15])([H:8])([H:9])[H:10]>>[C:1]([C@:2]1([H:11])[C@@:3]2([H:12])[O:4][C:5]([H:13])=[C:6]([H:14])[C@@:7]12[H:15])([H:8])([H:9])[H:10]"
C        2.07410445      -0.00336543      -0.10771280
C        0.58237773      -0.09611665      -0.29358969
C       -0.20922661      -0.00758211       1.00370760
O       -0.78628659       1.29303391       0.90432532
C       -1.23918029       1.08881328      -0.39500403
C       -1.92066112      -0.15754835      -0.43993247
C       -1.10719399      -0.99206924       0.32219514
H        2.53661164      -0.99514851      -0.07683618
H        2.35988397       0.50389121       0.81539743
H        2.54351245       0.54449844      -0.92751915
H        0.39414849      -0.48653566      -1.28919046
H        0.20427814      -0.20831556       1.98712689
H       -1.51617301       1.98549897      -0.93600938
H       -2.69793510      -0.43288067      -1.13633224
H       -1.21826017      -2.03617364       0.56937402
15
Frame=11 idx=006668 GeodesicLength=0.6419290245726994 rxn_smarts="[C:1]([C@@:2]1([H:11])[C@@:3]2([H:12])[O:4][C@:5]1([H:13])[C:6]([H:14])=[C:7]2[H:15])([H:8])([H:9])[H:10]>>[C:1]([C@:2]1([H:11])[C@@:3]2([H:12])[O:4][C:5]([H:13])=[C:6]([H:14])[C@@:7]12[H:15])([H:8])([H:9])[H:10]"
C        2.06435790      -0.00874304      -0.10659715
C        0.57090454      -0.09836999      -0.29163767
C       -0.20918407       0.00164426       1.01153363
O       -0.78492793       1.30131001       0.89647368
C       -1.22871721       1.08317882      -0.40627380
C       -1.92057484      -0.15974452      -0.43309822
C       -1.09286306      -0.99210792       0.32026423
H        2.52904458      -0.99953657      -0.11817296
H        2.35447050       0.46054029       0.83478835
H        2.53047797       0.57421611      -0.90386726
H        0.39576054      -0.47068262      -1.29726298
H        0.19727089      -0.19270716       1.99886817
H       -1.50238525       1.97533364      -0.95650726
H       -2.70217396      -0.43941402      -1.12282800
H       -1.20146061      -2.03491730       0.57431726
15
Frame=12 idx=006668 GeodesicLength=0.7004613972908281 rxn_smarts="[C:1]([C@@:2]1([H:11])[C@@:3]2([H:12])[O:4][C@:5]1([H:13])[C:6]([H:14])=[C:7]2[H:15])([H:8])([H:9])[H:10]>>[C:1]([C@:2]1([H:11])[C@@:3]2([H:12])[O:4][C:5]([H:13])=[C:6]([H:14])[C@@:7]12[H:15])([H:8])([H:9])[H:10]"
C        2.05470597      -0.01413342      -0.10555745
C        0.55953400      -0.10059992      -0.28996641
C       -0.20902886       0.01088382       1.01895018
O       -0.78328765       1.30954340       0.88845337
C       -1.21854759       1.07749886      -0.41731531
C       -1.92039462      -0.16187326      -0.42628063
C       -1.07884453      -0.99196505       0.31860880
H        2.52152505      -1.00214476      -0.15955329
H        2.34875433       0.41624697       0.85278640
H        2.51772149       0.60304248      -0.87863145
H        0.39749173      -0.45511595      -1.30494939
H        0.19032471      -0.17703014       2.01014208
H       -1.48904330       1.96504860      -0.97661509
H       -2.70607041      -0.44592525      -1.10948834
H       -1.18484032      -2.03347639       0.57941654
15
Frame=13 idx=006668 GeodesicLength=0.7590223518880403 rxn_smarts="[C:1]([C@@:2]1([H:11])[C@@:3]2([H:12])[O:4][C@:5]1([H:13])[C:6]([H:14])=[C:7]2[H:15])([H:8])([H:9])[H:10]>>[C:1]([C@:2]1([H:11])[C@@:3]2([H:12])[O:4][C:5]([H:13])=[C:6]([H:14])[C@@:7]12[H:15])([H:8])([H:9])[H:10]"
C        2.04514952      -0.01953698      -0.10459064
C        0.54826511      -0.10279407      -0.28857009
C       -0.20874971       0.02014322       1.02596349
O       -0.78138141       1.31772850       0.88026794
C       -1.20866333       1.07177458      -0.42814338
C       -1.92012914      -0.16393619      -0.41947876
C       -1.06512270      -0.99165034       0.31721204
H        2.51407420      -1.00295389      -0.20090316
H        2.34268748       0.37103636       0.86935782
H        2.50524913       0.63090844      -0.85182019
H        0.39933463      -0.43982931      -1.31226996
H        0.18347082      -0.16126865       2.02094372
H       -1.47613969       1.95464554      -0.99634871
H       -2.70966196      -0.45241276      -1.09628672
H       -1.16838294      -2.03185444       0.58466659
15
Frame=14 idx=006668 GeodesicLength=0.8176153119956275 rxn_smarts="[C:1]([C@@:2]1([H:11])[C@@:3]2([H:12])[O:4][C@:5]1([H:13])[C:6]([H:14])=[C:7]2[H:15])([H:8])([H:9])[H:10]>>[C:1]([C@:2]1([H:11])[C@@:3]2([H:12])[O:4][C:5]([H:13])=[C:6]([H:14])[C@@:7]12[H:15])([H:8])([H:9])[H:10]"
C        2.03569020      -0.02495594      -0.10369360
C        0.53709804      -0.10493570      -0.28744537
C       -0.20833648       0.02942911       1.03257983
O       -0.77922832       1.32586237       0.87192283
C       -1.19906137       1.06600984      -0.43877082
C       -1.91978624      -0.16593581      -0.41269129
C       -1.05167737      -0.99117448       0.31605413
H        2.50670885      -1.00195409      -0.24213196
H        2.33621598       0.32494589       0.88446282
H        2.49307691       0.65772900      -0.82344930
H        0.40128477      -0.42480637      -1.31924988
H        0.17674070      -0.14540946       2.03126923
H       -1.46367435       1.94413038      -1.01572216
H       -2.71298760      -0.45887610      -1.08319197
H       -1.15206372      -2.03005865       0.59005751
15
Frame=15 idx=006668 GeodesicLength=0.8762430204447146 rxn_smarts="[C:1]([C@@:2]1([H:11])[C@@:3]2([H:12])[O:4][C@:5]1([H:13])[C:6]([H:14])=[C:7]2[H:15])([H:8])([H:9])[H:10]>>[C:1]([C@:2]1([H:11])[C@@:3]2([H:12])[O:4][C:5]([H:13])=[C:6]([H:14])[C@@:7]12[H:15])([H:8])([H:9])[H:10]"
C        2.02632825      -0.03039017      -0.10286419
C        0.52603192      -0.10701040      -0.28659039
C       -0.20777971       0.03874228       1.03880676
O       -0.77684559       1.33393997       0.86342949
C       -1.18973884       1.06021105      -0.44920549
C       -1.91937326      -0.16787301      -0.40591631
C       -1.03848893      -0.99054973       0.31511244
H        2.49944625      -0.99914803      -0.28311801
H        2.32928076       0.27805282       0.89805697
H        2.48122054       0.68340126      -0.79356383
H        0.40333755      -0.41002874      -1.32591597
H        0.17016828      -0.12945096       2.04111594
H       -1.45164860       1.93351547      -1.03474055
H       -2.71607891      -0.46531199      -1.07017970
H       -1.13585972      -2.02809981       0.59557284
15
Frame=16 idx=006668 GeodesicLength=0.9349065855888928 rxn_smarts="[C:1]([C@@:2]1([H:11])[C@@:3]2([H:12])[O:4][C@:5]1([H:13])[C:6]([H:14])=[C:7]2[H:15])([H:8])([H:9])[H:10]>>[C:1]([C@:2]1([H:11])[C@@:3]2([H:12])[O:4][C:5]([H:13])=[C:6]([H:14])[C@@:7]12[H:15])([H:8])([H:9])[H:10]"
C        2.01706236      -0.03583440      -0.10210216
C        0.51506465      -0.10900945      -0.28600250
C       -0.20707142       0.04807436       1.04465408
O       -0.77424668       1.34195061       0.85480774
C       -1.18068989       1.05438595      -0.45944809
C       -1.91889745      -0.16974625      -0.39915118
C       -1.02554184      -0.98979038       0.31436203
H        2.49230377      -0.99455242      -0.32370250
H        2.32182036       0.23048787       0.91009037
H        2.46969203       0.70780653      -0.76225030
H        0.40548795      -0.39547907      -1.33229378
H        0.16378871      -0.11340778       2.05048248
H       -1.44005821       1.92281881      -1.05339733
H       -2.71895823      -0.47171198      -1.05723660
H       -1.11975612      -2.02599241       0.60118773
