9
Frame=0 idx=002122 GeodesicLength=0.0 rxn_smarts="[C:1]([C:2]#[C:3][C:4]#[C:5][H:9])([H:6])([H:7])[H:8]>>[C+:1]([C:2]#[C:3][C:4](=[C-:5][H:9])[H:8])([H:6])[H:7]"
C       -1.50396583      -0.47552977       0.06454749
C       -0.85777110      -1.47771941       0.86139370
C        0.19017783      -0.80354881       0.57997536
C        1.03456687       0.19417580       0.04456738
C        2.21157251       0.66250098      -0.07022757
H       -1.98236597       0.37759943       0.53812023
H       -1.72383586      -0.66630080      -0.98257158
H        0.04091782       0.66099400      -0.44557990
H        2.59070370       1.52782854      -0.59022511
9
Frame=1 idx=002122 GeodesicLength=0.12229077136905527 rxn_smarts="[C:1]([C:2]#[C:3][C:4]#[C:5][H:9])([H:6])([H:7])[H:8]>>[C+:1]([C:2]#[C:3][C:4](=[C-:5][H:9])[H:8])([H:6])[H:7]"
C       -1.51599662      -0.47064005       0.06659461
C       -0.84266545      -1.45056145       0.86342756
C        0.21536845      -0.80373152       0.56762413
C        1.05029206       0.17961651      -0.00247566
C        2.22710618       0.66370254      -0.05439672
H       -2.00823588       0.37432701       0.54016875
H       -1.77191198      -0.69871899      -0.96480155
H        0.02059942       0.67094999      -0.46632751
H        2.62544383       1.53505597      -0.54981362
9
Frame=2 idx=002122 GeodesicLength=0.2446319568421493 rxn_smarts="[C:1]([C:2]#[C:3][C:4]#[C:5][H:9])([H:6])([H:7])[H:8]>>[C+:1]([C:2]#[C:3][C:4](=[C-:5][H:9])[H:8])([H:6])[H:7]"
C       -1.52799075      -0.46541729       0.06747289
C       -0.82655697      -1.42282691       0.86232510
C        0.24200870      -0.80725654       0.54898852
C        1.06489651       0.17478644      -0.03579596
C        2.24209844       0.66525546      -0.03717912
H       -2.03192213       0.37148487       0.54271389
H       -1.82383666      -0.73231861      -0.94381627
H        0.00080212       0.67755370      -0.49242773
H        2.66050074       1.53873887      -0.51228131
9
Frame=3 idx=002122 GeodesicLength=0.3669938315235646 rxn_smarts="[C:1]([C:2]#[C:3][C:4]#[C:5][H:9])([H:6])([H:7])[H:8]>>[C+:1]([C:2]#[C:3][C:4](=[C-:5][H:9])[H:8])([H:6])[H:7]"
C       -1.54022956      -0.45983797       0.06719231
C       -0.80983336      -1.39357329       0.85914450
C        0.26926149      -0.81231870       0.52667693
C        1.07969242       0.17456902      -0.06261592
C        2.25766091       0.66599492      -0.02038499
H       -2.05533340       0.36857045       0.54502789
H       -1.87771847      -0.76748988      -0.91929238
H       -0.01921302       0.68284548      -0.52109746
H        2.69571298       1.54123996      -0.47465089
9
Frame=4 idx=002122 GeodesicLength=0.4893349104601204 rxn_smarts="[C:1]([C:2]#[C:3][C:4]#[C:5][H:9])([H:6])([H:7])[H:8]>>[C+:1]([C:2]#[C:3][C:4](=[C-:5][H:9])[H:8])([H:6])[H:7]"
C       -1.55295733      -0.45451963       0.06512009
C       -0.79248134      -1.36337093       0.85297632
C        0.29652959      -0.81640860       0.50395582
C        1.09470895       0.17799474      -0.08491080
C        2.27382132       0.66642292      -0.00354435
H       -2.08149584       0.36291798       0.54700959
H       -1.93044248      -0.80350825      -0.89289389
H       -0.04052483       0.69057298      -0.54717505
H        2.73284196       1.53989880      -0.44053772
9
Frame=5 idx=002122 GeodesicLength=0.6116738759045094 rxn_smarts="[C:1]([C:2]#[C:3][C:4]#[C:5][H:9])([H:6])([H:7])[H:8]>>[C+:1]([C:2]#[C:3][C:4](=[C-:5][H:9])[H:8])([H:6])[H:7]"
C       -1.56630658      -0.44936722       0.06133213
C       -0.77492885      -1.33168799       0.84422937
C        0.32373662      -0.81892478       0.48168893
C        1.11027878       0.18373596      -0.10449065
C        2.29136309       0.66512813       0.01147863
H       -2.11025111       0.35471704       0.54841205
H       -1.98197672      -0.84068157      -0.86418961
H       -0.06304202       0.70052941      -0.57107377
H        2.77112680       1.53655102      -0.40738708
9
Frame=6 idx=002122 GeodesicLength=0.7340242518276603 rxn_smarts="[C:1]([C:2]#[C:3][C:4]#[C:5][H:9])([H:6])([H:7])[H:8]>>[C+:1]([C:2]#[C:3][C:4](=[C-:5][H:9])[H:8])([H:6])[H:7]"
C       -1.58070992      -0.44489891       0.05547431
C       -0.75749259      -1.29912170       0.83221441
C        0.35055750      -0.81843309       0.46175190
C        1.12604842       0.19259485      -0.12052837
C        2.31043225       0.66258652       0.02508872
H       -2.14311864       0.34213295       0.54944464
H       -2.03041413      -0.87859045      -0.83488490
H       -0.08752725       0.71468714      -0.59006224
H        2.81222436       1.52904269      -0.37849847
9
Frame=7 idx=002122 GeodesicLength=0.8564262553153118 rxn_smarts="[C:1]([C:2]#[C:3][C:4]#[C:5][H:9])([H:6])([H:7])[H:8]>>[C+:1]([C:2]#[C:3][C:4](=[C-:5][H:9])[H:8])([H:6])[H:7]"
C       -1.59621748      -0.44057703       0.04809088
C       -0.74040720      -1.26484953       0.81766408
C        0.37721043      -0.81594713       0.44288252
C        1.14258781       0.20281760      -0.13512098
C        2.33130740       0.65799140       0.03632099
H       -2.17784292       0.32721977       0.55022690
H       -2.07744367      -0.91768860      -0.80312984
H       -0.11334590       0.73050129      -0.60785884
H        2.85415152       1.52053223      -0.34907570
9
Frame=8 idx=002122 GeodesicLength=0.9786768878088424 rxn_smarts="[C:1]([C:2]#[C:3][C:4]#[C:5][H:9])([H:6])([H:7])[H:8]>>[C+:1]([C:2]#[C:3][C:4](=[C-:5][H:9])[H:8])([H:6])[H:7]"
C       -1.61337417      -0.43737432       0.03824946
C       -0.72426931      -1.22944096       0.80017999
C        0.40308302      -0.80873056       0.42859525
C        1.15917714       0.21638417      -0.14616935
C        2.35431892       0.65166768       0.04520191
H       -2.21812193       0.30603429       0.55022046
H       -2.11906276      -0.95790203      -0.77304927
H       -0.14199411       0.75304205      -0.61696498
H        2.90024321       1.50631969      -0.32626346
9
Frame=9 idx=002122 GeodesicLength=1.1010066368919038 rxn_smarts="[C:1]([C:2]#[C:3][C:4]#[C:5][H:9])([H:6])([H:7])[H:8]>>[C+:1]([C:2]#[C:3][C:4](=[C-:5][H:9])[H:8])([H:6])[H:7]"
C       -1.63154245      -0.43368221       0.02806038
C       -0.70855105      -1.19278252       0.77889450
C        0.42921229      -0.80199904       0.41234491
C        1.17714780       0.22968456      -0.15726758
C        2.37809024       0.64483272       0.05412142
H       -2.25445639       0.28634024       0.55178689
H       -2.16339748      -0.99812988      -0.73626907
H       -0.17095281       0.77077494      -0.63461977
H        2.94444986       1.49496119      -0.29705169
9
Frame=10 idx=002122 GeodesicLength=1.2229957096350503 rxn_smarts="[C:1]([C:2]#[C:3][C:4]#[C:5][H:9])([H:6])([H:7])[H:8]>>[C+:1]([C:2]#[C:3][C:4](=[C-:5][H:9])[H:8])([H:6])[H:7]"
C       -1.65167481      -0.43135860       0.01585068
C       -0.69416198      -1.15581780       0.75386727
C        0.45440225      -0.79060323       0.40110554
C        1.19509785       0.24646964      -0.16398886
C        2.40263142       0.63884668       0.06428396
H       -2.29468886       0.26064648       0.55342771
H       -2.20200502      -1.03843254      -0.70207042
H       -0.20305807       0.79388278      -0.64524470
H        2.99345722       1.47636660      -0.27723118
9
Frame=11 idx=002122 GeodesicLength=1.345055254962246 rxn_smarts="[C:1]([C:2]#[C:3][C:4]#[C:5][H:9])([H:6])([H:7])[H:8]>>[C+:1]([C:2]#[C:3][C:4](=[C-:5][H:9])[H:8])([H:6])[H:7]"
C       -1.67325611      -0.42881490       0.00351817
C       -0.68042700      -1.11772662       0.72510539
C        0.47954547      -0.77860787       0.38993164
C        1.21462681       0.26203220      -0.17181028
C        2.42871052       0.63045687       0.07192310
H       -2.33168829       0.23617870       0.55695101
H       -2.24116227      -1.07820752      -0.66272310
H       -0.23613228       0.81330545      -0.66272331
H        3.03978315       1.46138369      -0.25017261
9
Frame=12 idx=002122 GeodesicLength=1.4668619020112317 rxn_smarts="[C:1]([C:2]#[C:3][C:4]#[C:5][H:9])([H:6])([H:7])[H:8]>>[C+:1]([C:2]#[C:3][C:4](=[C-:5][H:9])[H:8])([H:6])[H:7]"
C       -1.69688531      -0.42747048      -0.01019185
C       -0.66807573      -1.07934048       0.69195037
C        0.50365818      -0.76219369       0.38356630
C        1.23438082       0.28058385      -0.17565792
C        2.45509069       0.62352625       0.08203036
H       -2.37060343       0.20666727       0.56161518
H       -2.27551426      -1.11762836      -0.62542147
H       -0.27244130       0.83597853      -0.67682979
H        3.09039033       1.43987711      -0.23106117
9
Frame=13 idx=002122 GeodesicLength=1.5886410582392743 rxn_smarts="[C:1]([C:2]#[C:3][C:4]#[C:5][H:9])([H:6])([H:7])[H:8]>>[C+:1]([C:2]#[C:3][C:4](=[C-:5][H:9])[H:8])([H:6])[H:7]"
C       -1.72192778      -0.42553484      -0.02255304
C       -0.65546224      -1.04226111       0.65101385
C        0.52819048      -0.74790219       0.37282295
C        1.25614091       0.29708411      -0.18183719
C        2.48120215       0.61683966       0.09404147
H       -2.40051960       0.18250740       0.57207231
H       -2.31489849      -1.15422356      -0.57795649
H       -0.30917053       0.84850034      -0.70832006
H        3.13644511       1.42499020      -0.19928379
9
Frame=14 idx=002122 GeodesicLength=1.7100567873816275 rxn_smarts="[C:1]([C:2]#[C:3][C:4]#[C:5][H:9])([H:6])([H:7])[H:8]>>[C+:1]([C:2]#[C:3][C:4](=[C-:5][H:9])[H:8])([H:6])[H:7]"
C       -1.74918146      -0.42488751      -0.03565612
C       -0.64413552      -1.00570383       0.60357334
C        0.55122738      -0.72872240       0.36732992
C        1.27801932       0.31699763      -0.18328419
C        2.50600321       0.61445228       0.11303921
H       -2.43101343       0.15316554       0.58537843
H       -2.34934348      -1.18968360      -0.53321379
H       -0.34966422       0.86310251      -0.73885712
H        3.18808820       1.40127939      -0.17830970
9
Frame=15 idx=002122 GeodesicLength=1.8313474295839538 rxn_smarts="[C:1]([C:2]#[C:3][C:4]#[C:5][H:9])([H:6])([H:7])[H:8]>>[C+:1]([C:2]#[C:3][C:4](=[C-:5][H:9])[H:8])([H:6])[H:7]"
C       -1.77811792      -0.42356543      -0.04678519
C       -0.63270396      -0.97026327       0.54694680
C        0.57380014      -0.70970582       0.36023791
C        1.30195912       0.33398821      -0.18826934
C        2.53119878       0.61019440       0.13099680
H       -2.45351392       0.12775067       0.60568376
H       -2.38587616      -1.22172664      -0.48040596
H       -0.39146846       0.86918179      -0.78469259
H        3.23472240       1.38414609      -0.14371218
9
Frame=16 idx=002122 GeodesicLength=1.9522066948276515 rxn_smarts="[C:1]([C:2]#[C:3][C:4]#[C:5][H:9])([H:6])([H:7])[H:8]>>[C+:1]([C:2]#[C:3][C:4](=[C-:5][H:9])[H:8])([H:6])[H:7]"
C       -1.80890518      -0.42255899      -0.05741945
C       -0.62272876      -0.93361492       0.48283793
C        0.59330608      -0.68407707       0.36184199
C        1.32727877       0.34988476      -0.19310226
C        2.55619777       0.60623234       0.15100273
H       -2.47498576       0.09730668       0.63020995
H       -2.41624957      -1.25218603      -0.43024033
H       -0.43685297       0.87650997      -0.83210608
H        3.28293961       1.36250326      -0.11302448
