9
Frame=0 idx=005589 GeodesicLength=0.0 rxn_smarts="[N:1](=[C:2](/[N:3]([C:4](=[O:5])[H:9])[H:8])[H:7])\[H:6]>>[N+:1](=[C-:2][N:3]([C:4](=[O:5])[H:9])[H:8])([H:6])[H:7]"
N       -0.98600550       0.92448945       1.31453415
C       -0.49566732       0.65662465       0.08765086
N        0.45973674      -0.30244003       0.10563338
C        1.03160612      -0.79550347      -1.05412562
O        1.89089203      -1.63069100      -1.06038379
H       -1.61544528       1.72314601       1.23599513
H       -1.70455734       0.41572935       0.33771102
H        0.81599814      -0.65935559       0.98896842
H        0.60344238      -0.33199941      -1.95598358
9
Frame=1 idx=005589 GeodesicLength=0.06763194868477465 rxn_smarts="[N:1](=[C:2](/[N:3]([C:4](=[O:5])[H:9])[H:8])[H:7])\[H:6]>>[N+:1](=[C-:2][N:3]([C:4](=[O:5])[H:9])[H:8])([H:6])[H:7]"
N       -0.99584949       0.90833650       1.30503408
C       -0.49645249       0.63597401       0.09012375
N        0.46476242      -0.31513270       0.10700663
C        1.04145370      -0.79939594      -1.05349311
O        1.91237484      -1.62265216      -1.06144041
H       -1.62094655       1.71125163       1.28804209
H       -1.73470564       0.49255822       0.29028324
H        0.84566864      -0.64510932       0.99027561
H        0.58369455      -0.36583023      -1.95583188
9
Frame=2 idx=005589 GeodesicLength=0.13477047996358776 rxn_smarts="[N:1](=[C:2](/[N:3]([C:4](=[O:5])[H:9])[H:8])[H:7])\[H:6]>>[N+:1](=[C-:2][N:3]([C:4](=[O:5])[H:9])[H:8])([H:6])[H:7]"
N       -1.01046452       0.88638702       1.29481742
C       -0.49631033       0.61540429       0.09306390
N        0.47146288      -0.32692894       0.10894595
C        1.04973911      -0.80518786      -1.05272296
O        1.94288624      -1.60451392      -1.06232866
H       -1.62808327       1.69079476       1.34714899
H       -1.75552515       0.59115911       0.23385248
H        0.87330335      -0.63264966       0.99141543
H        0.55299167      -0.41446478      -1.95419255
9
Frame=3 idx=005589 GeodesicLength=0.2008964770027924 rxn_smarts="[N:1](=[C:2](/[N:3]([C:4](=[O:5])[H:9])[H:8])[H:7])\[H:6]>>[N+:1](=[C-:2][N:3]([C:4](=[O:5])[H:9])[H:8])([H:6])[H:7]"
N       -1.02967041       0.85978315       1.28271175
C       -0.49785645       0.59374269       0.09483485
N        0.48461430      -0.33101405       0.11081688
C        1.05075460      -0.81982948      -1.05177470
O        1.97353313      -1.58507774      -1.06361525
H       -1.64358888       1.65569148       1.41121685
H       -1.76221847       0.71027599       0.17424892
H        0.90376836      -0.61482868       0.99223222
H        0.52066383      -0.46874336      -1.95067152
9
Frame=4 idx=005589 GeodesicLength=0.26566662454696377 rxn_smarts="[N:1](=[C:2](/[N:3]([C:4](=[O:5])[H:9])[H:8])[H:7])\[H:6]>>[N+:1](=[C-:2][N:3]([C:4](=[O:5])[H:9])[H:8])([H:6])[H:7]"
N       -1.05101057       0.83196556       1.26814293
C       -0.51058499       0.56102401       0.09246895
N        0.50038629      -0.33008422       0.11072716
C        1.05137520      -0.83723885      -1.05059794
O        2.00218522      -1.56738954      -1.06441347
H       -1.66535503       1.60777589       1.47627035
H       -1.75428446       0.85033358       0.12245099
H        0.93586528      -0.58960135       0.99137725
H        0.49142306      -0.52678509      -1.94642622
9
Frame=5 idx=005589 GeodesicLength=0.32571349862256577 rxn_smarts="[N:1](=[C:2](/[N:3]([C:4](=[O:5])[H:9])[H:8])[H:7])\[H:6]>>[N+:1](=[C-:2][N:3]([C:4](=[O:5])[H:9])[H:8])([H:6])[H:7]"
N       -1.06563349       0.81563535       1.25350092
C       -0.54812267       0.50052762       0.08570705
N        0.51048031      -0.33121775       0.10733012
C        1.05717125      -0.84939031      -1.05049028
O        2.02938730      -1.55103210      -1.06331959
H       -1.68892547       1.55848634       1.53336641
H       -1.73060755       0.99796513       0.09091507
H        0.96382514      -0.55981009       0.98719124
H        0.47242518      -0.58116419      -1.94420094
9
Frame=6 idx=005589 GeodesicLength=0.37184021681581464 rxn_smarts="[N:1](=[C:2](/[N:3]([C:4](=[O:5])[H:9])[H:8])[H:7])\[H:6]>>[N+:1](=[C-:2][N:3]([C:4](=[O:5])[H:9])[H:8])([H:6])[H:7]"
N       -1.06725848       0.81943919       1.24339724
C       -0.60714029       0.41029288       0.08728319
N        0.51067010      -0.33932396       0.10468968
C        1.06404654      -0.85189713      -1.05191238
O        2.05290553      -1.53019616      -1.06458483
H       -1.72364147       1.50994506       1.57153148
H       -1.67229817       1.13848108       0.07008126
H        0.98812065      -0.52858590       0.98103301
H        0.45459560      -0.62815505      -1.94151865
9
Frame=7 idx=005589 GeodesicLength=0.40839476111039097 rxn_smarts="[N:1](=[C:2](/[N:3]([C:4](=[O:5])[H:9])[H:8])[H:7])\[H:6]>>[N+:1](=[C-:2][N:3]([C:4](=[O:5])[H:9])[H:8])([H:6])[H:7]"
N       -1.06606378       0.82759382       1.24093509
C       -0.65740970       0.32941418       0.10557308
N        0.51806523      -0.32808752       0.10366849
C        1.05531658      -0.85976780      -1.05133570
O        2.06133905      -1.51236660      -1.07106828
H       -1.78799844       1.44036456       1.58247425
H       -1.56242259       1.26251448       0.04906882
H        1.01540366      -0.49168960       0.97379301
H        0.42377000      -0.66797553      -1.93310877
9
Frame=8 idx=005589 GeodesicLength=0.45858437679865394 rxn_smarts="[N:1](=[C:2](/[N:3]([C:4](=[O:5])[H:9])[H:8])[H:7])\[H:6]>>[N+:1](=[C-:2][N:3]([C:4](=[O:5])[H:9])[H:8])([H:6])[H:7]"
N       -1.07213961       0.82692179       1.24512459
C       -0.68855473       0.28114137       0.12638663
N        0.52203910      -0.31280580       0.10252599
C        1.03865690      -0.87068801      -1.04909033
O        2.06120749      -1.49699255      -1.07840872
H       -1.85977515       1.36302773       1.56899444
H       -1.43100271       1.36247611       0.04243927
H        1.04256625      -0.44732352       0.96382639
H        0.38700246      -0.70575711      -1.92179826
9
Frame=9 idx=005589 GeodesicLength=0.5164426890664341 rxn_smarts="[N:1](=[C:2](/[N:3]([C:4](=[O:5])[H:9])[H:8])[H:7])\[H:6]>>[N+:1](=[C-:2][N:3]([C:4](=[O:5])[H:9])[H:8])([H:6])[H:7]"
N       -1.08317199       0.82199310       1.25117592
C       -0.71196668       0.24825123       0.14543458
N        0.51794350      -0.30796697       0.10346119
C        1.02174513      -0.88006506      -1.04630345
O        2.05909647      -1.48085658      -1.08638345
H       -1.91875164       1.30185611       1.54143089
H       -1.30647808       1.43245051       0.04968832
H        1.06666883      -0.40117801       0.95242679
H        0.35491446      -0.73448433      -1.91093080
9
Frame=10 idx=005589 GeodesicLength=0.5752958859462396 rxn_smarts="[N:1](=[C:2](/[N:3]([C:4](=[O:5])[H:9])[H:8])[H:7])\[H:6]>>[N+:1](=[C-:2][N:3]([C:4](=[O:5])[H:9])[H:8])([H:6])[H:7]"
N       -1.09987531       0.80883497       1.25668695
C       -0.72812995       0.23079934       0.15629338
N        0.51468299      -0.29932502       0.10162275
C        1.01178618      -0.88029120      -1.04605982
O        2.04607130      -1.48651400      -1.08633628
H       -1.97178347       1.24237423       1.51109753
H       -1.19354834       1.48799648       0.07357851
H        1.09156673      -0.34385393       0.93547598
H        0.32922986      -0.76002088      -1.90235901
9
Frame=11 idx=005589 GeodesicLength=0.6355828974113699 rxn_smarts="[N:1](=[C:2](/[N:3]([C:4](=[O:5])[H:9])[H:8])[H:7])\[H:6]>>[N+:1](=[C-:2][N:3]([C:4](=[O:5])[H:9])[H:8])([H:6])[H:7]"
N       -1.11336366       0.80421824       1.26064279
C       -0.74782604       0.20767830       0.17107025
N        0.50064623      -0.31265708       0.10774627
C        0.99600999      -0.88918657      -1.04232993
O        2.04642884      -1.46620485      -1.09420237
H       -2.00977523       1.20778791       1.47678073
H       -1.08754180       1.52038847       0.09457221
H        1.10874814      -0.29630485       0.91991725
H        0.30667353      -0.77571958      -1.89419719
9
Frame=12 idx=005589 GeodesicLength=0.6965791221287732 rxn_smarts="[N:1](=[C:2](/[N:3]([C:4](=[O:5])[H:9])[H:8])[H:7])\[H:6]>>[N+:1](=[C-:2][N:3]([C:4](=[O:5])[H:9])[H:8])([H:6])[H:7]"
N       -1.12776507       0.80046709       1.26290972
C       -0.76502793       0.18969935       0.18330686
N        0.48665479      -0.32734029       0.11501965
C        0.98188954      -0.89584114      -1.03872137
O        2.04818899      -1.44181879      -1.10314743
H       -2.04372931       1.17837933       1.44068011
H       -0.98448614       1.54411133       0.12127607
H        1.12098896      -0.25259214       0.90338943
H        0.28328615      -0.79506474      -1.88471305
9
Frame=13 idx=005589 GeodesicLength=0.7579099200069653 rxn_smarts="[N:1](=[C:2](/[N:3]([C:4](=[O:5])[H:9])[H:8])[H:7])\[H:6]>>[N+:1](=[C-:2][N:3]([C:4](=[O:5])[H:9])[H:8])([H:6])[H:7]"
N       -1.14326279       0.79695492       1.26302118
C       -0.77863506       0.17977694       0.19073172
N        0.47563298      -0.33613254       0.12012885
C        0.97329569      -0.89237288      -1.03829279
O        2.04959664      -1.41743119      -1.11182084
H       -2.07591606       1.14923605       1.40356903
H       -0.88438401       1.56454306       0.15657085
H        1.12761088      -0.21683344       0.88834702
H        0.25606173      -0.82774092      -1.87225503
9
Frame=14 idx=005589 GeodesicLength=0.8194647867013182 rxn_smarts="[N:1](=[C:2](/[N:3]([C:4](=[O:5])[H:9])[H:8])[H:7])\[H:6]>>[N+:1](=[C-:2][N:3]([C:4](=[O:5])[H:9])[H:8])([H:6])[H:7]"
N       -1.15599181       0.79978168       1.26090175
C       -0.79186498       0.17026536       0.19867268
N        0.46475978      -0.34534011       0.12609298
C        0.96237730      -0.89374170      -1.03587349
O        2.05400778      -1.38406097      -1.12346807
H       -2.10279428       1.12546057       1.36804676
H       -0.79166199       1.57557427       0.18879787
H        1.13012777      -0.19001946       0.87619788
H        0.23104044      -0.85791965      -1.85936836
9
Frame=15 idx=005589 GeodesicLength=0.8810539173855109 rxn_smarts="[N:1](=[C:2](/[N:3]([C:4](=[O:5])[H:9])[H:8])[H:7])\[H:6]>>[N+:1](=[C-:2][N:3]([C:4](=[O:5])[H:9])[H:8])([H:6])[H:7]"
N       -1.16912212       0.80400287       1.25634879
C       -0.80265901       0.16790506       0.20189979
N        0.45574775      -0.34908012       0.12898927
C        0.95619077      -0.88422722      -1.03778633
O        2.05757484      -1.35062862      -1.13523841
H       -2.12860799       1.10025634       1.33303133
H       -0.70138918       1.58590805       0.22806498
H        1.12878185      -0.17155828       0.86725132
H        0.20348310      -0.90257808      -1.84256074
9
Frame=16 idx=005589 GeodesicLength=0.9427790696606494 rxn_smarts="[N:1](=[C:2](/[N:3]([C:4](=[O:5])[H:9])[H:8])[H:7])\[H:6]>>[N+:1](=[C-:2][N:3]([C:4](=[O:5])[H:9])[H:8])([H:6])[H:7]"
N       -1.18114046       0.81230016       1.24938899
C       -0.81275138       0.16819831       0.20354779
N        0.44685097      -0.35177519       0.13120857
C        0.94947286      -0.87461696      -1.04010017
O        2.06108958      -1.31395998      -1.14832899
H       -2.15206989       1.07555069       1.29981979
H       -0.61505574       1.59185734       0.26813674
H        1.12552618      -0.15811011       0.86018773
H        0.17807787      -0.94944427      -1.82386044
