14
Frame=0 idx=005227 GeodesicLength=0.0 rxn_smarts="[C:1]([N:2]([C@@:3]([C:4]([H:12])([H:13])[H:14])([C:5]#[N:6])[H:11])[H:10])([H:7])([H:8])[H:9]>>[C:1]([N:2]([C:5]1=[N:6][C@@:3]1([C:4]([H:12])([H:13])[H:14])[H:11])[H:10])([H:7])([H:8])[H:9]"
C        2.16621338       0.21925852       0.49845503
N        0.74412018       0.02084977       0.72040702
C       -0.76044488      -0.08439771      -0.72617926
C       -2.06025378      -0.75740837      -0.55675406
C       -0.24840075       0.96256010       0.12720738
N       -0.51756017       2.13733751       0.28437896
H        2.33267406       0.41406946      -0.56226102
H        2.73221287      -0.66797950       0.78394963
H        2.53615113       1.08150912       1.05820021
H        0.49897927      -0.29293017       1.65124603
H       -0.19801087      -0.30202551      -1.63357813
H       -2.75393934      -0.30024941      -1.27381466
H       -2.00212438      -1.81642899      -0.81306447
H       -2.46961668      -0.61416482       0.44180734
14
Frame=1 idx=005227 GeodesicLength=0.06318314183763359 rxn_smarts="[C:1]([N:2]([C@@:3]([C:4]([H:12])([H:13])[H:14])([C:5]#[N:6])[H:11])[H:10])([H:7])([H:8])[H:9]>>[C:1]([N:2]([C:5]1=[N:6][C@@:3]1([C:4]([H:12])([H:13])[H:14])[H:11])[H:10])([H:7])([H:8])[H:9]"
C        2.16603061       0.21970589       0.50184435
N        0.74685658      -0.00555649       0.71531063
C       -0.75540880      -0.08115812      -0.71769536
C       -2.05946249      -0.75139026      -0.55090859
C       -0.25383490       0.95951925       0.14630609
N       -0.51850587       2.14033232       0.22351587
H        2.33607108       0.42148438      -0.55694395
H        2.74562286      -0.65830095       0.78829140
H        2.51819422       1.08630186       1.06680565
H        0.50222171      -0.32989923       1.64223388
H       -0.20334971      -0.28488279      -1.63449726
H       -2.75455613      -0.29209990      -1.26461746
H       -2.00178433      -1.81014691      -0.80857456
H       -2.46809484      -0.61390905       0.44892932
14
Frame=2 idx=005227 GeodesicLength=0.12653426825605724 rxn_smarts="[C:1]([N:2]([C@@:3]([C:4]([H:12])([H:13])[H:14])([C:5]#[N:6])[H:11])[H:10])([H:7])([H:8])[H:9]>>[C:1]([N:2]([C:5]1=[N:6][C@@:3]1([C:4]([H:12])([H:13])[H:14])[H:11])[H:10])([H:7])([H:8])[H:9]"
C        2.16548863       0.22016548       0.50526144
N        0.74938242      -0.03066422       0.70898480
C       -0.75033392      -0.07689233      -0.70953145
C       -2.05817537      -0.74511528      -0.54456863
C       -0.25909373       0.95835088       0.16445568
N       -0.51971573       2.14013385       0.16319530
H        2.33981193       0.43000643      -0.55120631
H        2.75752268      -0.64925049       0.79215269
H        2.50017552       1.08985317       1.07654159
H        0.50478345      -0.36733951       1.63108025
H       -0.20852465      -0.26813077      -1.63497715
H       -2.75494587      -0.28489250      -1.25541872
H       -2.00021192      -1.80387140      -0.80230640
H       -2.46616343      -0.61235331       0.45633690
14
Frame=3 idx=005227 GeodesicLength=0.1901367684819084 rxn_smarts="[C:1]([N:2]([C@@:3]([C:4]([H:12])([H:13])[H:14])([C:5]#[N:6])[H:11])[H:10])([H:7])([H:8])[H:9]>>[C:1]([N:2]([C:5]1=[N:6][C@@:3]1([C:4]([H:12])([H:13])[H:14])[H:11])[H:10])([H:7])([H:8])[H:9]"
C        2.16475376       0.22061140       0.50874961
N        0.75174894      -0.05450773       0.70121560
C       -0.74519122      -0.07181185      -0.70205433
C       -2.05647530      -0.73860541      -0.53778867
C       -0.26378953       0.95900640       0.18079428
N       -0.52187904       2.13694387       0.10505182
H        2.34435233       0.43915192      -0.54502607
H        2.76812204      -0.64075579       0.79610711
H        2.48212780       1.09239108       1.08717389
H        0.50650789      -0.40474743       1.61765145
H       -0.21363295      -0.25206873      -1.63554350
H       -2.75527614      -0.27858748      -1.24619159
H       -1.99768186      -1.79768411      -0.79421262
H       -2.46368672      -0.60933615       0.46407303
14
Frame=4 idx=005227 GeodesicLength=0.2540530984700904 rxn_smarts="[C:1]([N:2]([C@@:3]([C:4]([H:12])([H:13])[H:14])([C:5]#[N:6])[H:11])[H:10])([H:7])([H:8])[H:9]>>[C:1]([N:2]([C:5]1=[N:6][C@@:3]1([C:4]([H:12])([H:13])[H:14])[H:11])[H:10])([H:7])([H:8])[H:9]"
C        2.16386129       0.22096331       0.51226195
N        0.75403665      -0.07711832       0.69201190
C       -0.73990745      -0.06614926      -0.69544081
C       -2.05430766      -0.73185413      -0.53069910
C       -0.26762204       0.96130850       0.19486144
N       -0.52586908       2.13096071       0.05048910
H        2.34977879       0.44826760      -0.53850948
H        2.77742904      -0.63275943       0.80056514
H        2.46413420       1.09407692       1.09824017
H        0.50747198      -0.44147901       1.60212172
H       -0.21876482      -0.23686770      -1.63647869
H       -2.75541411      -0.27315590      -1.23706281
H       -1.99432917      -1.79155242      -0.78436581
H       -2.46049760      -0.60464087       0.47200529
14
Frame=5 idx=005227 GeodesicLength=0.31817521968714174 rxn_smarts="[C:1]([N:2]([C@@:3]([C:4]([H:12])([H:13])[H:14])([C:5]#[N:6])[H:11])[H:10])([H:7])([H:8])[H:9]>>[C:1]([N:2]([C:5]1=[N:6][C@@:3]1([C:4]([H:12])([H:13])[H:14])[H:11])[H:10])([H:7])([H:8])[H:9]"
C        2.16278884       0.22121178       0.51586035
N        0.75621933      -0.09875108       0.68134599
C       -0.73453761      -0.05999408      -0.68976989
C       -2.05174033      -0.72497388      -0.52326679
C       -0.27069985       0.96492521       0.20676082
N       -0.53096092       2.12311079      -0.00090315
H        2.35612361       0.45742764      -0.53155180
H        2.78561019      -0.62517639       0.80563914
H        2.44590773       1.09496677       1.10982483
H        0.50761606      -0.47755709       1.58452486
H       -0.22399235      -0.22238131      -1.63802404
H       -2.75557804      -0.26854403      -1.22775920
H       -1.99022421      -1.78553264      -0.77299054
H       -2.45653245      -0.59873167       0.48030941
14
Frame=6 idx=005227 GeodesicLength=0.3826068689308948 rxn_smarts="[C:1]([N:2]([C@@:3]([C:4]([H:12])([H:13])[H:14])([C:5]#[N:6])[H:11])[H:10])([H:7])([H:8])[H:9]>>[C:1]([N:2]([C:5]1=[N:6][C@@:3]1([C:4]([H:12])([H:13])[H:14])[H:11])[H:10])([H:7])([H:8])[H:9]"
C        2.16156039       0.22126317       0.51944726
N        0.75837796      -0.11937262       0.66953205
C       -0.72898933      -0.05354418      -0.68493437
C       -2.04872439      -0.71799458      -0.51568081
C       -0.27295841       0.96973143       0.21654717
N       -0.53794071       2.11356362      -0.04852129
H        2.36321647       0.46607858      -0.52434753
H        2.79261700      -0.61809533       0.81141997
H        2.42775184       1.09517677       1.12139375
H        0.50717147      -0.51234737       1.56542249
H       -0.22928612      -0.20861549      -1.64009106
H       -2.75554510      -0.26461550      -1.21847245
H       -1.98547253      -1.77958278      -0.76045596
H       -2.45177852      -0.59164573       0.48874077
14
Frame=7 idx=005227 GeodesicLength=0.44727900170250334 rxn_smarts="[C:1]([N:2]([C@@:3]([C:4]([H:12])([H:13])[H:14])([C:5]#[N:6])[H:11])[H:10])([H:7])([H:8])[H:9]>>[C:1]([N:2]([C:5]1=[N:6][C@@:3]1([C:4]([H:12])([H:13])[H:14])[H:11])[H:10])([H:7])([H:8])[H:9]"
C        2.16029947       0.22114633       0.52310171
N        0.76054765      -0.13919798       0.65662954
C       -0.72335473      -0.04682961      -0.68091445
C       -2.04546077      -0.71103162      -0.50792390
C       -0.27460543       0.97553635       0.22446654
N       -0.54617493       2.10308141      -0.09316280
H        2.37117916       0.47446438      -0.51679020
H        2.79877792      -0.61149499       0.81794707
H        2.40960490       1.09479081       1.13307848
H        0.50616790      -0.54611127       1.54491263
H       -0.23466292      -0.19540016      -1.64274721
H       -2.75564874      -0.26128637      -1.20903987
H       -1.98023867      -1.77381783      -0.74696653
H       -2.44643082      -0.58384947       0.49740900
14
Frame=8 idx=005227 GeodesicLength=0.5121770997297352 rxn_smarts="[C:1]([N:2]([C@@:3]([C:4]([H:12])([H:13])[H:14])([C:5]#[N:6])[H:11])[H:10])([H:7])([H:8])[H:9]>>[C:1]([N:2]([C:5]1=[N:6][C@@:3]1([C:4]([H:12])([H:13])[H:14])[H:11])[H:10])([H:7])([H:8])[H:9]"
C        2.15893293       0.22090335       0.52686240
N        0.76276606      -0.15835662       0.64259726
C       -0.71765618      -0.03993989      -0.67767076
C       -2.04193872      -0.70407694      -0.49995939
C       -0.27568528       0.98213137       0.23067752
N       -0.55526303       2.09185669      -0.13529470
H        2.37989718       0.48281308      -0.50875301
H        2.80410130      -0.60526688       0.82513499
H        2.39126108       1.09377211       1.14505429
H        0.50469715      -0.57903529       1.52290455
H       -0.24025793      -0.18272662      -1.64601347
H       -2.75585530      -0.25854134      -1.19937413
H       -1.97456490      -1.76817651      -0.73251466
H       -2.44043438      -0.57535651       0.50634912
14
Frame=9 idx=005227 GeodesicLength=0.5773656574886818 rxn_smarts="[C:1]([N:2]([C@@:3]([C:4]([H:12])([H:13])[H:14])([C:5]#[N:6])[H:11])[H:10])([H:7])([H:8])[H:9]>>[C:1]([N:2]([C:5]1=[N:6][C@@:3]1([C:4]([H:12])([H:13])[H:14])[H:11])[H:10])([H:7])([H:8])[H:9]"
C        2.15735198       0.22046877       0.53063787
N        0.76501690      -0.17683109       0.62763968
C       -0.71181797      -0.03294237      -0.67507029
C       -2.03803329      -0.69712939      -0.49186961
C       -0.27622181       0.98944488       0.23536089
N       -0.56545203       2.07990719      -0.17480667
H        2.38910115       0.49081245      -0.50036804
H        2.80842584      -0.59945480       0.83291276
H        2.37276210       1.09216112       1.15699980
H        0.50285540      -0.61078952       1.49974758
H       -0.24601374      -0.17055637      -1.64973944
H       -2.75591288      -0.25628714      -1.18951493
H       -1.96837321      -1.76257077      -0.71737062
H       -2.43368844      -0.56623297       0.51544102
14
Frame=10 idx=005227 GeodesicLength=0.6428636581286986 rxn_smarts="[C:1]([N:2]([C@@:3]([C:4]([H:12])([H:13])[H:14])([C:5]#[N:6])[H:11])[H:10])([H:7])([H:8])[H:9]>>[C:1]([N:2]([C:5]1=[N:6][C@@:3]1([C:4]([H:12])([H:13])[H:14])[H:11])[H:10])([H:7])([H:8])[H:9]"
C        2.15576919       0.21988379       0.53451589
N        0.76738882      -0.19477375       0.61174641
C       -0.70592585      -0.02582167      -0.67314063
C       -2.03397737      -0.69026039      -0.48361216
C       -0.27637294       0.99744692       0.23859313
N       -0.57648755       2.06770166      -0.21232038
H        2.39908320       0.49880584      -0.49151681
H        2.81213242      -0.59410825       0.84131437
H        2.35414051       1.08997821       1.16913536
H        0.50067314      -0.64175709       1.47542632
H       -0.25192630      -0.15877164      -1.65402309
H       -2.75615355      -0.25451285      -1.17943874
H       -1.96181651      -1.75715455      -0.70145205
H       -2.42652720      -0.55665623       0.52477238
14
Frame=11 idx=005227 GeodesicLength=0.7085172364036247 rxn_smarts="[C:1]([N:2]([C@@:3]([C:4]([H:12])([H:13])[H:14])([C:5]#[N:6])[H:11])[H:10])([H:7])([H:8])[H:9]>>[C:1]([N:2]([C:5]1=[N:6][C@@:3]1([C:4]([H:12])([H:13])[H:14])[H:11])[H:10])([H:7])([H:8])[H:9]"
C        2.15393497       0.21918720       0.53852016
N        0.76985859      -0.21219118       0.59479762
C       -0.69998511      -0.01863209      -0.67184048
C       -2.02960169      -0.68341622      -0.47513828
C       -0.27606475       1.00594505       0.24049010
N       -0.58787015       2.05512062      -0.24811427
H        2.40948532       0.50687822      -0.48201183
H        2.81490878      -0.58905548       0.85023058
H        2.33511024       1.08713920       1.18158806
H        0.49823512      -0.67195571       1.44966977
H       -0.25822494      -0.14744968      -1.65880129
H       -2.75639586      -0.25325236      -1.16896002
H       -1.95481777      -1.75173381      -0.68478716
H       -2.41857275      -0.54658376       0.53435705
14
Frame=12 idx=005227 GeodesicLength=0.7744837947230042 rxn_smarts="[C:1]([N:2]([C@@:3]([C:4]([H:12])([H:13])[H:14])([C:5]#[N:6])[H:11])[H:10])([H:7])([H:8])[H:9]>>[C:1]([N:2]([C:5]1=[N:6][C@@:3]1([C:4]([H:12])([H:13])[H:14])[H:11])[H:10])([H:7])([H:8])[H:9]"
C        2.15196377       0.21831520       0.54259225
N        0.77245160      -0.22912114       0.57699718
C       -0.69396319      -0.01135318      -0.67110073
C       -2.02497129      -0.67664168      -0.46650525
C       -0.27543256       1.01502268       0.24115535
N       -0.59996811       2.04238032      -0.28220435
H        2.42039716       0.51488617      -0.47201145
H        2.81692784      -0.58446763       0.85965440
H        2.31582903       1.08371436       1.19412635
H        0.49556427      -0.70131223       1.42287000
H       -0.26471202      -0.13646685      -1.66402307
H       -2.75664573      -0.25243428      -1.15821199
H       -1.94734806      -1.74640618      -0.66747816
H       -2.41009270      -0.53611558       0.54413947
14
Frame=13 idx=005227 GeodesicLength=0.8406852173957429 rxn_smarts="[C:1]([N:2]([C@@:3]([C:4]([H:12])([H:13])[H:14])([C:5]#[N:6])[H:11])[H:10])([H:7])([H:8])[H:9]>>[C:1]([N:2]([C:5]1=[N:6][C@@:3]1([C:4]([H:12])([H:13])[H:14])[H:11])[H:10])([H:7])([H:8])[H:9]"
C        2.14982027       0.21726952       0.54673491
N        0.77517312      -0.24558278       0.55837630
C       -0.68787234      -0.00397592      -0.67087733
C       -2.02007752      -0.66994542      -0.45771087
C       -0.27452460       1.02462706       0.24070622
N       -0.61259037       2.02957333      -0.31480563
H        2.43171611       0.52283948      -0.46147565
H        2.81816917      -0.58032987       0.86954775
H        2.29626012       1.07970427       1.20673149
H        0.49271157      -0.72985828       1.39504762
H       -0.27142787      -0.12577524      -1.66964533
H       -2.75690107      -0.25207754      -1.14717362
H       -1.93937919      -1.74114569      -0.64956457
H       -2.40107742      -0.52532291       0.55410871
14
Frame=14 idx=005227 GeodesicLength=0.907085196473779 rxn_smarts="[C:1]([N:2]([C@@:3]([C:4]([H:12])([H:13])[H:14])([C:5]#[N:6])[H:11])[H:10])([H:7])([H:8])[H:9]>>[C:1]([N:2]([C:5]1=[N:6][C@@:3]1([C:4]([H:12])([H:13])[H:14])[H:11])[H:10])([H:7])([H:8])[H:9]"
C        2.14745018       0.21603856       0.55092849
N        0.77801233      -0.26158041       0.53898810
C       -0.68170449       0.00350769      -0.67111718
C       -2.01488005      -0.66332935      -0.44876378
C       -0.27338026       1.03472743       0.23924874
N       -0.62564242       2.01674198      -0.34602947
H        2.44331849       0.53067077      -0.45040711
H        2.81857109      -0.57664229       0.87987150
H        2.27637130       1.07512821       1.21931774
H        0.48970781      -0.75755574       1.36627445
H       -0.27837468      -0.11534605      -1.67560199
H       -2.75710630      -0.25217370      -1.13582222
H       -1.93085851      -1.73591386      -0.63113111
H       -2.39148451      -0.51427323       0.56424385
14
Frame=15 idx=005227 GeodesicLength=0.9736947586767897 rxn_smarts="[C:1]([N:2]([C@@:3]([C:4]([H:12])([H:13])[H:14])([C:5]#[N:6])[H:11])[H:10])([H:7])([H:8])[H:9]>>[C:1]([N:2]([C:5]1=[N:6][C@@:3]1([C:4]([H:12])([H:13])[H:14])[H:11])[H:10])([H:7])([H:8])[H:9]"
C        2.14483875       0.21459851       0.55514332
N        0.78096512      -0.27712734       0.51891314
C       -0.67544610       0.01111264      -0.67176995
C       -2.00936187      -0.65680071      -0.43968240
C       -0.27204809       1.04532987       0.23686936
N       -0.63916294       2.00394078      -0.37593862
H        2.45513446       0.53831879      -0.43884444
H        2.81812876      -0.57344666       0.89057685
H        2.25618043       1.07000483       1.23179101
H        0.48657524      -0.78437761       1.33668544
H       -0.28550932      -0.10513080      -1.68183676
H       -2.75721072      -0.25272300      -1.12419805
H       -1.92172896      -1.73070699      -0.61221765
H       -2.38135478      -0.50299231       0.57450876
14
Frame=16 idx=005227 GeodesicLength=1.0404871230191182 rxn_smarts="[C:1]([N:2]([C@@:3]([C:4]([H:12])([H:13])[H:14])([C:5]#[N:6])[H:11])[H:10])([H:7])([H:8])[H:9]>>[C:1]([N:2]([C:5]1=[N:6][C@@:3]1([C:4]([H:12])([H:13])[H:14])[H:11])[H:10])([H:7])([H:8])[H:9]"
C        2.14195863       0.21293665       0.55935754
N        0.78402159      -0.29223241       0.49821431
C       -0.66908999       0.01885849      -0.67278716
C       -2.00350056      -0.65036451      -0.43047827
C       -0.27057296       1.05642394       0.23366320
N       -0.65309624       1.99121558      -0.40460978
H        2.46707554       0.54571609      -0.42681195
H        2.81681839      -0.57075578       0.90162324
H        2.23568273       1.06436335       1.24406563
H        0.48332926      -0.81030747       1.30637130
H       -0.29281724      -0.09508371      -1.68829274
H       -2.75717276      -0.25373969      -1.11231907
H       -1.91193569      -1.72550738      -0.59287023
H       -2.37070071      -0.49152313       0.58487397
