15
Frame=0 idx=000985 GeodesicLength=0.0 rxn_smarts="[C:1]([N:2]([C:3]([H:10])([H:11])[H:12])[C:4]([C:5](=[O:6])[H:15])([H:13])[H:14])([H:7])([H:8])[H:9]>>[C:1](=[N+:2]([C:3]([H:10])([H:11])[H:12])[C:4]([C:5]([O-:6])([H:7])[H:15])([H:13])[H:14])([H:8])[H:9]"
C       -1.24465958      -0.40487097      -0.70941894
N       -0.57405126      -0.07189228       0.36799485
C       -0.74619398       1.22459250       1.00749749
C        0.65721317      -0.77126050       0.50325639
C        1.43136502      -0.36356967      -0.87547703
O        2.47917154      -0.99174786      -1.13656835
H        0.43616998      -0.55536368      -1.54624070
H       -2.00968993       0.26261588      -1.08490718
H       -1.25681581      -1.44030127      -1.01811876
H       -1.19366445       1.09251063       1.99369204
H        0.21866320       1.71600076       1.11525502
H       -1.39877656       1.85083552       0.40140292
H        0.52371314      -1.85194673       0.48592054
H        1.21245855      -0.46097621       1.38599143
H        1.46509697       0.76537392      -0.89027970
15
Frame=1 idx=000985 GeodesicLength=0.11572789192624076 rxn_smarts="[C:1]([N:2]([C:3]([H:10])([H:11])[H:12])[C:4]([C:5](=[O:6])[H:15])([H:13])[H:14])([H:7])([H:8])[H:9]>>[C:1](=[N+:2]([C:3]([H:10])([H:11])[H:12])[C:4]([C:5]([O-:6])([H:7])[H:15])([H:13])[H:14])([H:8])[H:9]"
C       -1.25172382      -0.41857731      -0.69741048
N       -0.57243812      -0.08033370       0.37818119
C       -0.73981792       1.22660675       0.99562268
C        0.66501501      -0.77232393       0.49615752
C        1.43690400      -0.34747215      -0.87587337
O        2.47969819      -0.97589025      -1.15212935
H        0.40140228      -0.53418360      -1.54842617
H       -2.04527714       0.22883561      -1.04834640
H       -1.27241392      -1.45804300      -0.99297205
H       -1.26303841       1.11452719       1.94615888
H        0.22604035       1.69476633       1.17374028
H       -1.31624233       1.87989720       0.34193461
H        0.54361193      -1.85461808       0.45945229
H        1.21863925      -0.48371917       1.38676822
H        1.48964065       0.78052811      -0.86285787
15
Frame=2 idx=000985 GeodesicLength=0.23126450329241832 rxn_smarts="[C:1]([N:2]([C:3]([H:10])([H:11])[H:12])[C:4]([C:5](=[O:6])[H:15])([H:13])[H:14])([H:7])([H:8])[H:9]>>[C:1](=[N+:2]([C:3]([H:10])([H:11])[H:12])[C:4]([C:5]([O-:6])([H:7])[H:15])([H:13])[H:14])([H:8])[H:9]"
C       -1.25914069      -0.43170938      -0.68507008
N       -0.57097506      -0.08890636       0.38872265
C       -0.73369596       1.22833803       0.98362175
C        0.67253342      -0.77320039       0.48882857
C        1.44265533      -0.33089694      -0.87583787
O        2.48033792      -0.95925413      -1.16729405
H        0.36551667      -0.51419991      -1.55004773
H       -2.07764136       0.19731970      -1.01159572
H       -1.28844354      -1.47497285      -0.96726211
H       -1.32819747       1.13956738       1.89363576
H        0.22760351       1.67390804       1.23035123
H       -1.23246308       1.90211650       0.28753974
H        0.56282582      -1.85651350       0.43229237
H        1.22455454      -0.50668111       1.38679712
H        1.51452995       0.79508492      -0.83468162
15
Frame=3 idx=000985 GeodesicLength=0.34684277948568487 rxn_smarts="[C:1]([N:2]([C:3]([H:10])([H:11])[H:12])[C:4]([C:5](=[O:6])[H:15])([H:13])[H:14])([H:7])([H:8])[H:9]>>[C:1](=[N+:2]([C:3]([H:10])([H:11])[H:12])[C:4]([C:5]([O-:6])([H:7])[H:15])([H:13])[H:14])([H:8])[H:9]"
C       -1.26692909      -0.44431336      -0.67247669
N       -0.56962059      -0.09748074       0.39945802
C       -0.72781072       1.22978879       0.97154211
C        0.67977813      -0.77386111       0.48124801
C        1.44875094      -0.31381855      -0.87525505
O        2.48122220      -0.94187369      -1.18189816
H        0.32852488      -0.49563646      -1.55117256
H       -2.10716444       0.16798977      -0.97510797
H       -1.30497009      -1.49118742      -0.94090736
H       -1.38849531       1.16692380       1.83672663
H        0.22380870       1.65376262       1.28445493
H       -1.14854891       1.91813792       0.23853615
H        0.58133800      -1.85759989       0.40440774
H        1.23020043      -0.52987655       1.38608604
H        1.53991590       0.80904487      -0.80564184
15
Frame=4 idx=000985 GeodesicLength=0.4625769610773533 rxn_smarts="[C:1]([N:2]([C:3]([H:10])([H:11])[H:12])[C:4]([C:5](=[O:6])[H:15])([H:13])[H:14])([H:7])([H:8])[H:9]>>[C:1](=[N+:2]([C:3]([H:10])([H:11])[H:12])[C:4]([C:5]([O-:6])([H:7])[H:15])([H:13])[H:14])([H:8])[H:9]"
C       -1.27507963      -0.45648663      -0.65974943
N       -0.56832402      -0.10593999       0.41024245
C       -0.72215286       1.23103967       0.95945368
C        0.68673289      -0.77431820       0.47343080
C        1.45530406      -0.29619926      -0.87405942
O        2.48242960      -0.92378826      -1.19587405
H        0.29044257      -0.47869358      -1.55198597
H       -2.13422814       0.14065596      -0.93927642
H       -1.32199043      -1.50687150      -0.91389299
H       -1.44343528       1.19590597       1.77622943
H        0.21519478       1.63473157       1.33557395
H       -1.06543548       1.92879947       0.19501025
H        0.59910859      -1.85793720       0.37580369
H        1.23550225      -0.55336279       1.38474798
H        1.56593111       0.82246477      -0.77565395
15
Frame=5 idx=000985 GeodesicLength=0.5783782306636476 rxn_smarts="[C:1]([N:2]([C:3]([H:10])([H:11])[H:12])[C:4]([C:5](=[O:6])[H:15])([H:13])[H:14])([H:7])([H:8])[H:9]>>[C:1](=[N+:2]([C:3]([H:10])([H:11])[H:12])[C:4]([C:5]([O-:6])([H:7])[H:15])([H:13])[H:14])([H:8])[H:9]"
C       -1.28356978      -0.46826426      -0.64693999
N       -0.56703320      -0.11415982       0.42090406
C       -0.71673226       1.23211281       0.94736122
C        0.69337205      -0.77455806       0.46533868
C        1.46245103      -0.27800480      -0.87216754
O        2.48407198      -0.90500157      -1.20913976
H        0.25130110      -0.46356577      -1.55255207
H       -2.15920339       0.11511023      -0.90423340
H       -1.33949240      -1.52204841      -0.88609417
H       -1.49282136       1.22573875       1.71279369
H        0.20234962       1.61707771       1.38327806
H       -0.98379257       1.93491598       0.15688995
H        0.61607606      -1.85748969       0.34645245
H        1.24034774      -0.57719657       1.38277067
H        1.59267539       0.83533346      -0.74466185
15
Frame=6 idx=000985 GeodesicLength=0.6942771211741816 rxn_smarts="[C:1]([N:2]([C:3]([H:10])([H:11])[H:12])[C:4]([C:5](=[O:6])[H:15])([H:13])[H:14])([H:7])([H:8])[H:9]>>[C:1](=[N+:2]([C:3]([H:10])([H:11])[H:12])[C:4]([C:5]([O-:6])([H:7])[H:15])([H:13])[H:14])([H:8])[H:9]"
C       -1.29241802      -0.47972832      -0.63403812
N       -0.56572642      -0.12205276       0.43132513
C       -0.71151036       1.23307396       0.93511056
C        0.69965875      -0.77457756       0.45690906
C        1.47032432      -0.25914248      -0.86943887
O        2.48617471      -0.88549299      -1.22169097
H        0.21107551      -0.45014024      -1.55299260
H       -2.18265401       0.09090081      -0.86973946
H       -1.35737623      -1.53677700      -0.85749378
H       -1.53651744       1.25607016       1.64695559
H        0.18585652       1.60090429       1.42732212
H       -0.90412382       1.93710288       0.12372702
H        0.63220145      -1.85620133       0.31618893
H        1.24459277      -0.60155401       1.38012888
H        1.62044227       0.84761458      -0.71227351
15
Frame=7 idx=000985 GeodesicLength=0.8102594361167388 rxn_smarts="[C:1]([N:2]([C:3]([H:10])([H:11])[H:12])[C:4]([C:5](=[O:6])[H:15])([H:13])[H:14])([H:7])([H:8])[H:9]>>[C:1](=[N+:2]([C:3]([H:10])([H:11])[H:12])[C:4]([C:5]([O-:6])([H:7])[H:15])([H:13])[H:14])([H:8])[H:9]"
C       -1.30164868      -0.49095158      -0.62103817
N       -0.56435868      -0.12954566       0.44139376
C       -0.70644471       1.23397903       0.92260483
C        0.70558482      -0.77438914       0.44808525
C        1.47904138      -0.23953146      -0.86574905
O        2.48878089      -0.86519042      -1.23351679
H        0.16970447      -0.43843694      -1.55339328
H       -2.20497889       0.06770800      -0.83559752
H       -1.37559405      -1.55111430      -0.82802032
H       -1.57462131       1.28649165       1.57914131
H        0.16627748       1.58633060       1.46757028
H       -0.82671977       1.93601197       0.09509434
H        0.64746656      -1.85404126       0.28486937
H        1.24814152      -0.62659466       1.37679098
H        1.64936896       0.85927417      -0.67823499
15
Frame=8 idx=000985 GeodesicLength=0.9263216742749277 rxn_smarts="[C:1]([N:2]([C:3]([H:10])([H:11])[H:12])[C:4]([C:5](=[O:6])[H:15])([H:13])[H:14])([H:7])([H:8])[H:9]>>[C:1](=[N+:2]([C:3]([H:10])([H:11])[H:12])[C:4]([C:5]([O-:6])([H:7])[H:15])([H:13])[H:14])([H:8])[H:9]"
C       -1.31130135      -0.50201353      -0.60789625
N       -0.56289654      -0.13658314       0.45102810
C       -0.70151346       1.23490550       0.90973400
C        0.71114747      -0.77402319       0.43880286
C        1.48874313      -0.21909636      -0.86097361
O        2.49195862      -0.84401838      -1.24465286
H        0.12709195      -0.42843278      -1.55384132
H       -2.22651024       0.04524894      -0.80155237
H       -1.39408978      -1.56512480      -0.79759327
H       -1.60732271       1.31668899       1.50973278
H        0.14409215       1.57348698       1.50393719
H       -0.75177512       1.93222194       0.07050699
H        0.66186845      -1.85099709       0.25232655
H        1.25089567      -0.65251724       1.37270086
H        1.67961175       0.87025415      -0.64225967
15
Frame=9 idx=000985 GeodesicLength=1.0424593826148314 rxn_smarts="[C:1]([N:2]([C:3]([H:10])([H:11])[H:12])[C:4]([C:5](=[O:6])[H:15])([H:13])[H:14])([H:7])([H:8])[H:9]>>[C:1](=[N+:2]([C:3]([H:10])([H:11])[H:12])[C:4]([C:5]([O-:6])([H:7])[H:15])([H:13])[H:14])([H:8])[H:9]"
C       -1.32142518      -0.51299552      -0.59453926
N       -0.56130186      -0.14312210       0.46015903
C       -0.69668537       1.23591872       0.89637151
C        0.71635051      -0.77350627       0.42898804
C        1.49956586      -0.19776079      -0.85496650
O        2.49576813      -0.82185661      -1.25512488
H        0.08309249      -0.42010536      -1.55439574
H       -2.24750496       0.02329078      -0.76733166
H       -1.41281007      -1.57886570      -0.76610412
H       -1.63486313       1.34640627       1.43900149
H        0.11972349       1.56246254       1.53639445
H       -0.67937032       1.92622402       0.04946212
H        0.67541146      -1.84703135       0.21836883
H        1.25276655      -0.67952816       1.36776929
H        1.71128240       0.88046952      -0.60405262
15
Frame=10 idx=000985 GeodesicLength=1.1586695234589823 rxn_smarts="[C:1]([N:2]([C:3]([H:10])([H:11])[H:12])[C:4]([C:5](=[O:6])[H:15])([H:13])[H:14])([H:7])([H:8])[H:9]>>[C:1](=[N+:2]([C:3]([H:10])([H:11])[H:12])[C:4]([C:5]([O-:6])([H:7])[H:15])([H:13])[H:14])([H:8])[H:9]"
C       -1.33208252      -0.52398180      -0.58085925
N       -0.55953616      -0.14912929       0.46874068
C       -0.69190989       1.23707711       0.88237180
C        0.72120311      -0.77286591       0.41855469
C        1.51165126      -0.17544754      -0.84754422
O        2.50027676      -0.79853794      -1.26494787
H        0.03752280      -0.41340474      -1.55510553
H       -2.26818522       0.00162390      -0.73259917
H       -1.43169931      -1.59239818      -0.73344065
H       -1.65750090       1.37549502       1.36710299
H        0.09354331       1.55332444       1.56492661
H       -0.60954817       1.91840002       0.03143655
H        0.68810795      -1.84207575       0.18275212
H        1.25367249      -0.70786903       1.36186705
H        1.74448450       0.88978966      -0.56325580
15
Frame=11 idx=000985 GeodesicLength=1.2749517274968307 rxn_smarts="[C:1]([N:2]([C:3]([H:10])([H:11])[H:12])[C:4]([C:5](=[O:6])[H:15])([H:13])[H:14])([H:7])([H:8])[H:9]>>[C:1](=[N+:2]([C:3]([H:10])([H:11])[H:12])[C:4]([C:5]([O-:6])([H:7])[H:15])([H:13])[H:14])([H:8])[H:9]"
C       -1.34334016      -0.53505700      -0.56672118
N       -0.55755773      -0.15457674       0.47673025
C       -0.68714167       1.23843455       0.86758608
C        0.72571522      -0.77212768       0.40740029
C        1.52515705      -0.15208601      -0.83850219
O        2.50557491      -0.77385055      -1.27411808
H       -0.00984796      -0.40830023      -1.55599219
H       -2.28871194      -0.01991171      -0.69701143
H       -1.45070367      -1.60578542      -0.69944302
H       -1.67551385       1.40381641       1.29410458
H        0.06586476       1.54614080       1.58952874
H       -0.54226836       1.90908056       0.01592605
H        0.69996340      -1.83603843       0.14520041
H        1.25352107      -0.73779591       1.35482132
H        1.77928892       0.89805738      -0.51950964
15
Frame=12 idx=000985 GeodesicLength=1.3913106990957125 rxn_smarts="[C:1]([N:2]([C:3]([H:10])([H:11])[H:12])[C:4]([C:5](=[O:6])[H:15])([H:13])[H:14])([H:7])([H:8])[H:9]>>[C:1](=[N+:2]([C:3]([H:10])([H:11])[H:12])[C:4]([C:5]([O-:6])([H:7])[H:15])([H:13])[H:14])([H:8])[H:9]"
C       -1.35527479      -0.54630541      -0.55196564
N       -0.55532158      -0.15943804       0.48408641
C       -0.68233833       1.24004694       0.85185542
C        0.72990266      -0.77131737       0.39540222
C        1.54026371      -0.12761886      -0.82760171
O        2.51179689      -0.74754041      -1.28259640
H       -0.05929755      -0.40477975      -1.55705713
H       -2.30921306      -0.04143885      -0.66019531
H       -1.46977472      -1.61909400      -0.66391758
H       -1.68917795       1.43126169       1.21999141
H        0.03694964       1.54098368       1.61018630
H       -0.47745259       1.89855104       0.00244868
H        0.71098458      -1.82879889       0.10539021
H        1.25221773      -0.76959294       1.34640531
H        1.81573537       0.90508119      -0.47243216
15
Frame=13 idx=000985 GeodesicLength=1.5077047109116581 rxn_smarts="[C:1]([N:2]([C:3]([H:10])([H:11])[H:12])[C:4]([C:5](=[O:6])[H:15])([H:13])[H:14])([H:7])([H:8])[H:9]>>[C:1](=[N+:2]([C:3]([H:10])([H:11])[H:12])[C:4]([C:5]([O-:6])([H:7])[H:15])([H:13])[H:14])([H:8])[H:9]"
C       -1.36795722      -0.55779855      -0.53641463
N       -0.55276836      -0.16367944       0.49076252
C       -0.67743100       1.24195359       0.83499614
C        0.73377883      -0.77044569       0.38241989
C        1.55715112      -0.10201566      -0.81455045
O        2.51910048      -0.71930274      -1.29025223
H       -0.11113324      -0.40287388      -1.55828679
H       -2.32976722      -0.06304965      -0.62172178
H       -1.48884825      -1.63236834      -0.62666115
H       -1.69870670       1.45775244       1.14467454
H        0.00700308       1.53787837       1.62689320
H       -0.41501254       1.88702881      -0.00947502
H        0.72115851      -1.82016001       0.06294586
H        1.24965989      -0.80355028       1.33633034
H        1.85377262       0.91063102      -0.42166047
15
Frame=14 idx=000985 GeodesicLength=1.6241894072059162 rxn_smarts="[C:1]([N:2]([C:3]([H:10])([H:11])[H:12])[C:4]([C:5](=[O:6])[H:15])([H:13])[H:14])([H:7])([H:8])[H:9]>>[C:1](=[N+:2]([C:3]([H:10])([H:11])[H:12])[C:4]([C:5]([O-:6])([H:7])[H:15])([H:13])[H:14])([H:8])[H:9]"
C       -1.38148709      -0.56961751      -0.51983346
N       -0.54984459      -0.16727374       0.49671223
C       -0.67238383       1.24421431       0.81680588
C        0.73736113      -0.76953645       0.36826911
C        1.57607144      -0.07525461      -0.79900932
O        2.52775026      -0.68877964      -1.29692899
H       -0.16577520      -0.40256258      -1.55962732
H       -2.35045967      -0.08481773      -0.58109531
H       -1.50786402      -1.64567322      -0.58738914
H       -1.70435342       1.48315512       1.06799687
H       -0.02376190       1.53697412       1.63950903
H       -0.35484374       1.87471118      -0.02033238
H        0.73047563      -1.80990176       0.01739966
H        1.24570616      -0.84005286       1.32421264
H        1.89340883       0.91441536      -0.36668948
15
Frame=15 idx=000985 GeodesicLength=1.7407531899372302 rxn_smarts="[C:1]([N:2]([C:3]([H:10])([H:11])[H:12])[C:4]([C:5](=[O:6])[H:15])([H:13])[H:14])([H:7])([H:8])[H:9]>>[C:1](=[N+:2]([C:3]([H:10])([H:11])[H:12])[C:4]([C:5]([O-:6])([H:7])[H:15])([H:13])[H:14])([H:8])[H:9]"
C       -1.39594620      -0.58183361      -0.50195400
N       -0.54647182      -0.17017956       0.50187306
C       -0.66713011       1.24686786       0.79704193
C        0.74066030      -0.76858506       0.35272800
C        1.59726232      -0.04735276      -0.78057064
O        2.53803250      -0.65554982      -1.30233528
H       -0.22369390      -0.40388806      -1.56098860
H       -2.37130427      -0.10679455      -0.53773304
H       -1.52672042      -1.65904818      -0.54577498
H       -1.70629845       1.50734434       0.98968572
H       -0.05518955       1.53835608       1.64790453
H       -0.29680399       1.86174211      -0.03060836
H        0.73889316      -1.79767387      -0.03180380
H        1.24019126      -0.87949387       1.30955660
H        1.93451917       0.91608896      -0.30702114
15
Frame=16 idx=000985 GeodesicLength=1.857417940416896 rxn_smarts="[C:1]([N:2]([C:3]([H:10])([H:11])[H:12])[C:4]([C:5](=[O:6])[H:15])([H:13])[H:14])([H:7])([H:8])[H:9]>>[C:1](=[N+:2]([C:3]([H:10])([H:11])[H:12])[C:4]([C:5]([O-:6])([H:7])[H:15])([H:13])[H:14])([H:8])[H:9]"
C       -1.41143310      -0.59452635      -0.48244177
N       -0.54256245      -0.17234988       0.50617271
C       -0.66160983       1.24996253       0.77541286
C        0.74369174      -0.76757572       0.33551486
C        1.62099851      -0.01836102      -0.75874449
O        2.55033191      -0.61912802      -1.30605651
H       -0.28546960      -0.40690390      -1.56222376
H       -2.39229053      -0.12901489      -0.49093875
H       -1.54529062      -1.67254486      -0.50141702
H       -1.70470818       1.53016708       0.90936868
H       -0.08714266       1.54215472       1.65186290
H       -0.24073152       1.84824080      -0.04080805
H        0.74635228      -1.78300808      -0.08535374
H        1.23292151      -0.92234128       1.29170427
H        1.97694254       0.91522888      -0.24205218
