16
Frame=0 idx=002813 GeodesicLength=0.0 rxn_smarts="[C:1]([C:2]([C:3]#[C:4][C:5]([C:6]([H:14])([H:15])[H:16])([H:12])[H:13])([H:10])[H:11])([H:7])([H:8])[H:9]>>[C:1]([C:2]([C:4](=[C:3])[C:5]([C:6]([H:14])([H:15])[H:16])([H:12])[H:13])([H:10])[H:11])([H:7])([H:8])[H:9]"
C        1.96865140       0.65084830      -0.28702039
C        1.30349126      -0.66084846       0.07229904
C        0.59176317      -1.33858528      -1.41978479
C       -0.31316127      -0.99882181      -0.62064152
C       -1.55930760      -0.67321899       0.08826064
C       -1.76601989       0.81904697       0.34108622
H        2.55061246       0.54619787      -1.20162836
H        1.22556566       1.43210712      -0.45336935
H        2.63145548       0.97457927       0.51996559
H        2.00868828      -1.47499048       0.21186970
H        0.78870656      -0.57281351       1.03758603
H       -1.60395506      -1.23078587       1.02834114
H       -2.36481012      -1.06347442      -0.53855258
H       -1.74531355       1.37622423      -0.59589435
H       -2.72793422       0.99142347       0.82548120
H       -0.98843262       1.22311161       0.99200185
16
Frame=1 idx=002813 GeodesicLength=0.07050965872710566 rxn_smarts="[C:1]([C:2]([C:3]#[C:4][C:5]([C:6]([H:14])([H:15])[H:16])([H:12])[H:13])([H:10])[H:11])([H:7])([H:8])[H:9]>>[C:1]([C:2]([C:4](=[C:3])[C:5]([C:6]([H:14])([H:15])[H:16])([H:12])[H:13])([H:10])[H:11])([H:7])([H:8])[H:9]"
C        1.98293537       0.64866001      -0.27694303
C        1.32104390      -0.66907896       0.06901430
C        0.57804964      -1.33622463      -1.41332944
C       -0.31672965      -0.98992018      -0.60805484
C       -1.56719118      -0.66925568       0.09549016
C       -1.78937018       0.82454923       0.32445891
H        2.53052582       0.57005512      -1.21515755
H        1.24144069       1.44063298      -0.39059525
H        2.67823145       0.94416054       0.51329050
H        2.03284464      -1.48292698       0.17852254
H        0.83146084      -0.59986140       1.04870647
H       -1.60608553      -1.21223526       1.04424990
H       -2.36945971      -1.07728220      -0.52418308
H       -1.77372029       1.36779249      -0.62078427
H       -2.75490875       0.99480642       0.80264637
H       -1.01906705       1.24612852       0.97266829
16
Frame=2 idx=002813 GeodesicLength=0.14080987772464396 rxn_smarts="[C:1]([C:2]([C:3]#[C:4][C:5]([C:6]([H:14])([H:15])[H:16])([H:12])[H:13])([H:10])[H:11])([H:7])([H:8])[H:9]>>[C:1]([C:2]([C:4](=[C:3])[C:5]([C:6]([H:14])([H:15])[H:16])([H:12])[H:13])([H:10])[H:11])([H:7])([H:8])[H:9]"
C        1.99673134       0.64646203      -0.26547684
C        1.33922107      -0.67824213       0.06505230
C        0.56352462      -1.33286664      -1.40684338
C       -0.32021909      -0.98128416      -0.59408830
C       -1.57493382      -0.66468175       0.10379216
C       -1.81307594       0.83042253       0.30617549
H        2.50748332       0.59724569      -1.22627462
H        1.25816262       1.44703325      -0.32298583
H        2.72485790       0.91288047       0.50521430
H        2.05772400      -1.49084077       0.14151236
H        0.87677473      -0.63090672       1.05899489
H       -1.60761160      -1.19105106       1.06202738
H       -2.37381382      -1.09176084      -0.50742586
H       -1.80222854       1.35784877      -0.64806828
H       -2.78226363       0.99892346       0.77783917
H       -1.05033316       1.27081784       0.95055507
16
Frame=3 idx=002813 GeodesicLength=0.21082912868742085 rxn_smarts="[C:1]([C:2]([C:3]#[C:4][C:5]([C:6]([H:14])([H:15])[H:16])([H:12])[H:13])([H:10])[H:11])([H:7])([H:8])[H:9]>>[C:1]([C:2]([C:4](=[C:3])[C:5]([C:6]([H:14])([H:15])[H:16])([H:12])[H:13])([H:10])[H:11])([H:7])([H:8])[H:9]"
C        2.00994245       0.64422707      -0.25240642
C        1.35800934      -0.68838325       0.06026931
C        0.54810699      -1.32840751      -1.40032970
C       -0.32363323      -0.97294888      -0.57866894
C       -1.58247814      -0.65939110       0.11329396
C       -1.83709996       0.83663659       0.28608122
H        2.48139814       0.62792985      -1.23424927
H        1.27581298       1.45076445      -0.25039163
H        2.77099881       0.88097146       0.49575029
H        2.08321476      -1.49849720       0.10043070
H        0.92481203      -0.66633735       1.06803550
H       -1.60837052      -1.16685198       1.08181392
H       -2.37783508      -1.10688047      -0.48788470
H       -1.83096679       1.34609378      -0.67793628
H       -2.80985218       1.00377492       0.75109784
H       -1.08205961       1.29729961       0.92509419
16
Frame=4 idx=002813 GeodesicLength=0.2805903955633988 rxn_smarts="[C:1]([C:2]([C:3]#[C:4][C:5]([C:6]([H:14])([H:15])[H:16])([H:12])[H:13])([H:10])[H:11])([H:7])([H:8])[H:9]>>[C:1]([C:2]([C:4](=[C:3])[C:5]([C:6]([H:14])([H:15])[H:16])([H:12])[H:13])([H:10])[H:11])([H:7])([H:8])[H:9]"
C        2.02251723       0.64194134      -0.23751807
C        1.37740811      -0.69953243       0.05451355
C        0.53175945      -1.32283148      -1.39376213
C       -0.32695978      -0.96498198      -0.56172959
C       -1.58980304      -0.65328223       0.12411397
C       -1.86143945       0.84315522       0.26404611
H        2.45226305       0.66221833      -1.23832178
H        1.29448501       1.45126847      -0.17267113
H        2.81641090       0.84871968       0.48487648
H        2.10920690      -1.50560125       0.05490441
H        0.97570558      -0.70648157       1.07532487
H       -1.60827850      -1.13926451       1.10370453
H       -2.38151107      -1.12258313      -0.46517168
H       -1.86009306       1.33221339      -0.71052684
H       -2.83758489       1.00937988       0.72252289
H       -1.11408644       1.32566226       0.89569444
16
Frame=5 idx=002813 GeodesicLength=0.349912675031374 rxn_smarts="[C:1]([C:2]([C:3]#[C:4][C:5]([C:6]([H:14])([H:15])[H:16])([H:12])[H:13])([H:10])[H:11])([H:7])([H:8])[H:9]>>[C:1]([C:2]([C:4](=[C:3])[C:5]([C:6]([H:14])([H:15])[H:16])([H:12])[H:13])([H:10])[H:11])([H:7])([H:8])[H:9]"
C        2.03432254       0.63950564      -0.22052248
C        1.39731556      -0.71167753       0.04762555
C        0.51440318      -1.31599881      -1.38711573
C       -0.33023373      -0.95737860      -0.54320942
C       -1.59679164      -0.64620133       0.13637771
C       -1.88598121       0.84985736       0.23988378
H        2.41987455       0.70017406      -1.23763086
H        1.31436262       1.44793310      -0.08974503
H        2.86059145       0.81642322       0.47282169
H        2.13538596      -1.51174200       0.00453910
H        1.02955088      -0.75164848       1.08025968
H       -1.60700330      -1.10779256       1.12774936
H       -2.38479322      -1.13875150      -0.43877260
H       -1.88986719       1.31570177      -0.74600237
H       -2.86512864       1.01569532       0.69223671
H       -1.14600782       1.35590034       0.86150490
16
Frame=6 idx=002813 GeodesicLength=0.418860223111715 rxn_smarts="[C:1]([C:2]([C:3]#[C:4][C:5]([C:6]([H:14])([H:15])[H:16])([H:12])[H:13])([H:10])[H:11])([H:7])([H:8])[H:9]>>[C:1]([C:2]([C:4](=[C:3])[C:5]([C:6]([H:14])([H:15])[H:16])([H:12])[H:13])([H:10])[H:11])([H:7])([H:8])[H:9]"
C        2.04527918       0.63690330      -0.20120182
C        1.41770876      -0.72477792       0.03943639
C        0.49603977      -1.30804739      -1.38028717
C       -0.33343309      -0.95028316      -0.52309335
C       -1.60344307      -0.63803704       0.15014829
C       -1.91065473       0.85667036       0.21353152
H        2.38442559       0.74170596      -1.23125026
H        1.33533542       1.44003919      -0.00176666
H        2.90323237       0.78455971       0.45966494
H        2.16161116      -1.51638364      -0.05090162
H        1.08639251      -0.80200395       1.08211230
H       -1.60455248      -1.07207148       1.15389428
H       -2.38768900      -1.15517663      -0.40835944
H       -1.92045832       1.29617526      -0.78435900
H       -2.89229247       1.02280728       0.66055475
H       -1.17750158       1.38792015       0.82187685
16
Frame=7 idx=002813 GeodesicLength=0.487264107725322 rxn_smarts="[C:1]([C:2]([C:3]#[C:4][C:5]([C:6]([H:14])([H:15])[H:16])([H:12])[H:13])([H:10])[H:11])([H:7])([H:8])[H:9]>>[C:1]([C:2]([C:4](=[C:3])[C:5]([C:6]([H:14])([H:15])[H:16])([H:12])[H:13])([H:10])[H:11])([H:7])([H:8])[H:9]"
C        2.05520995       0.63403385      -0.17932100
C        1.43844403      -0.73871367       0.02979681
C        0.47663841      -1.29904646      -1.37313240
C       -0.33655684      -0.94375819      -0.50136665
C       -1.60964717      -0.62862779       0.16546854
C       -1.93524933       0.86341845       0.18492029
H        2.34592339       0.78657751      -1.21825901
H        1.35730942       1.42683864       0.09098104
H        2.94378705       0.75360664       0.44567673
H        2.18751356      -1.51883049      -0.11156714
H        1.14618594      -0.85755296       1.08007786
H       -1.60074231      -1.03168867       1.18197517
H       -2.39011232      -1.17151251      -0.37356918
H       -1.95199476       1.27311343      -0.82551452
H       -2.91864526       1.03074444       0.62777139
H       -1.20806377       1.42139778       0.77606206
16
Frame=8 idx=002813 GeodesicLength=0.5551427608119327 rxn_smarts="[C:1]([C:2]([C:3]#[C:4][C:5]([C:6]([H:14])([H:15])[H:16])([H:12])[H:13])([H:10])[H:11])([H:7])([H:8])[H:9]>>[C:1]([C:2]([C:4](=[C:3])[C:5]([C:6]([H:14])([H:15])[H:16])([H:12])[H:13])([H:10])[H:11])([H:7])([H:8])[H:9]"
C        2.06405275       0.63083547      -0.15480971
C        1.45940165      -0.75327226       0.01864281
C        0.45629382      -1.28935271      -1.36537250
C       -0.33958530      -0.93791229      -0.47804177
C       -1.61542534      -0.61788726       0.18225453
C       -1.95958535       0.86991718       0.15417752
H        2.30463581       0.83426526      -1.19794039
H        1.38021043       1.40774510       0.18780033
H        2.98190804       0.72416972       0.43098200
H        2.21275858      -1.51831793      -0.17721033
H        1.20876039      -0.91787819       1.07336983
H       -1.59572818      -0.98656151       1.21156824
H       -2.39209038      -1.18728585      -0.33438644
H       -1.98444223       1.24621933      -0.86904293
H       -2.94389597       1.03957247       0.59427830
H       -1.23726872       1.45574348       0.72373052
16
Frame=9 idx=002813 GeodesicLength=0.6224420491210606 rxn_smarts="[C:1]([C:2]([C:3]#[C:4][C:5]([C:6]([H:14])([H:15])[H:16])([H:12])[H:13])([H:10])[H:11])([H:7])([H:8])[H:9]>>[C:1]([C:2]([C:4](=[C:3])[C:5]([C:6]([H:14])([H:15])[H:16])([H:12])[H:13])([H:10])[H:11])([H:7])([H:8])[H:9]"
C        2.07170393       0.62709837      -0.12747883
C        1.48034043      -0.76817349       0.00585301
C        0.43503781      -1.27914071      -1.35691996
C       -0.34258884      -0.93278789      -0.45324254
C       -1.62066224      -0.60568150       0.20043154
C       -1.98343621       0.87590600       0.12135534
H        2.26070931       0.88407624      -1.16951212
H        1.40417077       1.38230393       0.28797163
H        3.01699833       0.69675728       0.41633210
H        2.23672146      -1.51399797      -0.24771902
H        1.27391925      -0.98245531       1.06111262
H       -1.58918505      -0.93637176       1.24225775
H       -2.39364990      -1.20210537      -0.29059100
H       -2.01814973       1.21485911      -0.91458283
H       -2.96750372       1.04937318       0.56053215
H       -1.26442560       1.49033988       0.66420015
16
Frame=10 idx=002813 GeodesicLength=0.6891894209462699 rxn_smarts="[C:1]([C:2]([C:3]#[C:4][C:5]([C:6]([H:14])([H:15])[H:16])([H:12])[H:13])([H:10])[H:11])([H:7])([H:8])[H:9]>>[C:1]([C:2]([C:4](=[C:3])[C:5]([C:6]([H:14])([H:15])[H:16])([H:12])[H:13])([H:10])[H:11])([H:7])([H:8])[H:9]"
C        2.07823601       0.62281352      -0.09773295
C        1.50110074      -0.78299422      -0.00837338
C        0.41313280      -1.26925084      -1.34719495
C       -0.34551560      -0.92846591      -0.42700003
C       -1.62554402      -0.59209680       0.21961863
C       -2.00653188       0.88118463       0.08702838
H        2.21489536       0.93481963      -1.13300299
H        1.42896597       1.35043598       0.38969228
H        3.04890788       0.67209515       0.40160302
H        2.25902351      -1.50510862      -0.32187719
H        1.34119936      -1.04988711       1.04283004
H       -1.58190158      -0.88187678       1.27310805
H       -2.39490363      -1.21522103      -0.24308417
H       -2.05240389       1.17941208      -0.96095938
H       -2.98931248       1.06018118       0.52688402
H       -1.28934856       1.52395914       0.59846062
16
Frame=11 idx=002813 GeodesicLength=0.755391343480974 rxn_smarts="[C:1]([C:2]([C:3]#[C:4][C:5]([C:6]([H:14])([H:15])[H:16])([H:12])[H:13])([H:10])[H:11])([H:7])([H:8])[H:9]>>[C:1]([C:2]([C:4](=[C:3])[C:5]([C:6]([H:14])([H:15])[H:16])([H:12])[H:13])([H:10])[H:11])([H:7])([H:8])[H:9]"
C        2.08375478       0.61783009      -0.06585803
C        1.52147603      -0.79733149      -0.02389250
C        0.39073764      -1.26017385      -1.33586063
C       -0.34835975      -0.92487319      -0.39937550
C       -1.63012052      -0.57717173       0.23953449
C       -2.02869462       0.88553968       0.05159890
H        2.16777281       0.98534002      -1.08855254
H        1.45468599       1.31225173       0.49152233
H        3.07746773       0.65054314       0.38711435
H        2.27909097      -1.49100134      -0.39875984
H        1.41022161      -1.11885976       1.01812380
H       -1.57418539      -0.82356774       1.30342112
H       -2.39591244      -1.22612913      -0.19246224
H       -2.08684743       1.14003987      -1.00728060
H       -3.00916610       1.07196597       0.49347558
H       -1.31192132       1.55559772       0.52725129
16
Frame=12 idx=002813 GeodesicLength=0.8211696709848197 rxn_smarts="[C:1]([C:2]([C:3]#[C:4][C:5]([C:6]([H:14])([H:15])[H:16])([H:12])[H:13])([H:10])[H:11])([H:7])([H:8])[H:9]>>[C:1]([C:2]([C:4](=[C:3])[C:5]([C:6]([H:14])([H:15])[H:16])([H:12])[H:13])([H:10])[H:11])([H:7])([H:8])[H:9]"
C        2.08864517       0.61206402      -0.03245211
C        1.54135522      -0.81076718      -0.04037214
C        0.36811133      -1.25261120      -1.32246256
C       -0.35108281      -0.92182696      -0.37039210
C       -1.63464484      -0.56108743       0.25975488
C       -2.04992887       0.88883677       0.01568621
H        2.12023399       1.03428192      -1.03694674
H        1.48171633       1.26837146       0.59174070
H        3.10296173       0.63235086       0.37279392
H        2.29645844      -1.47139213      -0.47696543
H        1.48056701      -1.18762527       0.98704290
H       -1.56683659      -0.76248568       1.33238433
H       -2.39688892      -1.23441263      -0.13993605
H       -2.12083459       1.09748061      -1.05243372
H       -3.02736312       1.08454543       0.46027969
H       -1.33246949       1.58427741       0.45227823
16
Frame=13 idx=002813 GeodesicLength=0.8866757571691785 rxn_smarts="[C:1]([C:2]([C:3]#[C:4][C:5]([C:6]([H:14])([H:15])[H:16])([H:12])[H:13])([H:10])[H:11])([H:7])([H:8])[H:9]>>[C:1]([C:2]([C:4](=[C:3])[C:5]([C:6]([H:14])([H:15])[H:16])([H:12])[H:13])([H:10])[H:11])([H:7])([H:8])[H:9]"
C        2.09334826       0.60525564       0.00244498
C        1.56058598      -0.82304163      -0.05777896
C        0.34527868      -1.24636029      -1.30702784
C       -0.35372255      -0.91887382      -0.34016685
C       -1.63905339      -0.54375536       0.28023514
C       -2.07050638       0.89087938      -0.02068959
H        2.07305794       1.08095607      -0.97829068
H        1.51067810       1.21911563       0.68982375
H        3.12568711       0.61704725       0.35932410
H        2.31044347      -1.44604292      -0.55610995
H        1.55195371      -1.25536101       0.94923736
H       -1.55958611      -0.69853808       1.35980504
H       -2.39771950      -1.24000227      -0.08538968
H       -2.15492696       1.05151872      -1.09614315
H       -3.04408063       1.09764675       0.42719165
H       -1.35143775       1.60955592       0.37353470
16
Frame=14 idx=002813 GeodesicLength=0.9519708201416804 rxn_smarts="[C:1]([C:2]([C:3]#[C:4][C:5]([C:6]([H:14])([H:15])[H:16])([H:12])[H:13])([H:10])[H:11])([H:7])([H:8])[H:9]>>[C:1]([C:2]([C:4](=[C:3])[C:5]([C:6]([H:14])([H:15])[H:16])([H:12])[H:13])([H:10])[H:11])([H:7])([H:8])[H:9]"
C        2.09844021       0.59737245       0.03817874
C        1.57916516      -0.83390594      -0.07571019
C        0.32245778      -1.24195662      -1.28906479
C       -0.35619204      -0.91565007      -0.30858152
C       -1.64367117      -0.52538333       0.30062513
C       -2.09063021       0.89163904      -0.05701638
H        2.02713797       1.12442324      -0.91363801
H        1.54220656       1.16525436       0.78454919
H        3.14634707       0.60451440       0.34611980
H        2.32072254      -1.41512266      -0.63482950
H        1.62402246      -1.32060863       0.90506835
H       -1.55344356      -0.63277179       1.38511643
H       -2.39859879      -1.24279417      -0.03004460
H       -2.18821291       1.00314201      -1.13759968
H       -3.06009966       1.11084629       0.39373821
H       -1.36965142       1.63100141       0.29308882
16
Frame=15 idx=002813 GeodesicLength=1.0170880568844969 rxn_smarts="[C:1]([C:2]([C:3]#[C:4][C:5]([C:6]([H:14])([H:15])[H:16])([H:12])[H:13])([H:10])[H:11])([H:7])([H:8])[H:9]>>[C:1]([C:2]([C:4](=[C:3])[C:5]([C:6]([H:14])([H:15])[H:16])([H:12])[H:13])([H:10])[H:11])([H:7])([H:8])[H:9]"
C        2.10443561       0.58819378       0.07468291
C        1.59703768      -0.84324097      -0.09406989
C        0.29970155      -1.23913355      -1.26852459
C       -0.35844127      -0.91157839      -0.27565668
C       -1.64848728      -0.50586809       0.32090709
C       -2.11069453       0.89098367      -0.09334933
H        1.98321921       1.16429055      -0.84321606
H        1.57703033       1.10698469       0.87579152
H        3.16546410       0.59413700       0.33335917
H        2.32679722      -1.37864067      -0.71271573
H        1.69648908      -1.38277146       0.85441235
H       -1.54835667      -0.56508623       1.40825599
H       -2.39936869      -1.24284575       0.02614500
H       -2.22099140       0.95231658      -1.17675791
H       -3.07594821       1.12368412       0.35956285
H       -1.38788672       1.64857471       0.21117331
16
Frame=16 idx=002813 GeodesicLength=1.082014720180666 rxn_smarts="[C:1]([C:2]([C:3]#[C:4][C:5]([C:6]([H:14])([H:15])[H:16])([H:12])[H:13])([H:10])[H:11])([H:7])([H:8])[H:9]>>[C:1]([C:2]([C:4](=[C:3])[C:5]([C:6]([H:14])([H:15])[H:16])([H:12])[H:13])([H:10])[H:11])([H:7])([H:8])[H:9]"
C        2.11185815       0.57755313       0.11179769
C        1.61416850      -0.85095552      -0.11267819
C        0.27711663      -1.23775065      -1.24526738
C       -0.36041132      -0.90607728      -0.24139988
C       -1.65356975      -0.48514136       0.34098297
C       -2.13106396       0.88879755      -0.12966641
H        1.94203134       1.20018478      -0.76735127
H        1.61592475       1.04454823       0.96335803
H        3.18360242       0.58539705       0.32093487
H        2.32825068      -1.33674736      -0.78915256
H        1.76899066      -1.44116371       0.79730961
H       -1.54452386      -0.49554949       1.42907371
H       -2.39992469      -1.24018760       0.08294706
H       -2.25330504       0.89918336      -1.21351971
H       -3.09222380       1.13563942       0.32430452
H       -1.40692071       1.66226945       0.12832694
