14
Frame=0 idx=000284 GeodesicLength=0.0 rxn_smarts="[C:1]([C@@:2]1([H:10])[O:3][C:4]([H:11])([H:12])[C:5]([H:13])=[C:6]1[H:14])([H:7])([H:8])[H:9]>>[C:1]([C:2]([C:6]#[C:5][H:13])([H:10])[H:14])([H:7])([H:8])[H:9].[O:3]=[C:4]([H:11])[H:12]"
C        1.91936652      -0.30548091       0.39250185
C        0.90936430       0.64925453      -0.16277777
O       -0.55896935      -1.04605070      -1.30713328
C       -1.66539551      -0.82703650      -0.73180204
C       -1.56190901       0.55721834       0.48724818
C       -0.33648968       0.83977633       0.37466616
H        1.93586954      -1.15301314      -0.29481491
H        2.91662282       0.13120336       0.44661229
H        1.61619522      -0.67239564       1.37127495
H        1.14353945       1.21637294      -1.05904669
H       -2.49702671      -0.39133647      -1.32225453
H       -2.04373325      -1.57167739      -0.00245703
H       -2.39770622       0.92713989       1.05475560
H        0.62027184       1.64602540       0.75322720
14
Frame=1 idx=000284 GeodesicLength=0.06268546117443764 rxn_smarts="[C:1]([C@@:2]1([H:10])[O:3][C:4]([H:11])([H:12])[C:5]([H:13])=[C:6]1[H:14])([H:7])([H:8])[H:9]>>[C:1]([C:2]([C:6]#[C:5][H:13])([H:10])[H:14])([H:7])([H:8])[H:9].[O:3]=[C:4]([H:11])[H:12]"
C        1.91532718      -0.30831345       0.39376090
C        0.89811535       0.63751093      -0.16642865
O       -0.54687998      -1.02792483      -1.30859695
C       -1.66083521      -0.82270252      -0.73736829
C       -1.56324145       0.55976077       0.50474807
C       -0.33850937       0.84582999       0.39904226
H        1.93701128      -1.16422443      -0.28276038
H        2.90977171       0.13598660       0.43876265
H        1.62178582      -0.66794353       1.37833189
H        1.12639291       1.19235922      -1.07202648
H       -2.48946468      -0.38691747      -1.33104278
H       -2.03757174      -1.58059963      -0.02179466
H       -2.40511275       0.92659965       1.06683347
H        0.63321093       1.66057872       0.73853894
14
Frame=2 idx=000284 GeodesicLength=0.12538238528442774 rxn_smarts="[C:1]([C@@:2]1([H:10])[O:3][C:4]([H:11])([H:12])[C:5]([H:13])=[C:6]1[H:14])([H:7])([H:8])[H:9]>>[C:1]([C:2]([C:6]#[C:5][H:13])([H:10])[H:14])([H:7])([H:8])[H:9].[O:3]=[C:4]([H:11])[H:12]"
C        1.91110216      -0.31125699       0.39475905
C        0.88690491       0.62613592      -0.16977031
O       -0.53509681      -1.01045479      -1.30969749
C       -1.65627257      -0.81871540      -0.74251273
C       -1.56435330       0.56280366       0.52168687
C       -0.34026569       0.85213894       0.42250111
H        1.93837299      -1.17472881      -0.27170427
H        2.90263372       0.14049006       0.43143621
H        1.62672405      -0.66439031       1.38454558
H        1.10996547       1.16960953      -1.08372822
H       -2.48213741      -0.38347786      -1.33952334
H       -2.03085230      -1.58926360      -0.04026319
H       -2.41212849       0.92688082       1.07826478
H        0.64540328       1.67422883       0.72400595
14
Frame=3 idx=000284 GeodesicLength=0.18807458436923 rxn_smarts="[C:1]([C@@:2]1([H:10])[O:3][C:4]([H:11])([H:12])[C:5]([H:13])=[C:6]1[H:14])([H:7])([H:8])[H:9]>>[C:1]([C:2]([C:6]#[C:5][H:13])([H:10])[H:14])([H:7])([H:8])[H:9].[O:3]=[C:4]([H:11])[H:12]"
C        1.90673551      -0.31423145       0.39557813
C        0.87573482       0.61504128      -0.17285999
O       -0.52356828      -0.99372463      -1.31050581
C       -1.65175914      -0.81501179      -0.74737123
C       -1.56523705       0.56618188       0.53827766
C       -0.34174554       0.85859679       0.44505464
H        1.93986479      -1.18464812      -0.26133349
H        2.89526697       0.14482388       0.42447486
H        1.63120573      -0.66136850       1.39015060
H        1.09417093       1.14785543      -1.09435763
H       -2.47492143      -0.38059011      -1.34785746
H       -2.02389643      -1.59772128      -0.05817198
H       -2.41875471       0.92771669       1.08944280
H        0.65690384       1.68707993       0.70947890
14
Frame=4 idx=000284 GeodesicLength=0.25083726750299445 rxn_smarts="[C:1]([C@@:2]1([H:10])[O:3][C:4]([H:11])([H:12])[C:5]([H:13])=[C:6]1[H:14])([H:7])([H:8])[H:9]>>[C:1]([C:2]([C:6]#[C:5][H:13])([H:10])[H:14])([H:7])([H:8])[H:9].[O:3]=[C:4]([H:11])[H:12]"
C        1.90228019      -0.31723264       0.39621842
C        0.86456108       0.60425550      -0.17570861
O       -0.51239005      -0.97781682      -1.31073619
C       -1.64734519      -0.81157169      -0.75196972
C       -1.56582027       0.56979118       0.55458547
C       -0.34309169       0.86520102       0.46691740
H        1.94152529      -1.19407263      -0.25158759
H        2.88774198       0.14903392       0.41774573
H        1.63535461      -0.65885342       1.39524350
H        1.07887905       1.12708039      -1.10410702
H       -2.46758940      -0.37819113      -1.35625314
H       -2.01699425      -1.60587030      -0.07570470
H       -2.42484018       0.92895295       1.10032861
H        0.66772882       1.69929367       0.69502784
14
Frame=5 idx=000284 GeodesicLength=0.3134810957017446 rxn_smarts="[C:1]([C@@:2]1([H:10])[O:3][C:4]([H:11])([H:12])[C:5]([H:13])=[C:6]1[H:14])([H:7])([H:8])[H:9]>>[C:1]([C:2]([C:6]#[C:5][H:13])([H:10])[H:14])([H:7])([H:8])[H:9].[O:3]=[C:4]([H:11])[H:12]"
C        1.89758210      -0.32027093       0.39673224
C        0.85345334       0.59376534      -0.17839097
O       -0.50144215      -0.96245281      -1.31086586
C       -1.64294083      -0.80840146      -0.75633099
C       -1.56616688       0.57373734       0.57060094
C       -0.34413756       0.87206964       0.48785943
H        1.94319722      -1.20299534      -0.24245468
H        2.87988693       0.15303554       0.41148163
H        1.63887471      -0.65678113       1.39981452
H        1.06425583       1.10716385      -1.11304792
H       -2.46040998      -0.37636957      -1.36444955
H       -2.00969389      -1.61392243      -0.09274747
H       -2.43046602       0.93055932       1.11118595
H        0.67800718       1.71086263       0.68061274
14
Frame=6 idx=000284 GeodesicLength=0.3761792317450318 rxn_smarts="[C:1]([C@@:2]1([H:10])[O:3][C:4]([H:11])([H:12])[C:5]([H:13])=[C:6]1[H:14])([H:7])([H:8])[H:9]>>[C:1]([C:2]([C:6]#[C:5][H:13])([H:10])[H:14])([H:7])([H:8])[H:9].[O:3]=[C:4]([H:11])[H:12]"
C        1.89281183      -0.32328045       0.39716586
C        0.84236114       0.58346936      -0.18089989
O       -0.49075698      -0.94787349      -1.31073572
C       -1.63864532      -0.80544522      -0.76057029
C       -1.56627090       0.57780071       0.58657081
C       -0.34501493       0.87903129       0.50807772
H        1.94496503      -1.21150600      -0.23366207
H        2.87191256       0.15697594       0.40540651
H        1.64216213      -0.65491508       1.40406724
H        1.05007327       1.08791611      -1.12131114
H       -2.45312028      -0.37470208      -1.37273071
H       -2.00251630      -1.62181581      -0.10964256
H       -2.43567004       0.93245775       1.12214982
H        0.68770878       1.72188696       0.66611442
14
Frame=7 idx=000284 GeodesicLength=0.4389164702923014 rxn_smarts="[C:1]([C@@:2]1([H:10])[O:3][C:4]([H:11])([H:12])[C:5]([H:13])=[C:6]1[H:14])([H:7])([H:8])[H:9]>>[C:1]([C:2]([C:6]#[C:5][H:13])([H:10])[H:14])([H:7])([H:8])[H:9].[O:3]=[C:4]([H:11])[H:12]"
C        1.88800601      -0.32626064       0.39753562
C        0.83127768       0.57340412      -0.18324688
O       -0.48032688      -0.93407012      -1.31011587
C       -1.63450757      -0.80265730      -0.76470043
C       -1.56611107       0.58187012       0.60254595
C       -0.34570645       0.88612493       0.52771720
H        1.94684916      -1.21975944      -0.22513915
H        2.86383993       0.16089171       0.39938700
H        1.64532361      -0.65315010       1.40816355
H        1.03625440       1.06929159      -1.12912066
H       -2.44563862      -0.37306800      -1.38120954
H       -1.99570674      -1.62951038      -0.12656262
H       -2.44040470       0.93441166       1.13318453
H        0.69685123       1.73248185       0.65156131
14
Frame=8 idx=000284 GeodesicLength=0.5016854715687215 rxn_smarts="[C:1]([C@@:2]1([H:10])[O:3][C:4]([H:11])([H:12])[C:5]([H:13])=[C:6]1[H:14])([H:7])([H:8])[H:9]>>[C:1]([C:2]([C:6]#[C:5][H:13])([H:10])[H:14])([H:7])([H:8])[H:9].[O:3]=[C:4]([H:11])[H:12]"
C        1.88318524      -0.32912037       0.39789629
C        0.82019469       0.56344595      -0.18544155
O       -0.47007323      -0.92123296      -1.30910620
C       -1.63053937      -0.80001130      -0.76884529
C       -1.56569644       0.58587989       0.61868822
C       -0.34620455       0.89329538       0.54673959
H        1.94876048      -1.22768668      -0.21664111
H        2.85569555       0.16483611       0.39332444
H        1.64851284      -0.65119130       1.41215081
H        1.02270172       1.05102383      -1.13643747
H       -2.43780885      -0.37113183      -1.39006387
H       -1.98950366      -1.63702730      -0.14370684
H       -2.44468377       0.93630891       1.14469577
H        0.70545935       1.74261165       0.63674720
14
Frame=9 idx=000284 GeodesicLength=0.5646229115669804 rxn_smarts="[C:1]([C@@:2]1([H:10])[O:3][C:4]([H:11])([H:12])[C:5]([H:13])=[C:6]1[H:14])([H:7])([H:8])[H:9]>>[C:1]([C:2]([C:6]#[C:5][H:13])([H:10])[H:14])([H:7])([H:8])[H:9].[O:3]=[C:4]([H:11])[H:12]"
C        1.87848070      -0.33180561       0.39834550
C        0.80908437       0.55350998      -0.18746063
O       -0.46007484      -0.90948732      -1.30770258
C       -1.62688412      -0.79744168      -0.77317232
C       -1.56495983       0.58967177       0.63515749
C       -0.34649783       0.90048757       0.56530804
H        1.95085138      -1.23542458      -0.20781376
H        2.84756808       0.16890647       0.38701169
H        1.65203356      -0.64871245       1.41625911
H        1.00920775       1.03284397      -1.14339624
H       -2.42950621      -0.36851904      -1.39957867
H       -1.98438045      -1.64434061      -0.16139471
H       -2.44840417       0.93787746       1.15696610
H        0.71348161       1.75243406       0.62147100
14
Frame=10 idx=000284 GeodesicLength=0.627475701099679 rxn_smarts="[C:1]([C@@:2]1([H:10])[O:3][C:4]([H:11])([H:12])[C:5]([H:13])=[C:6]1[H:14])([H:7])([H:8])[H:9]>>[C:1]([C:2]([C:6]#[C:5][H:13])([H:10])[H:14])([H:7])([H:8])[H:9].[O:3]=[C:4]([H:11])[H:12]"
C        1.87389712      -0.33422201       0.39860628
C        0.79799817       0.54362104      -0.18952703
O       -0.45009473      -0.89957093      -1.30480051
C       -1.62350981      -0.79496401      -0.77730710
C       -1.56406329       0.59300292       0.65175294
C       -0.34674728       0.90740816       0.58331904
H        1.95316662      -1.24272664      -0.19909578
H        2.83943993       0.17331169       0.38042001
H        1.65578829      -0.64587484       1.42011246
H        0.99620316       1.01514657      -1.14993287
H       -2.42031133      -0.36497800      -1.40951482
H       -1.98105610      -1.65109513      -0.17964315
H       -2.45181486       0.93902932       1.16941823
H        0.72110412       1.76191185       0.60619230
14
Frame=11 idx=000284 GeodesicLength=0.6904146498285992 rxn_smarts="[C:1]([C@@:2]1([H:10])[O:3][C:4]([H:11])([H:12])[C:5]([H:13])=[C:6]1[H:14])([H:7])([H:8])[H:9]>>[C:1]([C:2]([C:6]#[C:5][H:13])([H:10])[H:14])([H:7])([H:8])[H:9].[O:3]=[C:4]([H:11])[H:12]"
C        1.86944347      -0.33645293       0.39898078
C        0.78687384       0.53371517      -0.19142554
O       -0.44033847      -0.89078218      -1.30144354
C       -1.62045733      -0.79250831      -0.78165456
C       -1.56285040       0.59608570       0.66869549
C       -0.34679715       0.91436493       0.60090392
H        1.95569592      -1.24987038      -0.19000946
H        2.83131931       0.17789603       0.37357268
H        1.65990995      -0.64246604       1.42415571
H        0.98319714       0.99742727      -1.15623398
H       -2.41057962      -0.36066846      -1.42011291
H       -1.97889303      -1.65757784      -0.19854335
H       -2.45466334       0.93973787       1.18269184
H        0.72813972       1.77109915       0.59042289
14
Frame=12 idx=000284 GeodesicLength=0.7534307538489836 rxn_smarts="[C:1]([C@@:2]1([H:10])[O:3][C:4]([H:11])([H:12])[C:5]([H:13])=[C:6]1[H:14])([H:7])([H:8])[H:9]>>[C:1]([C:2]([C:6]#[C:5][H:13])([H:10])[H:14])([H:7])([H:8])[H:9].[O:3]=[C:4]([H:11])[H:12]"
C        1.86504632      -0.33853513       0.39942558
C        0.77572041       0.52381218      -0.19318055
O       -0.43075759      -0.88302637      -1.29766141
C       -1.61764175      -0.79009296      -0.78613682
C       -1.56135894       0.59900857       0.68589688
C       -0.34669294       0.92139398       0.61801302
H        1.95837679      -1.25680281      -0.18069568
H        2.82314959       0.18259562       0.36656916
H        1.66422333      -0.63863444       1.42826575
H        0.97029375       0.97976071      -1.16227483
H       -2.40035768      -0.35577135      -1.43117965
H       -1.97761831      -1.66378607      -0.21797698
H       -2.45702178       0.94009417       1.19667255
H        0.73463882       1.77998392       0.57426297
14
Frame=13 idx=000284 GeodesicLength=0.8164828971262474 rxn_smarts="[C:1]([C@@:2]1([H:10])[O:3][C:4]([H:11])([H:12])[C:5]([H:13])=[C:6]1[H:14])([H:7])([H:8])[H:9]>>[C:1]([C:2]([C:6]#[C:5][H:13])([H:10])[H:14])([H:7])([H:8])[H:9].[O:3]=[C:4]([H:11])[H:12]"
C        1.86069038      -0.34048248       0.39991607
C        0.76454990       0.51392161      -0.19480042
O       -0.42133849      -0.87625316      -1.29345647
C       -1.61504654      -0.78773228      -0.79070992
C       -1.55961646       0.60181629       0.70330032
C       -0.34643434       0.92849383       0.63465235
H        1.96122236      -1.26347536      -0.17125185
H        2.81491337       0.18739553       0.35947925
H        1.66866198      -0.63447848       1.43236754
H        0.95753211       0.96218922      -1.16803750
H       -2.38970004      -0.35040383      -1.44262610
H       -1.97713525      -1.66971651      -0.23786444
H       -2.45895939       0.94016960       1.21123953
H        0.74066041       1.78855601       0.55779164
14
Frame=14 idx=000284 GeodesicLength=0.8795735222522019 rxn_smarts="[C:1]([C@@:2]1([H:10])[O:3][C:4]([H:11])([H:12])[C:5]([H:13])=[C:6]1[H:14])([H:7])([H:8])[H:9]>>[C:1]([C:2]([C:6]#[C:5][H:13])([H:10])[H:14])([H:7])([H:8])[H:9].[O:3]=[C:4]([H:11])[H:12]"
C        1.85634934      -0.34232922       0.40043505
C        0.75336547       0.50406911      -0.19628661
O       -0.41210153      -0.87034360      -1.28888498
C       -1.61264926      -0.78544313      -0.79533995
C       -1.55763981       0.60457738       0.72084618
C       -0.34603471       0.93569094       0.65085372
H        1.96424090      -1.26987636      -0.16177671
H        2.80659011       0.19225747       0.35237625
H        1.67313573      -0.63012802       1.43641146
H        0.94494435       0.94477245      -1.17352165
H       -2.37868925      -0.34475127      -1.45435600
H       -1.97725837      -1.67539094      -0.25811296
H       -2.46050952       0.94005632       1.22626600
H        0.74625654       1.79683888       0.54109020
14
Frame=15 idx=000284 GeodesicLength=0.9426889888247445 rxn_smarts="[C:1]([C@@:2]1([H:10])[O:3][C:4]([H:11])([H:12])[C:5]([H:13])=[C:6]1[H:14])([H:7])([H:8])[H:9]>>[C:1]([C:2]([C:6]#[C:5][H:13])([H:10])[H:14])([H:7])([H:8])[H:9].[O:3]=[C:4]([H:11])[H:12]"
C        1.85201345      -0.34409258       0.40096264
C        0.74216957       0.49426592      -0.19763504
O       -0.40304952      -0.86523286      -1.28397435
C       -1.61043863      -0.78324572      -0.80000202
C       -1.55544750       0.60733924       0.73850305
C       -0.34549077       0.94299366       0.66665487
H        1.96744596      -1.27597349      -0.15235827
H        2.79816993       0.19716791       0.34531352
H        1.67759866      -0.62568070       1.44034517
H        0.93253669       0.92754526      -1.17870976
H       -2.36737570      -0.33893974      -1.46631571
H       -1.97788644      -1.68083275      -0.27865155
H       -2.46172411       0.93985360       1.24163707
H        0.75147841       1.80483226       0.52423040
14
Frame=16 idx=000284 GeodesicLength=1.0058223856648514 rxn_smarts="[C:1]([C@@:2]1([H:10])[O:3][C:4]([H:11])([H:12])[C:5]([H:13])=[C:6]1[H:14])([H:7])([H:8])[H:9]>>[C:1]([C:2]([C:6]#[C:5][H:13])([H:10])[H:14])([H:7])([H:8])[H:9].[O:3]=[C:4]([H:11])[H:12]"
C        1.84766971      -0.34579205       0.40148347
C        0.73096224       0.48452521      -0.19884058
O       -0.39419020      -0.86084171      -1.27876718
C       -1.60840143      -0.78115906      -0.80467808
C       -1.55305302       0.61015028       0.75624456
C       -0.34480070       0.95041542       0.68209356
H        1.97084035      -1.28174756      -0.14307308
H        2.78964324       0.20210896       0.33833880
H        1.68200457      -0.62122679       1.44413035
H        0.92031007       0.91053894      -1.18359110
H       -2.35581270      -0.33309582      -1.47845471
H       -1.97890257      -1.68607188      -0.29941584
H       -2.46264263       0.93965362       1.25725286
H        0.75637308       1.81254245       0.50727695
