11
Frame=0 idx=005812 GeodesicLength=0.0 rxn_smarts="[C:1]1([H:6])([H:7])[C:2]([H:8])([H:9])[C@@:3]2([H:10])[O:4][C@@:5]12[H:11]>>[C:1]1([H:6])([H:7])[C:2]([H:8])([H:9])[C-:3]=[O+:4][C:5]1([H:10])[H:11]"
C       -0.59554047       0.68389437      -0.08051087
C       -0.73128603      -0.84856387      -0.07804960
C        0.77764466      -1.17603033       0.10734201
O        1.36372306      -0.33343386      -0.87459591
C        0.91308014       0.59390693       0.06215072
H       -1.07193126       1.13381112       0.78995800
H       -0.91123861       1.21701404      -0.97769412
H       -1.33898446      -1.23674765       0.73715905
H       -1.07047400      -1.28847397      -1.01695105
H        1.04179438      -0.13588328       1.06514743
H        1.62321262       1.39050655       0.26604433
11
Frame=1 idx=005812 GeodesicLength=0.05064560738664707 rxn_smarts="[C:1]1([H:6])([H:7])[C:2]([H:8])([H:9])[C@@:3]2([H:10])[O:4][C@@:5]12[H:11]>>[C:1]1([H:6])([H:7])[C:2]([H:8])([H:9])[C-:3]=[O+:4][C:5]1([H:10])[H:11]"
C       -0.59530271       0.68426806      -0.08099205
C       -0.73318015      -0.84860356      -0.08156662
C        0.77352678      -1.17552933       0.10128769
O        1.36689819      -0.33385010      -0.87037487
C        0.91296696       0.59502477       0.06838694
H       -1.07604921       1.13499167       0.78659877
H       -0.90788890       1.21548481      -0.98033578
H       -1.33541990      -1.23688399       0.73802878
H       -1.08010412      -1.28800516      -1.01770486
H        1.05649743      -0.14574792       1.07729415
H        1.61805563       1.39885075       0.25937786
11
Frame=2 idx=005812 GeodesicLength=0.10128348254155008 rxn_smarts="[C:1]1([H:6])([H:7])[C:2]([H:8])([H:9])[C@@:3]2([H:10])[O:4][C@@:5]12[H:11]>>[C:1]1([H:6])([H:7])[C:2]([H:8])([H:9])[C-:3]=[O+:4][C:5]1([H:10])[H:11]"
C       -0.59510556       0.68467764      -0.08152422
C       -0.73508680      -0.84860677      -0.08508056
C        0.76942452      -1.17488876       0.09530003
O        1.37003543      -0.33419644      -0.86609102
C        0.91279024       0.59618722       0.07474193
H       -1.08024937       1.13623567       0.78311871
H       -0.90450464       1.21396310      -0.98304941
H       -1.33184577      -1.23696500       0.73886910
H       -1.08974689      -1.28755272      -1.01835743
H        1.07159411      -0.15595282       1.08934058
H        1.61269472       1.40709888       0.25273229
11
Frame=3 idx=005812 GeodesicLength=0.15191898255343678 rxn_smarts="[C:1]1([H:6])([H:7])[C:2]([H:8])([H:9])[C@@:3]2([H:10])[O:4][C@@:5]12[H:11]>>[C:1]1([H:6])([H:7])[C:2]([H:8])([H:9])[C-:3]=[O+:4][C:5]1([H:10])[H:11]"
C       -0.59495073       0.68512544      -0.08211017
C       -0.73700669      -0.84857431      -0.08858968
C        0.76533831      -1.17410796       0.08938093
O        1.37313404      -0.33447020      -0.86174449
C        0.91254679       0.59739775       0.08121761
H       -1.08453681       1.13754810       0.77951245
H       -0.90108459       1.21244830      -0.98584021
H       -1.32826407      -1.23698946       0.73968419
H       -1.09940199      -1.28712097      -1.01890638
H        1.08709535      -0.16650490       1.10127573
H        1.60713038       1.41524823       0.24612001
11
Frame=4 idx=005812 GeodesicLength=0.2025479001508838 rxn_smarts="[C:1]1([H:6])([H:7])[C:2]([H:8])([H:9])[C@@:3]2([H:10])[O:4][C@@:5]12[H:11]>>[C:1]1([H:6])([H:7])[C:2]([H:8])([H:9])[C-:3]=[O+:4][C:5]1([H:10])[H:11]"
C       -0.59484026       0.68561250      -0.08275329
C       -0.73893912      -0.84850455      -0.09209221
C        0.76126926      -1.17318368       0.08353361
O        1.37619073      -0.33466859      -0.85733226
C        0.91223165       0.59865734       0.08781551
H       -1.08891546       1.13893144       0.77577138
H       -0.89762941       1.21093800      -0.98871224
H       -1.32467363      -1.23695270       0.74047622
H       -1.10906795      -1.28671057      -1.01934727
H        1.10301323      -0.17741111       1.11308568
H        1.60136095       1.42329193       0.23955487
11
Frame=5 idx=005812 GeodesicLength=0.25317220782180894 rxn_smarts="[C:1]1([H:6])([H:7])[C:2]([H:8])([H:9])[C@@:3]2([H:10])[O:4][C@@:5]12[H:11]>>[C:1]1([H:6])([H:7])[C:2]([H:8])([H:9])[C-:3]=[O+:4][C:5]1([H:10])[H:11]"
C       -0.59477730       0.68614081      -0.08345576
C       -0.74088437      -0.84839763      -0.09558704
C        0.75721813      -1.17211272       0.07776575
O        1.37920369      -0.33479193      -0.85285423
C        0.91184076       0.59997194       0.09453126
H       -1.09338678       1.14038833       0.77189365
H       -0.89414459       1.20943162      -0.99166720
H       -1.32107935      -1.23685274       0.74124496
H       -1.11873787      -1.28632681      -1.01967945
H        1.11935419      -0.18867116       1.12475777
H        1.59539348       1.43122028       0.23305028
11
Frame=6 idx=005812 GeodesicLength=0.3037787779912118 rxn_smarts="[C:1]1([H:6])([H:7])[C:2]([H:8])([H:9])[C@@:3]2([H:10])[O:4][C@@:5]12[H:11]>>[C:1]1([H:6])([H:7])[C:2]([H:8])([H:9])[C-:3]=[O+:4][C:5]1([H:10])[H:11]"
C       -0.59476528       0.68671132      -0.08422053
C       -0.74284229      -0.84825292      -0.09907265
C        0.75318423      -1.17089210       0.07208494
O        1.38216905      -0.33484010      -0.84830810
C        0.91136789       0.60134382       0.10136306
H       -1.09795279       1.14191983       0.76787485
H       -0.89063446       1.20792813      -0.99470745
H       -1.31748436      -1.23668611       0.74199048
H       -1.12840495      -1.28597259      -1.01990163
H        1.13612921      -0.20028194       1.13627478
H        1.58923374       1.43902266       0.22662224
11
Frame=7 idx=005812 GeodesicLength=0.35437960250080075 rxn_smarts="[C:1]1([H:6])([H:7])[C:2]([H:8])([H:9])[C@@:3]2([H:10])[O:4][C@@:5]12[H:11]>>[C:1]1([H:6])([H:7])[C:2]([H:8])([H:9])[C-:3]=[O+:4][C:5]1([H:10])[H:11]"
C       -0.59480630       0.68732620      -0.08505086
C       -0.74481300      -0.84807034      -0.10254718
C        0.74917006      -1.16952035       0.06649573
O        1.38508649      -0.33481267      -0.84369333
C        0.91081016       0.60277642       0.10830784
H       -1.10261688       1.14352984       0.76370895
H       -0.88710074       1.20642659      -0.99783743
H       -1.31389102      -1.23645022       0.74271599
H       -1.13806768      -1.28565079      -1.02001055
H        1.15334619      -0.21225239       1.14762539
H        1.58288274       1.44669770       0.22028546
11
Frame=8 idx=005812 GeodesicLength=0.40495776154054103 rxn_smarts="[C:1]1([H:6])([H:7])[C:2]([H:8])([H:9])[C@@:3]2([H:10])[O:4][C@@:5]12[H:11]>>[C:1]1([H:6])([H:7])[C:2]([H:8])([H:9])[C-:3]=[O+:4][C:5]1([H:10])[H:11]"
C       -0.59490396       0.68798620      -0.08594715
C       -0.74679690      -0.84785019      -0.10601052
C        0.74517192      -1.16799380       0.06100776
O        1.38795183      -0.33470949      -0.83900477
C        0.91015863       0.60427480       0.11536489
H       -1.10738333       1.14522089       0.75939299
H       -0.88354578       1.20492418      -1.00105745
H       -1.31030322      -1.23614187       0.74341923
H       -1.14771881      -1.28536756      -1.02000719
H        1.17101828      -0.22457604       1.15878781
H        1.57635134       1.45423288       0.21405441
11
Frame=9 idx=005812 GeodesicLength=0.4555105988660501 rxn_smarts="[C:1]1([H:6])([H:7])[C:2]([H:8])([H:9])[C@@:3]2([H:10])[O:4][C@@:5]12[H:11]>>[C:1]1([H:6])([H:7])[C:2]([H:8])([H:9])[C-:3]=[O+:4][C:5]1([H:10])[H:11]"
C       -0.59505839       0.68869058      -0.08691587
C       -0.74879408      -0.84759108      -0.10945802
C        0.74119605      -1.16631146       0.05561965
O        1.39076422      -0.33452898      -0.83424300
C        0.90941403       0.60583683       0.12253556
H       -1.11225009       1.14699288       0.75491615
H       -0.87996851       1.20341521      -1.00437500
H       -1.30672008      -1.23575736       0.74410720
H       -1.15736289      -1.28511858      -1.01988389
H        1.18914375      -0.23726487       1.16974998
H        1.56963600       1.46163682       0.20794723
11
Frame=10 idx=005812 GeodesicLength=0.5060623657121772 rxn_smarts="[C:1]1([H:6])([H:7])[C:2]([H:8])([H:9])[C@@:3]2([H:10])[O:4][C@@:5]12[H:11]>>[C:1]1([H:6])([H:7])[C:2]([H:8])([H:9])[C-:3]=[O+:4][C:5]1([H:10])[H:11]"
C       -0.59527283       0.68944352      -0.08795756
C       -0.75080319      -0.84729359      -0.11289116
C        0.73723471      -1.16447213       0.05034743
O        1.39351944      -0.33427252      -0.82940251
C        0.90856533       0.60746973       0.12981199
H       -1.11722269       1.14885045       0.75027534
H       -0.87637144       1.20190496      -1.00778959
H       -1.30314575      -1.23529496       0.74477542
H       -1.16698841      -1.28491080      -1.01964254
H        1.20774739      -0.25031823       1.18049907
H        1.56273744       1.46889358       0.20197411
11
Frame=11 idx=005812 GeodesicLength=0.5566064581351123 rxn_smarts="[C:1]1([H:6])([H:7])[C:2]([H:8])([H:9])[C@@:3]2([H:10])[O:4][C@@:5]12[H:11]>>[C:1]1([H:6])([H:7])[C:2]([H:8])([H:9])[C-:3]=[O+:4][C:5]1([H:10])[H:11]"
C       -0.59555053       0.69024450      -0.08907486
C       -0.75282800      -0.84695917      -0.11630739
C        0.73329242      -1.16247433       0.04519132
O        1.39622097      -0.33393763      -0.82448375
C        0.90761161       0.60917581       0.13719809
H       -1.12231100       1.15079574       0.74546374
H       -0.87275414       1.20038607      -1.01130872
H       -1.29958759      -1.23474960       0.74543102
H       -1.17660115      -1.28474955      -1.01928168
H        1.22683842      -0.26374046       1.19101682
H        1.55566900       1.47600860       0.19615543
11
Frame=12 idx=005812 GeodesicLength=0.6071134770084514 rxn_smarts="[C:1]1([H:6])([H:7])[C:2]([H:8])([H:9])[C@@:3]2([H:10])[O:4][C@@:5]12[H:11]>>[C:1]1([H:6])([H:7])[C:2]([H:8])([H:9])[C-:3]=[O+:4][C:5]1([H:10])[H:11]"
C       -0.59589231       0.69109411      -0.09027116
C       -0.75486356      -0.84658618      -0.11970268
C        0.72937074      -1.16031684       0.04015620
O        1.39886238      -0.33352335      -0.81947957
C        0.90654449       0.61095547       0.14469360
H       -1.12751757       1.15283043       0.74046910
H       -0.86911520       1.19885608      -1.01493371
H       -1.29604088      -1.23411387       0.74607738
H       -1.18619281      -1.28463338      -1.01879204
H        1.24641296      -0.27754200       1.20127518
H        1.54843177       1.48297954       0.19050770
11
Frame=13 idx=005812 GeodesicLength=0.6576235507301956 rxn_smarts="[C:1]1([H:6])([H:7])[C:2]([H:8])([H:9])[C@@:3]2([H:10])[O:4][C@@:5]12[H:11]>>[C:1]1([H:6])([H:7])[C:2]([H:8])([H:9])[C-:3]=[O+:4][C:5]1([H:10])[H:11]"
C       -0.59630079       0.69199411      -0.09154967
C       -0.75691445      -0.84617586      -0.12307757
C        0.72546596      -1.15799905       0.03524929
O        1.40144597      -0.33302709      -0.81438851
C        0.90535983       0.61281351       0.15229913
H       -1.13284831       1.15495906       0.73528495
H       -0.86545116       1.19731283      -1.01867216
H       -1.29251217      -1.23338569       0.74671626
H       -1.19576883      -1.28456918      -1.01817506
H        1.26650022      -0.29172892       1.21126744
H        1.54102374       1.48980628       0.18504588
11
Frame=14 idx=005812 GeodesicLength=0.7081305641308101 rxn_smarts="[C:1]1([H:6])([H:7])[C:2]([H:8])([H:9])[C@@:3]2([H:10])[O:4][C@@:5]12[H:11]>>[C:1]1([H:6])([H:7])[C:2]([H:8])([H:9])[C-:3]=[O+:4][C:5]1([H:10])[H:11]"
C       -0.59677779       0.69294518      -0.09291494
C       -0.75897975      -0.84572814      -0.12642946
C        0.72157904      -1.15551999       0.03047400
O        1.40397027      -0.33244585      -0.80920401
C        0.90404997       0.61475122       0.16001931
H       -1.13831174       1.15718491       0.72989719
H       -0.86175717       1.19575265      -1.02253003
H       -1.28900093      -1.23256076       0.74735261
H       -1.20533280      -1.28455933      -1.01742299
H        1.28711127      -0.30631366       1.22096972
H        1.53344962       1.49649377       0.17978860
11
Frame=15 idx=005812 GeodesicLength=0.7586338780674513 rxn_smarts="[C:1]1([H:6])([H:7])[C:2]([H:8])([H:9])[C@@:3]2([H:10])[O:4][C@@:5]12[H:11]>>[C:1]1([H:6])([H:7])[C:2]([H:8])([H:9])[C-:3]=[O+:4][C:5]1([H:10])[H:11]"
C       -0.59732439       0.69394836      -0.09437124
C       -0.76105983      -0.84524242      -0.12975479
C        0.71770793      -1.15287873       0.02583667
O        1.40643343      -0.33177610      -0.80391967
C        0.90260834       0.61676984       0.16785789
H       -1.14391258       1.15951351       0.72429233
H       -0.85802930       1.19416921      -1.02651513
H       -1.28550766      -1.23163555       0.74799083
H       -1.21488434      -1.28460308      -1.01653031
H        1.30826240      -0.32130907       1.23035859
H        1.52570600       1.50304403       0.17475482
11
Frame=16 idx=005812 GeodesicLength=0.809138418462123 rxn_smarts="[C:1]1([H:6])([H:7])[C:2]([H:8])([H:9])[C@@:3]2([H:10])[O:4][C@@:5]12[H:11]>>[C:1]1([H:6])([H:7])[C:2]([H:8])([H:9])[C-:3]=[O+:4][C:5]1([H:10])[H:11]"
C       -0.59794353       0.69500466      -0.09592111
C       -0.76315538      -0.84471944      -0.13305220
C        0.71385309      -1.15007482       0.02134611
O        1.40883534      -0.33101926      -0.79853039
C        0.90102867       0.61887298       0.17581349
H       -1.14965478       1.16194781       0.71846365
H       -0.85426851       1.19255953      -1.03063042
H       -1.28203830      -1.23060586       0.74863211
H       -1.22442053      -1.28470473      -1.01549618
H        1.32996407      -0.33671966       1.23941529
H        1.51779985       1.50945879       0.16995964
