16
Frame=0 idx=005027 GeodesicLength=0.0 rxn_smarts="[C:1]([O:2][C:3]([C@@:4]([C:5]([H:13])([H:14])[H:15])([O:6][H:16])[H:12])([H:10])[H:11])([H:7])([H:8])[H:9]>>[C:1]([O:2][C:3]([C:4][O:6][H:16])([H:10])[H:11])([H:7])([H:8])[H:9].[C:5]([H:12])([H:13])([H:14])[H:15]"
C        2.60070127      -0.47284964      -0.68996996
O        1.66437923      -0.32863396       0.34309723
C        0.38170763      -0.00939955      -0.13888825
C       -0.53076567       0.01155741       1.05832922
C       -2.18039477       0.88841051      -0.02353430
O       -1.01788710      -1.22191965       1.30020423
H        2.31855998      -1.27785972      -1.38185246
H        2.70967766       0.45609259      -1.26648876
H        3.55774872      -0.71922233      -0.23217899
H        0.07150100      -0.76431656      -0.88308465
H        0.38398325       0.97519728      -0.62536745
H       -1.35121380       0.92858568       1.02237593
H       -3.10903040       0.81147019       0.54064014
H       -2.11557732       0.10076031      -0.76603665
H       -2.04842717       1.87590297      -0.46287167
H       -1.33496251      -1.25377554       2.20562636
16
Frame=1 idx=005027 GeodesicLength=0.07211818127360384 rxn_smarts="[C:1]([O:2][C:3]([C@@:4]([C:5]([H:13])([H:14])[H:15])([O:6][H:16])[H:12])([H:10])[H:11])([H:7])([H:8])[H:9]>>[C:1]([O:2][C:3]([C:4][O:6][H:16])([H:10])[H:11])([H:7])([H:8])[H:9].[C:5]([H:12])([H:13])([H:14])[H:15]"
C        2.60792474      -0.46573119      -0.67832449
O        1.65917681      -0.32118073       0.34341797
C        0.37528234      -0.03354287      -0.15402714
C       -0.54315405      -0.00754293       1.03686785
C       -2.18832371       0.91061642      -0.01437227
O       -1.03027512      -1.23968301       1.28524268
H        2.34743816      -1.28848337      -1.35765602
H        2.70417146       0.45446376      -1.27087448
H        3.56540838      -0.68373522      -0.20728544
H        0.08026543      -0.80448352      -0.88752464
H        0.36790312       0.93823514      -0.66575928
H       -1.34223567       0.94863239       1.02667387
H       -3.11420789       0.84636113       0.55604518
H       -2.15284929       0.13180434      -0.76887752
H       -2.05014312       1.89782973      -0.45294185
H       -1.28638160      -1.28356007       2.20939557
16
Frame=2 idx=005027 GeodesicLength=0.14398373925136526 rxn_smarts="[C:1]([O:2][C:3]([C@@:4]([C:5]([H:13])([H:14])[H:15])([O:6][H:16])[H:12])([H:10])[H:11])([H:7])([H:8])[H:9]>>[C:1]([O:2][C:3]([C:4][O:6][H:16])([H:10])[H:11])([H:7])([H:8])[H:9].[C:5]([H:12])([H:13])([H:14])[H:15]"
C        2.61442817      -0.45731816      -0.66626503
O        1.65288691      -0.31299755       0.34360095
C        0.36828623      -0.05949118      -0.16944741
C       -0.55643860      -0.02730507       1.01484612
C       -2.19514754       0.93346816      -0.00475743
O       -1.04346950      -1.25788383       1.27082895
H        2.37708643      -1.29817127      -1.33170858
H        2.69727834       0.45304027      -1.27574864
H        3.57174463      -0.64500182      -0.18204958
H        0.08984666      -0.84771348      -0.89057575
H        0.35048694       0.89777892      -0.70775565
H       -1.33118307       0.96849387       1.03051569
H       -3.11771833       0.88373255       0.57261037
H       -2.19079971       0.16384163      -0.77022129
H       -2.04959728       1.91988392      -0.44326748
H       -1.23769027      -1.31435697       2.20939476
16
Frame=3 idx=005027 GeodesicLength=0.21561032639513883 rxn_smarts="[C:1]([O:2][C:3]([C@@:4]([C:5]([H:13])([H:14])[H:15])([O:6][H:16])[H:12])([H:10])[H:11])([H:7])([H:8])[H:9]>>[C:1]([O:2][C:3]([C:4][O:6][H:16])([H:10])[H:11])([H:7])([H:8])[H:9].[C:5]([H:12])([H:13])([H:14])[H:15]"
C        2.62006681      -0.44740702      -0.65389193
O        1.64541904      -0.30405445       0.34359839
C        0.36073144      -0.08741529      -0.18502130
C       -0.57065951      -0.04785674       0.99233503
C       -2.20060638       0.95695368       0.00526095
O       -1.05752412      -1.27662897       1.25704781
H        2.40747227      -1.30662398      -1.30400942
H        2.68877292       0.45191428      -1.28122140
H        3.57653251      -0.60268419      -0.15672807
H        0.10039161      -0.89415365      -0.89192082
H        0.33169076       0.85345457      -0.75121665
H       -1.31790183       0.98797492       1.03387987
H       -3.11923680       0.92367566       0.59023043
H       -2.22919865       0.19695908      -0.77004011
H       -2.04638595       1.94199258      -0.43393793
H       -1.18956414      -1.34610049       2.20563515
16
Frame=4 idx=005027 GeodesicLength=0.2869809761157753 rxn_smarts="[C:1]([O:2][C:3]([C@@:4]([C:5]([H:13])([H:14])[H:15])([O:6][H:16])[H:12])([H:10])[H:11])([H:7])([H:8])[H:9]>>[C:1]([O:2][C:3]([C:4][O:6][H:16])([H:10])[H:11])([H:7])([H:8])[H:9].[C:5]([H:12])([H:13])([H:14])[H:15]"
C        2.62466053      -0.43580564      -0.64132902
O        1.63666697      -0.29439178       0.34335217
C        0.35263920      -0.11746615      -0.20058928
C       -0.58585663      -0.06931517       0.96940153
C       -2.20442696       0.98102507       0.01558781
O       -1.07247515      -1.29599750       1.24399647
H        2.43847857      -1.31342347      -1.27468723
H        2.67845690       0.45123099      -1.28728658
H        3.57948603      -0.55658921      -0.13162944
H        0.11202831      -0.94384795      -0.89121900
H        0.31152093       0.80492864      -0.79586625
H       -1.30227178       1.00683848       1.03672905
H       -3.11842484       0.96620571       0.60870665
H       -2.26775446       0.23123761      -0.76833906
H       -2.04011189       1.96402733      -0.42507521
H       -1.14261572      -1.37865696       2.19824737
16
Frame=5 idx=005027 GeodesicLength=0.3581045413947775 rxn_smarts="[C:1]([O:2][C:3]([C@@:4]([C:5]([H:13])([H:14])[H:15])([O:6][H:16])[H:12])([H:10])[H:11])([H:7])([H:8])[H:9]>>[C:1]([O:2][C:3]([C:4][O:6][H:16])([H:10])[H:11])([H:7])([H:8])[H:9].[C:5]([H:12])([H:13])([H:14])[H:15]"
C        2.62802211      -0.42229424      -0.62874058
O        1.62654051      -0.28400772       0.34280403
C        0.34405867      -0.14978954      -0.21596403
C       -0.60205913      -0.09182699       0.94613955
C       -2.20628886       1.00562219       0.02613863
O       -1.08834997      -1.31612748       1.23172833
H        2.47001993      -1.31819203      -1.24383824
H        2.66605676       0.45110383      -1.29407350
H        3.58032275      -0.50639608      -0.10712275
H        0.12493765      -0.99681874      -0.88810300
H        0.28999334       0.75185793      -0.84141109
H       -1.28417820       1.02480148       1.03909231
H       -3.11489568       1.01131453       0.62783779
H       -2.30608367       0.26679484      -0.76516735
H       -2.03031387       1.98586268      -0.41675236
H       -1.09778235      -1.41190466       2.18743225
16
Frame=6 idx=005027 GeodesicLength=0.4289646122592904 rxn_smarts="[C:1]([O:2][C:3]([C@@:4]([C:5]([H:13])([H:14])[H:15])([O:6][H:16])[H:12])([H:10])[H:11])([H:7])([H:8])[H:9]>>[C:1]([O:2][C:3]([C:4][O:6][H:16])([H:10])[H:11])([H:7])([H:8])[H:9].[C:5]([H:12])([H:13])([H:14])[H:15]"
C        2.62995835      -0.40667724      -0.61633781
O        1.61497457      -0.27300049       0.34188742
C        0.33507228      -0.18448775      -0.23092244
C       -0.61927400      -0.11552953       0.92264825
C       -2.20587500       1.03062235       0.03678851
O       -1.10512307      -1.33714987       1.22029901
H        2.50192530      -1.32042836      -1.21176097
H        2.65136020       0.45173126      -1.30159296
H        3.57874668      -0.45199131      -0.08364907
H        0.13927548      -1.05293384      -0.88221241
H        0.26721134       0.69400318      -0.88739939
H       -1.26354987       1.04152985       1.04100561
H       -3.10827575       1.05886496       0.64733887
H       -2.34373966       0.30371806      -0.76061771
H       -2.01656698       2.00729591      -0.40906835
H       -1.05611987      -1.44556717       2.17359343
16
Frame=7 idx=005027 GeodesicLength=0.499784839530355 rxn_smarts="[C:1]([O:2][C:3]([C@@:4]([C:5]([H:13])([H:14])[H:15])([O:6][H:16])[H:12])([H:10])[H:11])([H:7])([H:8])[H:9]>>[C:1]([O:2][C:3]([C:4][O:6][H:16])([H:10])[H:11])([H:7])([H:8])[H:9].[C:5]([H:12])([H:13])([H:14])[H:15]"
C        2.63012336      -0.38885771      -0.60421305
O        1.60171337      -0.26139623       0.34064486
C        0.32566017      -0.22153088      -0.24523291
C       -0.63768120      -0.14043985       0.89903069
C       -2.20291889       1.05601859       0.04728479
O       -1.12301144      -1.35910543       1.20977871
H        2.53387164      -1.31986389      -1.17855929
H        2.63410386       0.45313167      -1.30989030
H        3.57422521      -0.39332378      -0.06141806
H        0.15508312      -1.11192970      -0.87324400
H        0.24331814       0.63131831      -0.93335171
H       -1.24055160       1.05679843       1.04257475
H       -3.09831253       1.10878767       0.66671146
H       -2.38020218       0.34221705      -0.75502724
H       -1.99844889       2.02829096      -0.40218435
H       -1.01697216      -1.48011522       2.15709563
16
Frame=8 idx=005027 GeodesicLength=0.570207226457112 rxn_smarts="[C:1]([O:2][C:3]([C@@:4]([C:5]([H:13])([H:14])[H:15])([O:6][H:16])[H:12])([H:10])[H:11])([H:7])([H:8])[H:9]>>[C:1]([O:2][C:3]([C:4][O:6][H:16])([H:10])[H:11])([H:7])([H:8])[H:9].[C:5]([H:12])([H:13])([H:14])[H:15]"
C        2.62833185      -0.36875931      -0.59262841
O        1.58686759      -0.24924395       0.33895735
C        0.31603081      -0.26078819      -0.25855798
C       -0.65709774      -0.16659239       0.87536153
C       -2.19714089       1.08147599       0.05755849
O       -1.14172393      -1.38193877       1.19995734
H        2.56558871      -1.31599475      -1.14448246
H        2.61398628       0.45521058      -1.31902945
H        3.56655777      -0.33050165      -0.04108737
H        0.17257769      -1.17319987      -0.86075186
H        0.21847542       0.56375385      -0.97859703
H       -1.21520745       1.07012604       1.04391409
H       -3.08467869       1.16053143       0.68561677
H       -2.41480893       0.38242041      -0.74854620
H       -1.97572426       2.04839172      -0.39592084
H       -0.98203424      -1.51489114       2.13823603
16
Frame=9 idx=005027 GeodesicLength=0.6405540536097525 rxn_smarts="[C:1]([O:2][C:3]([C@@:4]([C:5]([H:13])([H:14])[H:15])([O:6][H:16])[H:12])([H:10])[H:11])([H:7])([H:8])[H:9]>>[C:1]([O:2][C:3]([C:4][O:6][H:16])([H:10])[H:11])([H:7])([H:8])[H:9].[C:5]([H:12])([H:13])([H:14])[H:15]"
C        2.62440913      -0.34654686      -0.58182318
O        1.57039605      -0.23680105       0.33691362
C        0.30633907      -0.30188125      -0.27063282
C       -0.67757829      -0.19383179       0.85186132
C       -2.18849220       1.10675589       0.06731365
O       -1.16116389      -1.40571770       1.19105945
H        2.59652594      -1.30863083      -1.11029300
H        2.59123687       0.45817562      -1.32884805
H        3.55544273      -0.26435225      -0.02297695
H        0.19165964      -1.23591140      -0.84479019
H        0.19327150       0.49207728      -1.02229595
H       -1.18796352       1.08141820       1.04525231
H       -3.06747038       1.21339603       0.70351471
H       -2.44691404       0.42416855      -0.74168570
H       -1.94847654       2.06746922      -0.39046725
H       -0.95122209      -1.54978767       2.11789806
16
Frame=10 idx=005027 GeodesicLength=0.710844321823058 rxn_smarts="[C:1]([O:2][C:3]([C@@:4]([C:5]([H:13])([H:14])[H:15])([O:6][H:16])[H:12])([H:10])[H:11])([H:7])([H:8])[H:9]>>[C:1]([O:2][C:3]([C:4][O:6][H:16])([H:10])[H:11])([H:7])([H:8])[H:9].[C:5]([H:12])([H:13])([H:14])[H:15]"
C        2.61817132      -0.32232891      -0.57194924
O        1.55232622      -0.22423400       0.33453276
C        0.29672022      -0.34451122      -0.28122245
C       -0.69905866      -0.22207905       0.82857420
C       -2.17689013       1.13160826       0.07639720
O       -1.18117034      -1.43038526       1.18294886
H        2.62629978      -1.29759033      -1.07634418
H        2.56574974       0.46197811      -1.33928047
H        3.54066390      -0.19531635      -0.00738514
H        0.21229145      -1.29930976      -0.82526512
H        0.16805314       0.41672838      -1.06382998
H       -1.15911583       1.09042037       1.04680756
H       -3.04666324       1.26686126       0.72001071
H       -2.47596696       0.46748831      -0.73479939
H       -1.91667619       2.08524337      -0.38574396
H       -0.92473440      -1.58457316       2.09654864
16
Frame=11 idx=005027 GeodesicLength=0.7812257674240336 rxn_smarts="[C:1]([O:2][C:3]([C@@:4]([C:5]([H:13])([H:14])[H:15])([O:6][H:16])[H:12])([H:10])[H:11])([H:7])([H:8])[H:9]>>[C:1]([O:2][C:3]([C:4][O:6][H:16])([H:10])[H:11])([H:7])([H:8])[H:9].[C:5]([H:12])([H:13])([H:14])[H:15]"
C        2.60954658      -0.29634185      -0.56314512
O        1.53274404      -0.21169598       0.33187080
C        0.28732495      -0.38824504      -0.29015876
C       -0.72147986      -0.25116092       0.80555531
C       -2.16240963       1.15577178       0.08467805
O       -1.20158416      -1.45586888       1.17554549
H        2.65453312      -1.28290509      -1.04303789
H        2.53765809       0.46651179      -1.35028298
H        3.52213998      -0.12404649       0.00549191
H        0.23434567      -1.36254456      -0.80229238
H        0.14328875       0.33843583      -1.10266287
H       -1.12910133       1.09703204       1.04886494
H       -3.02246490       1.32026048       0.73478764
H       -2.50147032       0.51230345      -0.72832012
H       -1.88053270       2.10152360      -0.38162317
H       -0.90253826      -1.61903016       2.07472914
16
Frame=12 idx=005027 GeodesicLength=0.8517157655311907 rxn_smarts="[C:1]([O:2][C:3]([C@@:4]([C:5]([H:13])([H:14])[H:15])([O:6][H:16])[H:12])([H:10])[H:11])([H:7])([H:8])[H:9]>>[C:1]([O:2][C:3]([C:4][O:6][H:16])([H:10])[H:11])([H:7])([H:8])[H:9].[C:5]([H:12])([H:13])([H:14])[H:15]"
C        2.59843356      -0.26887803      -0.55543143
O        1.51168664      -0.19924989       0.32893248
C        0.27825419      -0.43265233      -0.29731443
C       -0.74476598      -0.28086532       0.78271857
C       -2.14520068       1.17903634       0.09209696
O       -1.22219536      -1.48190256       1.16863093
H        2.68095781      -1.26468971      -1.01046387
H        2.50693848       0.47139272      -1.36177390
H        3.49972984      -0.05112893       0.01556206
H        0.25776506      -1.42480545      -0.77589475
H        0.11927935       0.25774703      -1.13840694
H       -1.09840467       1.10114825       1.05166826
H       -2.99514900       1.37308669       0.74756556
H       -2.52299514       0.55868638      -0.72259574
H       -1.84032734       2.11610319      -0.37778569
H       -0.88400677      -1.65302840       2.05249194
16
Frame=13 idx=005027 GeodesicLength=0.9224443347312107 rxn_smarts="[C:1]([O:2][C:3]([C@@:4]([C:5]([H:13])([H:14])[H:15])([O:6][H:16])[H:12])([H:10])[H:11])([H:7])([H:8])[H:9]>>[C:1]([O:2][C:3]([C:4][O:6][H:16])([H:10])[H:11])([H:7])([H:8])[H:9].[C:5]([H:12])([H:13])([H:14])[H:15]"
C        2.58507193      -0.24047769      -0.54890158
O        1.48948820      -0.18717138       0.32583452
C        0.26972066      -0.47701462      -0.30272137
C       -0.76871626      -0.31084439       0.76009375
C       -2.12571633       1.20104592       0.09858495
O       -1.24258540      -1.50838865       1.16222672
H        2.70509804      -1.24337976      -0.97931458
H        2.47436554       0.47665832      -1.37351381
H        3.47383645       0.02202367       0.02289822
H        0.28210085      -1.48500526      -0.74679065
H        0.09676796       0.17616061      -1.17066879
H       -1.06755017       1.10302620       1.05540901
H       -2.96536591       1.42426259       0.75831168
H       -2.54038820       0.60609795      -0.71799040
H       -1.79699438       2.12888265      -0.37416068
H       -0.86913297      -1.68587615       2.03070300
16
Frame=14 idx=005027 GeodesicLength=0.9934600994298781 rxn_smarts="[C:1]([O:2][C:3]([C@@:4]([C:5]([H:13])([H:14])[H:15])([O:6][H:16])[H:12])([H:10])[H:11])([H:7])([H:8])[H:9]>>[C:1]([O:2][C:3]([C:4][O:6][H:16])([H:10])[H:11])([H:7])([H:8])[H:9].[C:5]([H:12])([H:13])([H:14])[H:15]"
C        2.56953522      -0.21143739      -0.54349869
O        1.46623886      -0.17546459       0.32256960
C        0.26177048      -0.52099130      -0.30643459
C       -0.79325537      -0.34092809       0.73749351
C       -2.10424152       1.22168994       0.10420033
O       -1.26260760      -1.53508165       1.15611909
H        2.72690583      -1.21928606      -0.94953951
H        2.44007191       0.48193466      -1.38546322
H        3.44456038       0.09496210       0.02761179
H        0.30724272      -1.54265357      -0.71517354
H        0.07596133       0.09412345      -1.19947591
H       -1.03695428       1.10271360       1.06029183
H       -2.93353096       1.47346445       0.76702516
H       -2.55351828       0.65455256      -0.71471082
H       -1.75092564       2.13980981      -0.37035672
H       -0.85725308      -1.71740792       2.00934169
16
Frame=15 idx=005027 GeodesicLength=1.065056699494574 rxn_smarts="[C:1]([O:2][C:3]([C@@:4]([C:5]([H:13])([H:14])[H:15])([O:6][H:16])[H:12])([H:10])[H:11])([H:7])([H:8])[H:9]>>[C:1]([O:2][C:3]([C:4][O:6][H:16])([H:10])[H:11])([H:7])([H:8])[H:9].[C:5]([H:12])([H:13])([H:14])[H:15]"
C        2.55197178      -0.18201149      -0.53915753
O        1.44201432      -0.16408407       0.31916352
C        0.25440876      -0.56428152      -0.30862482
C       -0.81835918      -0.37101472       0.71474174
C       -2.08107684       1.24091010       0.10900830
O       -1.28216748      -1.56193153       1.15028407
H        2.74633718      -1.19282676      -0.92108361
H        2.40440396       0.48695550      -1.39770086
H        3.41207289       0.16734926       0.02994979
H        0.33295518      -1.59743483      -0.68143387
H        0.05711080       0.01215192      -1.22506530
H       -1.00697107       1.10037917       1.06655649
H       -2.90005457       1.52043113       0.77385122
H       -2.56238795       0.70396363      -0.71298075
H       -1.70249090       2.14898786      -0.36610133
H       -0.84776687      -1.74754366       1.98859295
16
Frame=16 idx=005027 GeodesicLength=1.1366439833955262 rxn_smarts="[C:1]([O:2][C:3]([C@@:4]([C:5]([H:13])([H:14])[H:15])([O:6][H:16])[H:12])([H:10])[H:11])([H:7])([H:8])[H:9]>>[C:1]([O:2][C:3]([C:4][O:6][H:16])([H:10])[H:11])([H:7])([H:8])[H:9].[C:5]([H:12])([H:13])([H:14])[H:15]"
C        2.53283539      -0.15296368      -0.53575371
O        1.41728134      -0.15334536       0.31560719
C        0.24783655      -0.60616894      -0.30951588
C       -0.84362284      -0.40061789       0.69159170
C       -2.05699894       1.25840299       0.11312365
O       -1.30059010      -1.58839178       1.14441340
H        2.76316311      -1.16472951      -0.89431597
H        2.36826519       0.49166973      -1.40961253
H        3.37715725       0.23738442       0.03025465
H        0.35880795      -1.64839924      -0.64641448
H        0.04074816      -0.06827173      -1.24729381
H       -0.97791978       1.09647153       1.07380520
H       -2.86577221       1.56423399       0.77914390
H       -2.56752154       0.75359662      -0.71241792
H       -1.65333943       2.15622013      -0.36134388
H       -0.84033010      -1.77509128       1.96872847
