10
Frame=0 idx=005487 GeodesicLength=0.0 rxn_smarts="[O:1]=[C:2]([C@@:3]1([H:7])[C:4]([H:8])([H:9])[N:5]1[H:10])[H:6]>>[O:1]([C:2][C@@:3]1([H:7])[C:4]([H:8])([H:9])[N:5]1[H:10])[H:6]"
O        1.26022530      -0.35030317       1.34434945
C        1.30993770      -0.40622975       0.04047490
C        0.22524616       0.26082253      -0.68749153
C       -1.14986921      -0.18771111      -0.29940874
N       -0.68373210       1.12531876       0.05944417
H        2.13263930      -0.92867104       0.82791663
H        0.42111004       0.53033482      -1.71653437
H       -1.90489191      -0.22900336      -1.07502552
H       -1.22175160      -0.94694295       0.47229776
H       -0.38891369       1.13238529       1.03397724
10
Frame=1 idx=005487 GeodesicLength=0.03142957870303907 rxn_smarts="[O:1]=[C:2]([C@@:3]1([H:7])[C:4]([H:8])([H:9])[N:5]1[H:10])[H:6]>>[O:1]([C:2][C@@:3]1([H:7])[C:4]([H:8])([H:9])[N:5]1[H:10])[H:6]"
O        1.26321174      -0.34420024       1.34246445
C        1.31635930      -0.39176297       0.04166423
C        0.22529730       0.26445994      -0.68651629
C       -1.14797422      -0.18914291      -0.29856785
N       -0.68801591       1.12689424       0.05772148
H        2.12549780      -0.95348998       0.82695547
H        0.41968265       0.53191183      -1.71646956
H       -1.90263652      -0.23503900      -1.07428243
H       -1.21687259      -0.94717485       0.47454748
H       -0.39454955       1.13754394       1.03248301
10
Frame=2 idx=005487 GeodesicLength=0.062860504665805 rxn_smarts="[O:1]=[C:2]([C@@:3]1([H:7])[C:4]([H:8])([H:9])[N:5]1[H:10])[H:6]>>[O:1]([C:2][C@@:3]1([H:7])[C:4]([H:8])([H:9])[N:5]1[H:10])[H:6]"
O        1.26607378      -0.33863028       1.34068519
C        1.32260322      -0.37772509       0.04300463
C        0.22542690       0.26786391      -0.68544391
C       -1.14610443      -0.19051637      -0.29772119
N       -0.69208848       1.12839518       0.05604183
H        2.11823785      -0.97696368       0.82546891
H        0.41846829       0.53321855      -1.71628550
H       -1.90033979      -0.24085504      -1.07358111
H       -1.21223672      -0.94732507       0.47679178
H       -0.40004063       1.14253790       1.03103936
10
Frame=3 idx=005487 GeodesicLength=0.09431845754217687 rxn_smarts="[O:1]=[C:2]([C@@:3]1([H:7])[C:4]([H:8])([H:9])[N:5]1[H:10])[H:6]>>[O:1]([C:2][C@@:3]1([H:7])[C:4]([H:8])([H:9])[N:5]1[H:10])[H:6]"
O        1.26883778      -0.33350063       1.33900627
C        1.32868640      -0.36405289       0.04449262
C        0.22562796       0.27107185      -0.68427896
C       -1.14425729      -0.19184067      -0.29686697
N       -0.69598521       1.12983586       0.05439334
H        2.11087532      -0.99930395       0.82349094
H        0.41744921       0.53429141      -1.71599010
H       -1.89800036      -0.24649745      -1.07292091
H       -1.20781372      -0.94740368       0.47903940
H       -0.40542012       1.14740014       1.02963439
10
Frame=4 idx=005487 GeodesicLength=0.12576568536262914 rxn_smarts="[O:1]=[C:2]([C@@:3]1([H:7])[C:4]([H:8])([H:9])[N:5]1[H:10])[H:6]>>[O:1]([C:2][C@@:3]1([H:7])[C:4]([H:8])([H:9])[N:5]1[H:10])[H:6]"
O        1.27154117      -0.32868150       1.33741313
C        1.33463998      -0.35064779       0.04611584
C        0.22590101       0.27412582      -0.68302499
C       -1.14240204      -0.19313440      -0.29599688
N       -0.69974162       1.13122172       0.05277268
H        2.10329116      -1.02076466       0.82102996
H        0.41660568       0.53517037      -1.71558748
H       -1.89558279      -0.25203585      -1.07228808
H       -1.20352989      -0.94741816       0.48130472
H       -0.41072265       1.15216446       1.02826109
10
Frame=5 idx=005487 GeodesicLength=0.157228027432672 rxn_smarts="[O:1]=[C:2]([C@@:3]1([H:7])[C:4]([H:8])([H:9])[N:5]1[H:10])[H:6]>>[O:1]([C:2][C@@:3]1([H:7])[C:4]([H:8])([H:9])[N:5]1[H:10])[H:6]"
O        1.27405578      -0.32439838       1.33592225
C        1.34035769      -0.33772424       0.04789052
C        0.22621424       0.27695035      -0.68168332
C       -1.14062870      -0.19434843      -0.29513930
N       -0.70331754       1.13255729       0.05117198
H        2.09604370      -1.04096353       0.81816023
H        0.41594947       0.53579051      -1.71507224
H       -1.89318439      -0.25732285      -1.07172073
H       -1.19957339      -0.94733078       0.48355232
H       -0.41591686       1.15679006       1.02691829
10
Frame=6 idx=005487 GeodesicLength=0.1886927797582505 rxn_smarts="[O:1]=[C:2]([C@@:3]1([H:7])[C:4]([H:8])([H:9])[N:5]1[H:10])[H:6]>>[O:1]([C:2][C@@:3]1([H:7])[C:4]([H:8])([H:9])[N:5]1[H:10])[H:6]"
O        1.27642125      -0.32053024       1.33452345
C        1.34588048      -0.32517156       0.04980651
C        0.22656842       0.27959019      -0.68025964
C       -1.13891215      -0.19550262      -0.29428704
N       -0.70674897       1.13385141       0.04958584
H        2.08902267      -1.06016213       0.81489557
H        0.41546198       0.53619188      -1.71445387
H       -1.89078137      -0.26242801      -1.07120677
H       -1.19587740      -0.94715314       0.48579722
H       -0.42103492       1.16131423       1.02559873
10
Frame=7 idx=005487 GeodesicLength=0.2201723817649625 rxn_smarts="[O:1]=[C:2]([C@@:3]1([H:7])[C:4]([H:8])([H:9])[N:5]1[H:10])[H:6]>>[O:1]([C:2][C@@:3]1([H:7])[C:4]([H:8])([H:9])[N:5]1[H:10])[H:6]"
O        1.27866901      -0.31699710       1.33321092
C        1.35123581      -0.31292145       0.05185896
C        0.22696235       0.28207742      -0.67875805
C       -1.13723955      -0.19660874      -0.29343468
N       -0.71006459       1.13511281       0.04800520
H        2.08216891      -1.07854193       0.81125167
H        0.41513025       0.53640717      -1.71373912
H       -1.88836187      -0.26739585      -1.07073835
H       -1.19239798      -0.94689613       0.48805174
H       -0.42610234       1.16576380       1.02429170
10
Frame=8 idx=005487 GeodesicLength=0.2516662929613379 rxn_smarts="[O:1]=[C:2]([C@@:3]1([H:7])[C:4]([H:8])([H:9])[N:5]1[H:10])[H:6]>>[O:1]([C:2][C@@:3]1([H:7])[C:4]([H:8])([H:9])[N:5]1[H:10])[H:6]"
O        1.28082431      -0.31373352       1.33197910
C        1.35644678      -0.30091098       0.05404352
C        0.22739583       0.28444054      -0.67718114
C       -1.13559605      -0.19767631      -0.29257652
N       -0.71328520       1.13634703       0.04642557
H        2.07541258      -1.09625084       0.80723557
H        0.41493992       0.53646036      -1.71293373
H       -1.88590738      -0.27227048      -1.07031071
H       -1.18909489      -0.94656492       0.49032734
H       -0.43113591       1.17015911       1.02299099
10
Frame=9 idx=005487 GeodesicLength=0.28317942251514394 rxn_smarts="[O:1]=[C:2]([C@@:3]1([H:7])[C:4]([H:8])([H:9])[N:5]1[H:10])[H:6]>>[O:1]([C:2][C@@:3]1([H:7])[C:4]([H:8])([H:9])[N:5]1[H:10])[H:6]"
O        1.28290901      -0.31068789       1.33082472
C        1.36153177      -0.28909404       0.05635710
C        0.22786923       0.28670000      -0.67553114
C       -1.13397108      -0.19871340      -0.29170878
N       -0.71642741       1.13755830       0.04484208
H        2.06870003      -1.11340137       0.80285170
H        0.41488467       0.53637162      -1.71204143
H       -1.88340797      -0.27708443      -1.06991744
H       -1.18593787      -0.94616523       0.49263245
H       -0.43615037       1.17451644       1.02169074
10
Frame=10 idx=005487 GeodesicLength=0.314744959721681 rxn_smarts="[O:1]=[C:2]([C@@:3]1([H:7])[C:4]([H:8])([H:9])[N:5]1[H:10])[H:6]>>[O:1]([C:2][C@@:3]1([H:7])[C:4]([H:8])([H:9])[N:5]1[H:10])[H:6]"
O        1.28495625      -0.30780964       1.32974633
C        1.36652273      -0.27742446       0.05879652
C        0.22838816       0.28888058      -0.67381187
C       -1.13235858      -0.19973118      -0.29082530
N       -0.71951514       1.13875669       0.04324655
H        2.06196693      -1.13011410       0.79810501
H        0.41496470       0.53616999      -1.71107040
H       -1.88085934      -0.28187369      -1.06955210
H       -1.18289972      -0.94571134       0.49498313
H       -0.44116599       1.17885717       1.02038213
10
Frame=11 idx=005487 GeodesicLength=0.34630190748894735 rxn_smarts="[O:1]=[C:2]([C@@:3]1([H:7])[C:4]([H:8])([H:9])[N:5]1[H:10])[H:6]>>[O:1]([C:2][C@@:3]1([H:7])[C:4]([H:8])([H:9])[N:5]1[H:10])[H:6]"
O        1.28694065      -0.30511082       1.32874267
C        1.37139651      -0.26590057       0.06136731
C        0.22894147       0.29097422      -0.67201825
C       -1.13075370      -0.20072477      -0.28992993
N       -0.72253624       1.13993252       0.04164122
H        2.05524641      -1.14636899       0.79299075
H        0.41516364       0.53584060      -1.71000896
H       -1.87824987      -0.28663681      -1.06921983
H       -1.17998160      -0.94518287       0.49737088
H       -0.44616727       1.18317750       1.01906414
10
Frame=12 idx=005487 GeodesicLength=0.37785463773156525 rxn_smarts="[O:1]=[C:2]([C@@:3]1([H:7])[C:4]([H:8])([H:9])[N:5]1[H:10])[H:6]>>[O:1]([C:2][C@@:3]1([H:7])[C:4]([H:8])([H:9])[N:5]1[H:10])[H:6]"
O        1.28884529      -0.30257870       1.32780634
C        1.37613092      -0.25454216       0.06405901
C        0.22952295       0.29297409      -0.67015497
C       -1.12915780      -0.20168926      -0.28902536
N       -0.72548654       1.14108021       0.04003087
H        2.04859567      -1.16215862       0.78753531
H        0.41547722       0.53537264      -1.70886283
H       -1.87558300      -0.29134650      -1.06891589
H       -1.17718683      -0.94457739       0.49978468
H       -0.45115786       1.18746569       1.01774285
10
Frame=13 idx=005487 GeodesicLength=0.40943227493407547 rxn_smarts="[O:1]=[C:2]([C@@:3]1([H:7])[C:4]([H:8])([H:9])[N:5]1[H:10])[H:6]>>[O:1]([C:2][C@@:3]1([H:7])[C:4]([H:8])([H:9])[N:5]1[H:10])[H:6]"
O        1.29066060      -0.30026859       1.32694737
C        1.38074012      -0.24337517       0.06688268
C        0.23013134       0.29487902      -0.66822489
C       -1.12760794      -0.20261763      -0.28811369
N       -0.72838060       1.14222508       0.03839973
H        2.04216538      -1.17746702       0.78175869
H        0.41591894       0.53477104      -1.70763754
H       -1.87290195      -0.29599082      -1.06864990
H       -1.17457451      -0.94389999       0.50223387
H       -0.45615138       1.19174408       1.01640369
10
Frame=14 idx=005487 GeodesicLength=0.4410167702836606 rxn_smarts="[O:1]=[C:2]([C@@:3]1([H:7])[C:4]([H:8])([H:9])[N:5]1[H:10])[H:6]>>[O:1]([C:2][C@@:3]1([H:7])[C:4]([H:8])([H:9])[N:5]1[H:10])[H:6]"
O        1.29236469      -0.29817783       1.32616029
C        1.38519795      -0.23241889       0.06983310
C        0.23075542       0.29667344      -0.66623108
C       -1.12610864      -0.20350481      -0.28720215
N       -0.73120726       1.14335740       0.03674989
H        2.03603612      -1.19227346       0.77568953
H        0.41647895       0.53402384      -1.70633094
H       -1.87021846      -0.30053582      -1.06842050
H       -1.17215702      -0.94314146       0.50470281
H       -0.46114177       1.19599760       1.01504904
10
Frame=15 idx=005487 GeodesicLength=0.4726113695840987 rxn_smarts="[O:1]=[C:2]([C@@:3]1([H:7])[C:4]([H:8])([H:9])[N:5]1[H:10])[H:6]>>[O:1]([C:2][C@@:3]1([H:7])[C:4]([H:8])([H:9])[N:5]1[H:10])[H:6]"
O        1.29397932      -0.29627577       1.32544807
C        1.38952575      -0.22163389       0.07291287
C        0.23139761       0.29837498      -0.66417465
C       -1.12465403      -0.20435761      -0.28628725
N       -0.73397881       1.14448265       0.03507628
H        2.03015581      -1.20665701       0.76932398
H        0.41715295       0.53314484      -1.70494833
H       -1.86752761      -0.30500870      -1.06822602
H       -1.16991356      -0.94230938       0.50720088
H       -0.46613741       1.20023990       1.01367417
10
Frame=16 idx=005487 GeodesicLength=0.5042069899530971 rxn_smarts="[O:1]=[C:2]([C@@:3]1([H:7])[C:4]([H:8])([H:9])[N:5]1[H:10])[H:6]>>[O:1]([C:2][C@@:3]1([H:7])[C:4]([H:8])([H:9])[N:5]1[H:10])[H:6]"
O        1.29551090      -0.29453084       1.32480486
C        1.39372973      -0.21099123       0.07611912
C        0.23205977       0.29999564      -0.66205381
C       -1.12322924      -0.20518017      -0.28536445
N       -0.73670255       1.14559915       0.03338030
H        2.02446611      -1.22067527       0.76265133
H        0.41793690       0.53213838      -1.70348781
H       -1.86480836      -0.30943211      -1.06805888
H       -1.16781731      -0.94140157       0.50973231
H       -0.47114596       1.20447802       1.01227702
