13
Frame=0 idx=010718 GeodesicLength=0.0 rxn_smarts="[C:1]([O:2][C@@:3]1([H:11])[C:4]([H:12])([H:13])[O:5][C:6]1=[O:7])([H:8])([H:9])[H:10]>>[C:1]([O+:7]=[C:6]1[C@:3]([O-:2])([H:11])[C:4]([H:12])([H:13])[O:5]1)([H:8])([H:9])[H:10]"
C        1.88579762      -0.16420186      -1.11749356
O        0.93536152       0.15871598       0.95824235
C       -0.28582106      -0.31756912       0.82544244
C       -1.61045195       0.48450472       1.10940422
O       -1.97250569       0.35470091      -0.33230976
C       -0.76264541      -0.10819651      -0.58584687
O       -0.12979789      -0.08737064      -1.61446373
H        2.15540351      -1.01350742      -0.51185155
H        2.20300124       0.79763223      -0.75152738
H        1.85788929      -0.30478743      -2.18654691
H       -0.45221609      -1.36895381       1.14155257
H       -1.44606274       1.53625950       1.33148681
H       -2.37795241       0.03277345       1.73391140
13
Frame=1 idx=010718 GeodesicLength=0.041319126482102335 rxn_smarts="[C:1]([O:2][C@@:3]1([H:11])[C:4]([H:12])([H:13])[O:5][C:6]1=[O:7])([H:8])([H:9])[H:10]>>[C:1]([O+:7]=[C:6]1[C@:3]([O-:2])([H:11])[C:4]([H:12])([H:13])[O:5]1)([H:8])([H:9])[H:10]"
C        1.87177235      -0.16433582      -1.10439745
O        0.93508596       0.17223853       0.95098976
C       -0.28369807      -0.31414947       0.82190541
C       -1.60810244       0.48571923       1.10720216
O       -1.97495228       0.35427256      -0.33217194
C       -0.76979143      -0.11796354      -0.59091293
O       -0.14042250      -0.10075828      -1.62303843
H        2.14934837      -1.02951727      -0.52388021
H        2.21379428       0.78827742      -0.73495855
H        1.86189733      -0.27981873      -2.17739767
H       -0.43939353      -1.36528652       1.14350352
H       -1.44270802       1.53753009       1.32819739
H       -2.37283001       0.03379179       1.73495895
13
Frame=2 idx=010718 GeodesicLength=0.0826910442329003 rxn_smarts="[C:1]([O:2][C@@:3]1([H:11])[C:4]([H:12])([H:13])[O:5][C:6]1=[O:7])([H:8])([H:9])[H:10]>>[C:1]([O+:7]=[C:6]1[C@:3]([O-:2])([H:11])[C:4]([H:12])([H:13])[O:5]1)([H:8])([H:9])[H:10]"
C        1.85789117      -0.16433669      -1.09147450
O        0.93475834       0.18584886       0.94383629
C       -0.28153152      -0.31066105       0.81844222
C       -1.60580196       0.48690862       1.10493704
O       -1.97719426       0.35384075      -0.33215151
C       -0.77676144      -0.12772667      -0.59580090
O       -0.15086202      -0.11430800      -1.63140211
H        2.14300939      -1.04484054      -0.53661146
H        2.22497812       0.77818043      -0.71834378
H        1.86525485      -0.25492356      -2.16752829
H       -0.42641410      -1.36147673       1.14539034
H       -1.43951910       1.53878474       1.32490424
H       -2.36780747       0.03470985       1.73580242
13
Frame=3 idx=010718 GeodesicLength=0.12411849479669554 rxn_smarts="[C:1]([O:2][C@@:3]1([H:11])[C:4]([H:12])([H:13])[O:5][C:6]1=[O:7])([H:8])([H:9])[H:10]>>[C:1]([O+:7]=[C:6]1[C@:3]([O-:2])([H:11])[C:4]([H:12])([H:13])[O:5]1)([H:8])([H:9])[H:10]"
C        1.84414601      -0.16418890      -1.07869984
O        0.93436333       0.19950244       0.93679295
C       -0.27932953      -0.30712252       0.81505988
C       -1.60352211       0.48809258       1.10259648
O       -1.97919537       0.35339674      -0.33225784
C       -0.78354649      -0.13752413      -0.60051071
O       -0.16111418      -0.12810276      -1.63955356
H        2.13642197      -1.05944878      -0.55006876
H        2.23640627       0.76727272      -0.70163968
H        1.86798527      -0.22997732      -2.15697552
H       -0.41331335      -1.35752196       1.14724337
H       -1.43643783       1.54003067       1.32156728
H       -2.36286398       0.03559124       1.73644596
13
Frame=4 idx=010718 GeodesicLength=0.1655916919003046 rxn_smarts="[C:1]([O:2][C@@:3]1([H:11])[C:4]([H:12])([H:13])[O:5][C:6]1=[O:7])([H:8])([H:9])[H:10]>>[C:1]([O+:7]=[C:6]1[C@:3]([O-:2])([H:11])[C:4]([H:12])([H:13])[O:5]1)([H:8])([H:9])[H:10]"
C        1.83057771      -0.16395084      -1.06606258
O        0.93391324       0.21330488       0.92983856
C       -0.27706928      -0.30347912       0.81175007
C       -1.60129447       0.48924708       1.10019491
O       -1.98098482       0.35293638      -0.33248452
C       -0.79012718      -0.14729228      -0.60504607
O       -0.17114290      -0.14201363      -1.64748840
H        2.12954981      -1.07341242      -0.56421635
H        2.24810177       0.75556494      -0.68485754
H        1.87005885      -0.20512270      -2.14577667
H       -0.40001683      -1.35338409       1.14902360
H       -1.43355334       1.54125440       1.31823859
H       -2.35801255       0.03634741       1.73688640
13
Frame=5 idx=010718 GeodesicLength=0.20713351800048266 rxn_smarts="[C:1]([O:2][C@@:3]1([H:11])[C:4]([H:12])([H:13])[O:5][C:6]1=[O:7])([H:8])([H:9])[H:10]>>[C:1]([O+:7]=[C:6]1[C@:3]([O-:2])([H:11])[C:4]([H:12])([H:13])[O:5]1)([H:8])([H:9])[H:10]"
C        1.81718667      -0.16362198      -1.05353579
O        0.93341377       0.22722994       0.92298016
C       -0.27475162      -0.29974823       0.80852011
C       -1.59910286       0.49039009       1.09772226
O       -1.98255761       0.35244451      -0.33283925
C       -0.79650839      -0.15706501      -0.60940860
O       -0.18095892      -0.15608704      -1.65520766
H        2.12242069      -1.08672860      -0.57907148
H        2.25996049       0.74299709      -0.66797619
H        1.87150800      -0.18023913      -2.13395503
H       -0.38654325      -1.34907539       1.15076213
H       -1.43082574       1.54247971       1.31487354
H       -2.35324121       0.03702403       1.73713580
13
Frame=6 idx=010718 GeodesicLength=0.24873319888258397 rxn_smarts="[C:1]([O:2][C@@:3]1([H:11])[C:4]([H:12])([H:13])[O:5][C:6]1=[O:7])([H:8])([H:9])[H:10]>>[C:1]([O+:7]=[C:6]1[C@:3]([O-:2])([H:11])[C:4]([H:12])([H:13])[O:5]1)([H:8])([H:9])[H:10]"
C        1.80398911      -0.16324997      -1.04110518
O        0.93286360       0.24131450       0.91620321
C       -0.27236861      -0.29590673       0.80536238
C       -1.59695295       0.49151260       1.09518746
O       -1.98391175       0.35194246      -0.33331825
C       -0.80267701      -0.16680200      -0.61360560
O       -0.19054127      -0.17026361      -1.66271537
H        2.11507833      -1.09939935      -0.59459592
H        2.27189777       0.72957182      -0.65101147
H        1.87232319      -0.15541997      -2.12152941
H       -0.37286938      -1.34457635       1.15242790
H       -1.42828257       1.54369307       1.31151289
H       -2.34854845       0.03758353       1.73718735
13
Frame=7 idx=010718 GeodesicLength=0.2904117442405461 rxn_smarts="[C:1]([O:2][C@@:3]1([H:11])[C:4]([H:12])([H:13])[O:5][C:6]1=[O:7])([H:8])([H:9])[H:10]>>[C:1]([O+:7]=[C:6]1[C@:3]([O-:2])([H:11])[C:4]([H:12])([H:13])[O:5]1)([H:8])([H:9])[H:10]"
C        1.79099305      -0.16285709      -1.02875207
O        0.93226388       0.25558079       0.90950241
C       -0.26991352      -0.29194432       0.80228186
C       -1.59484166       0.49262094       1.09258371
O       -1.98506292       0.35137025      -0.33392857
C       -0.80862748      -0.17652970      -0.61763760
O       -0.19987913      -0.18452493      -1.67000434
H        2.10747104      -1.11148516      -0.61082701
H        2.28389355       0.71525481      -0.63391129
H        1.87252019      -0.13057331      -2.10852554
H       -0.35897414      -1.33987169       1.15404442
H       -1.42592582       1.54491529       1.30810518
H       -2.34391705       0.03804413       1.73706885
13
Frame=8 idx=010718 GeodesicLength=0.33217046486850144 rxn_smarts="[C:1]([O:2][C@@:3]1([H:11])[C:4]([H:12])([H:13])[O:5][C:6]1=[O:7])([H:8])([H:9])[H:10]>>[C:1]([O+:7]=[C:6]1[C@:3]([O-:2])([H:11])[C:4]([H:12])([H:13])[O:5]1)([H:8])([H:9])[H:10]"
C        1.77820206      -0.16246756      -1.01644825
O        0.93161812       0.27001004       0.90287011
C       -0.26738525      -0.28786979       0.79927750
C       -1.59276426       0.49372735       1.08990636
O       -1.98601182       0.35071378      -0.33465496
C       -0.81436115      -0.18627490      -0.62150235
O       -0.20897940      -0.19888254      -1.67708316
H        2.09964696      -1.12293087      -0.62779268
H        2.29586342       0.69994763      -0.61669330
H        1.87211809      -0.10562012      -2.09490809
H       -0.34485796      -1.33495510       1.15561979
H       -1.42374376       1.54615252       1.30462785
H       -2.33934504       0.03844956       1.73678119
13
Frame=9 idx=010718 GeodesicLength=0.37406872435329785 rxn_smarts="[C:1]([O:2][C@@:3]1([H:11])[C:4]([H:12])([H:13])[O:5][C:6]1=[O:7])([H:8])([H:9])[H:10]>>[C:1]([O+:7]=[C:6]1[C@:3]([O-:2])([H:11])[C:4]([H:12])([H:13])[O:5]1)([H:8])([H:9])[H:10]"
C        1.76562381      -0.16213561      -1.00418280
O        0.93092185       0.28463652       0.89628138
C       -0.26477740      -0.28366034       0.79635149
C       -1.59070179       0.49483053       1.08714203
O       -1.98676537       0.34989369      -0.33550307
C       -0.81986307      -0.19604829      -0.62519969
O       -0.21781282      -0.21329615      -1.68393734
H        2.09151340      -1.13391142      -0.64550932
H        2.30775777       0.68369968      -0.59926962
H        1.87112487      -0.08043299      -2.08072296
H       -0.33050471      -1.32979405       1.15719191
H       -1.42173284       1.54741968       1.30100095
H       -2.33478371       0.03879877       1.73635705
13
Frame=10 idx=010718 GeodesicLength=0.41607137303734293 rxn_smarts="[C:1]([O:2][C@@:3]1([H:11])[C:4]([H:12])([H:13])[O:5][C:6]1=[O:7])([H:8])([H:9])[H:10]>>[C:1]([O+:7]=[C:6]1[C@:3]([O-:2])([H:11])[C:4]([H:12])([H:13])[O:5]1)([H:8])([H:9])[H:10]"
C        1.75326535      -0.16190840      -0.99193705
O        0.93018435       0.29947155       0.88973013
C       -0.26208079      -0.27931070       0.79349262
C       -1.58866840       0.49593093       1.08430741
O       -1.98733842       0.34894963      -0.33646881
C       -0.82513126      -0.20581707      -0.62874168
O       -0.22638278      -0.22771774      -1.69058329
H        2.08316969      -1.14431917      -0.66395422
H        2.31947582       0.66647468      -0.58171917
H        1.86956232      -0.05514934      -2.06591258
H       -0.31589030      -1.32439512       1.15870198
H       -1.41991244       1.54871483       1.29729071
H       -2.33025313       0.03907590       1.73579395
13
Frame=11 idx=010718 GeodesicLength=0.4581782736430974 rxn_smarts="[C:1]([O:2][C@@:3]1([H:11])[C:4]([H:12])([H:13])[O:5][C:6]1=[O:7])([H:8])([H:9])[H:10]>>[C:1]([O+:7]=[C:6]1[C@:3]([O-:2])([H:11])[C:4]([H:12])([H:13])[O:5]1)([H:8])([H:9])[H:10]"
C        1.74113415      -0.16184463      -0.97969565
O        0.92940995       0.31448850       0.88320544
C       -0.25929977      -0.27482850       0.79069509
C       -1.58665078       0.49702874       1.08140875
O       -1.98771695       0.34792459      -0.33754778
C       -0.83016418      -0.21555154      -0.63213470
O       -0.23468465      -0.24212355      -1.69702803
H        2.07471185      -1.15414421      -0.68306709
H        2.33084880       0.64836002      -0.56408989
H        1.86745208      -0.02984640      -2.05048202
H       -0.30103941      -1.31876875       1.16012453
H       -1.41825289       1.55002926       1.29352565
H       -2.32574822       0.03927648       1.73508571
13
Frame=12 idx=010718 GeodesicLength=0.5003856426177461 rxn_smarts="[C:1]([O:2][C@@:3]1([H:11])[C:4]([H:12])([H:13])[O:5][C:6]1=[O:7])([H:8])([H:9])[H:10]>>[C:1]([O+:7]=[C:6]1[C@:3]([O-:2])([H:11])[C:4]([H:12])([H:13])[O:5]1)([H:8])([H:9])[H:10]"
C        1.72923257      -0.16200307      -0.96744464
O        0.92860543       0.32965991       0.87670025
C       -0.25643595      -0.27022398       0.78795241
C       -1.58463996       0.49812497       1.07845640
O       -1.98789812       0.34685488      -0.33873708
C       -0.83496087      -0.22522511      -0.63539059
O       -0.24271441      -0.25647689      -1.70328520
H        2.06621311      -1.16337268      -0.70278400
H        2.34172569       0.62945780      -0.54645335
H        1.86483774      -0.00461881      -2.03441868
H       -0.28596862      -1.31293276       1.16142899
H       -1.41673010       1.55135915       1.28974053
H       -2.32126652       0.03939658       1.73423494
13
Frame=13 idx=010718 GeodesicLength=0.5427603742271371 rxn_smarts="[C:1]([O:2][C@@:3]1([H:11])[C:4]([H:12])([H:13])[O:5][C:6]1=[O:7])([H:8])([H:9])[H:10]>>[C:1]([O+:7]=[C:6]1[C@:3]([O-:2])([H:11])[C:4]([H:12])([H:13])[O:5]1)([H:8])([H:9])[H:10]"
C        1.71755099      -0.16244093      -0.95517757
O        0.92780962       0.34498384       0.87025225
C       -0.25348320      -0.26552028       0.78528274
C       -1.58262846       0.49923064       1.07546655
O       -1.98788738       0.34584344      -0.34009134
C       -0.83955912      -0.23482144      -0.63856244
O       -0.25052481      -0.27079388      -1.70943939
H        2.05780842      -1.17198887      -0.72299932
H        2.35197729       0.60989526      -0.52887497
H        1.86174221       0.02043704      -2.01774230
H       -0.27068313      -1.30697049       1.16262927
H       -1.41530002       1.55274477       1.28602825
H       -2.31682242       0.03940090       1.73322828
13
Frame=14 idx=010718 GeodesicLength=0.5851566917687132 rxn_smarts="[C:1]([O:2][C@@:3]1([H:11])[C:4]([H:12])([H:13])[O:5][C:6]1=[O:7])([H:8])([H:9])[H:10]>>[C:1]([O+:7]=[C:6]1[C@:3]([O-:2])([H:11])[C:4]([H:12])([H:13])[O:5]1)([H:8])([H:9])[H:10]"
C        1.70609475      -0.16321387      -0.94288764
O        0.92693129       0.36037979       0.86373287
C       -0.25046893      -0.26068996       0.78262609
C       -1.58061217       0.50033756       1.07243048
O       -1.98765971       0.34473164      -0.34146449
C       -0.84387564      -0.24433646      -0.64155852
O       -0.25798769      -0.28497429      -1.71533292
H        2.04942356      -1.18000019      -0.74384101
H        2.36152263       0.58964988      -0.51131971
H        1.85822043       0.04534580      -2.00037790
H       -0.25520971      -1.30072296       1.16362352
H       -1.41401140       1.55409462       1.28225208
H       -2.31236741       0.03939844       1.73211714
13
Frame=15 idx=010718 GeodesicLength=0.6276460966109558 rxn_smarts="[C:1]([O:2][C@@:3]1([H:11])[C:4]([H:12])([H:13])[O:5][C:6]1=[O:7])([H:8])([H:9])[H:10]>>[C:1]([O+:7]=[C:6]1[C@:3]([O-:2])([H:11])[C:4]([H:12])([H:13])[O:5]1)([H:8])([H:9])[H:10]"
C        1.69485285      -0.16435385      -0.93056343
O        0.92604081       0.37581119       0.85712695
C       -0.24739499      -0.25576166       0.77998176
C       -1.57857110       0.50144071       1.06933517
O       -1.98724485       0.34358000      -0.34287082
C       -0.84797769      -0.25376284      -0.64438745
O       -0.26519057      -0.29901652      -1.72097202
H        2.04115906      -1.18732989      -0.76520246
H        2.37031230       0.56882097      -0.49386459
H        1.85429326       0.07004317      -1.98228775
H       -0.23959812      -1.29424281       1.16441729
H       -1.41276446       1.55540216       1.27841499
H       -2.30791648       0.03936937       1.73087237
13
Frame=16 idx=010718 GeodesicLength=0.670294831215593 rxn_smarts="[C:1]([O:2][C@@:3]1([H:11])[C:4]([H:12])([H:13])[O:5][C:6]1=[O:7])([H:8])([H:9])[H:10]>>[C:1]([O+:7]=[C:6]1[C@:3]([O-:2])([H:11])[C:4]([H:12])([H:13])[O:5]1)([H:8])([H:9])[H:10]"
C        1.68381154      -0.16590385      -0.91821005
O        0.92515601       0.39124088       0.85054425
C       -0.24425880      -0.25079261       0.77739326
C       -1.57649667       0.50257960       1.06621759
O       -1.98664661       0.34248505      -0.34440567
C       -0.85188615      -0.26310824      -0.64714382
O       -0.27216588      -0.31297151      -1.72651723
H        2.03315183      -1.19401406      -0.78699797
H        2.37821333       0.54764952      -0.47652959
H        1.84997103       0.09442387      -1.96355383
H       -0.22385244      -1.28768620       1.16504694
H       -1.41152855       1.55678053       1.27463076
H       -2.30346864       0.03931703       1.72952536
