11
Frame=0 idx=011453 GeodesicLength=0.0 rxn_smarts="[N:1]([c:2]1[n:3][n:4]([H:10])[c:5]([O:6][H:11])[n:7]1)([H:8])[H:9]>>[N-:1]([c+:2]1[n:3]([H:9])[n:4]([H:10])[c+:5]([O:6][H:11])[n-:7]1)[H:8]"
N        2.20880629       0.32182150      -0.06837750
C        0.92521847       0.20559554       0.19624003
N        0.59116781      -1.06618566      -0.10070036
N       -0.75919179      -0.96656074      -0.44882634
C       -1.13687684       0.24575003       0.02319653
O       -2.42180210       0.56047953       0.03290320
N       -0.15942430       1.01573251       0.41767882
H        2.78012000       0.98603579       0.43121631
H        1.81328702      -0.98071264      -0.49971706
H       -1.34422977      -1.78059639      -0.35782381
H       -2.49707482       1.45864050       0.37421021
11
Frame=1 idx=011453 GeodesicLength=0.0462383319213722 rxn_smarts="[N:1]([c:2]1[n:3][n:4]([H:10])[c:5]([O:6][H:11])[n:7]1)([H:8])[H:9]>>[N-:1]([c+:2]1[n:3]([H:9])[n:4]([H:10])[c+:5]([O:6][H:11])[n-:7]1)[H:8]"
N        2.20414916       0.33581911      -0.07284654
C        0.92590724       0.20105872       0.21232471
N        0.59495629      -1.06530028      -0.11543023
N       -0.76304033      -0.97417340      -0.43029045
C       -1.13914410       0.23973562       0.03736499
O       -2.42283970       0.56055372       0.03032597
N       -0.15921527       1.01864024       0.40431543
H        2.78239092       0.95579484       0.47345453
H        1.81496084      -0.95089864      -0.56298715
H       -1.34234057      -1.79003378      -0.32053455
H       -2.49578447       1.46880385       0.34430327
11
Frame=2 idx=011453 GeodesicLength=0.0923439977391549 rxn_smarts="[N:1]([c:2]1[n:3][n:4]([H:10])[c:5]([O:6][H:11])[n:7]1)([H:8])[H:9]>>[N-:1]([c+:2]1[n:3]([H:9])[n:4]([H:10])[c+:5]([O:6][H:11])[n-:7]1)[H:8]"
N        2.19972427       0.34881706      -0.07410412
C        0.92645779       0.19610506       0.22777388
N        0.59831697      -1.06379223      -0.13190059
N       -0.76679238      -0.98160728      -0.41191055
C       -1.14110415       0.23438124       0.05034091
O       -2.42360270       0.56023414       0.02852164
N       -0.15879626       1.02042598       0.39190377
H        2.78418128       0.92417014       0.51283341
H        1.81518289      -0.91788131      -0.62474222
H       -1.33970347      -1.79903666      -0.28215040
H       -2.49386422       1.47818387       0.31343427
11
Frame=3 idx=011453 GeodesicLength=0.13851431126169098 rxn_smarts="[N:1]([c:2]1[n:3][n:4]([H:10])[c:5]([O:6][H:11])[n:7]1)([H:8])[H:9]>>[N-:1]([c+:2]1[n:3]([H:9])[n:4]([H:10])[c+:5]([O:6][H:11])[n-:7]1)[H:8]"
N        2.19524913       0.36125428      -0.07386622
C        0.92690979       0.19082741       0.24286535
N        0.60111001      -1.06186566      -0.14864544
N       -0.77021051      -0.98873687      -0.39404461
C       -1.14278816       0.22993537       0.06130536
O       -2.42418022       0.55995976       0.02608015
N       -0.15839077       1.02078422       0.38237676
H        2.78602464       0.89161345       0.54806277
H        1.81437254      -0.88283151      -0.68314391
H       -1.33642297      -1.80733307      -0.24382689
H       -2.49167348       1.48639263       0.28283667
11
Frame=4 idx=011453 GeodesicLength=0.18468069543005367 rxn_smarts="[N:1]([c:2]1[n:3][n:4]([H:10])[c:5]([O:6][H:11])[n:7]1)([H:8])[H:9]>>[N-:1]([c+:2]1[n:3]([H:9])[n:4]([H:10])[c+:5]([O:6][H:11])[n-:7]1)[H:8]"
N        2.19052162       0.37341798      -0.07288632
C        0.92731408       0.18512340       0.25774402
N        0.60330196      -1.05954913      -0.16551577
N       -0.77330559      -0.99539029      -0.37681466
C       -1.14430552       0.22592994       0.07164372
O       -2.42476046       0.55918192       0.02556485
N       -0.15805861       1.01948164       0.37731434
H        2.78795597       0.85831566       0.57905216
H        1.81258920      -0.84592207      -0.73843367
H       -1.33244531      -1.81494193      -0.20663530
H       -2.48880734       1.49435288       0.24896662
11
Frame=5 idx=011453 GeodesicLength=0.23080812830475772 rxn_smarts="[N:1]([c:2]1[n:3][n:4]([H:10])[c:5]([O:6][H:11])[n:7]1)([H:8])[H:9]>>[N-:1]([c+:2]1[n:3]([H:9])[n:4]([H:10])[c+:5]([O:6][H:11])[n-:7]1)[H:8]"
N        2.18558584       0.38512912      -0.07162519
C        0.92769486       0.17931762       0.27219848
N        0.60482251      -1.05719711      -0.18070198
N       -0.77589212      -1.00145441      -0.36066153
C       -1.14565381       0.22256929       0.08045488
O       -2.42516096       0.55872672       0.02394402
N       -0.15779857       1.01725520       0.37508125
H        2.78999585       0.82540330       0.60506325
H        1.81034167      -0.80907978      -0.78873180
H       -1.32813706      -1.82155360      -0.17169898
H       -2.48579821       1.50088365       0.21667761
11
Frame=6 idx=011453 GeodesicLength=0.2768623309875795 rxn_smarts="[N:1]([c:2]1[n:3][n:4]([H:10])[c:5]([O:6][H:11])[n:7]1)([H:8])[H:9]>>[N-:1]([c+:2]1[n:3]([H:9])[n:4]([H:10])[c+:5]([O:6][H:11])[n-:7]1)[H:8]"
N        2.18057432       0.39623133      -0.07006715
C        0.92810225       0.17343627       0.28617942
N        0.60571444      -1.05495003      -0.19411472
N       -0.77808979      -1.00680022      -0.34581006
C       -1.14688567       0.21956716       0.08874924
O       -2.42557232       0.55810651       0.02376621
N       -0.15749428       1.01446514       0.37491277
H        2.79195290       0.79350374       0.62667196
H        1.80787480      -0.77283737      -0.83438745
H       -1.32373647      -1.82725459      -0.14000351
H       -2.48244019       1.50653205       0.18410327
11
Frame=7 idx=011453 GeodesicLength=0.32284771600210715 rxn_smarts="[N:1]([c:2]1[n:3][n:4]([H:10])[c:5]([O:6][H:11])[n:7]1)([H:8])[H:9]>>[N-:1]([c+:2]1[n:3]([H:9])[n:4]([H:10])[c+:5]([O:6][H:11])[n-:7]1)[H:8]"
N        2.17542619       0.40695078      -0.06857361
C        0.92851836       0.16782845       0.29967576
N        0.60613672      -1.05305538      -0.20474461
N       -0.77981459      -1.01146613      -0.33226331
C       -1.14802844       0.21699653       0.09607618
O       -2.42586490       0.55778005       0.02266564
N       -0.15723722       1.01156028       0.37558386
H        2.79403922       0.76279243       0.64397265
H        1.80551560      -0.73816281      -0.87500833
H       -1.31950501      -1.83201368      -0.11173782
H       -2.47918593       1.51078947       0.15435358
11
Frame=8 idx=011453 GeodesicLength=0.36878264412652845 rxn_smarts="[N:1]([c:2]1[n:3][n:4]([H:10])[c:5]([O:6][H:11])[n:7]1)([H:8])[H:9]>>[N-:1]([c+:2]1[n:3]([H:9])[n:4]([H:10])[c+:5]([O:6][H:11])[n-:7]1)[H:8]"
N        2.17030793       0.41717292      -0.06680522
C        0.92895778       0.16239062       0.31269655
N        0.60621214      -1.05142838      -0.21348845
N       -0.78126341      -1.01561990      -0.31971951
C       -1.14909454       0.21471734       0.10282849
O       -2.42613162       0.55751083       0.02186888
N       -0.15693429       1.00864440       0.37663136
H        2.79611661       0.73300806       0.65819707
H        1.80321822      -0.70438368      -0.91206541
H       -1.31547343      -1.83608955      -0.08603514
H       -2.47591539       1.51407733       0.12589137
11
Frame=9 idx=011453 GeodesicLength=0.414687633831829 rxn_smarts="[N:1]([c:2]1[n:3][n:4]([H:10])[c:5]([O:6][H:11])[n:7]1)([H:8])[H:9]>>[N-:1]([c+:2]1[n:3]([H:9])[n:4]([H:10])[c+:5]([O:6][H:11])[n-:7]1)[H:8]"
N        2.16526147       0.42687718      -0.06478791
C        0.92940583       0.15718902       0.32523876
N        0.60604318      -1.05019020      -0.22031367
N       -0.78246138      -1.01935233      -0.30810398
C       -1.15008967       0.21272860       0.10886602
O       -2.42633876       0.55738532       0.02070437
N       -0.15658890       1.00584043       0.37752789
H        2.79810031       0.70433104       0.66974541
H        1.80115324      -0.67173611      -0.94585888
H       -1.31173136      -1.83956465      -0.06263815
H       -2.47275395       1.51649170       0.09962014
11
Frame=10 idx=011453 GeodesicLength=0.46056539252951567 rxn_smarts="[N:1]([c:2]1[n:3][n:4]([H:10])[c:5]([O:6][H:11])[n:7]1)([H:8])[H:9]>>[N-:1]([c+:2]1[n:3]([H:9])[n:4]([H:10])[c+:5]([O:6][H:11])[n-:7]1)[H:8]"
N        2.16024227       0.43614389      -0.06252928
C        0.92987655       0.15209700       0.33747596
N        0.60569345      -1.04932619      -0.22561690
N       -0.78348911      -1.02279645      -0.29713787
C       -1.15103151       0.21089456       0.11451300
O       -2.42643336       0.55743153       0.01902897
N       -0.15621194       1.00298062       0.37868087
H        2.80000846       0.67661924       0.67899823
H        1.79915050      -0.63972133      -0.97723363
H       -1.30826935      -1.84261073      -0.04099370
H       -2.46953597       1.51828786       0.07481434
11
Frame=11 idx=011453 GeodesicLength=0.5064425923948669 rxn_smarts="[N:1]([c:2]1[n:3][n:4]([H:10])[c:5]([O:6][H:11])[n:7]1)([H:8])[H:9]>>[N-:1]([c+:2]1[n:3]([H:9])[n:4]([H:10])[c+:5]([O:6][H:11])[n-:7]1)[H:8]"
N        2.15514742       0.44521129      -0.06003116
C        0.93037158       0.14702255       0.34958400
N        0.60520589      -1.04868180      -0.22991102
N       -0.78441457      -1.02606840      -0.28647692
C       -1.15196778       0.20907068       0.12022044
O       -2.42641036       0.55760588       0.01696642
N       -0.15586732       0.99989236       0.38071545
H        2.80199541       0.64919265       0.68626873
H        1.79691877      -0.60748855      -1.00705135
H       -1.30495332      -1.84541420      -0.02042749
H       -2.46602573       1.51965754       0.05014289
11
Frame=12 idx=011453 GeodesicLength=0.5522569000780636 rxn_smarts="[N:1]([c:2]1[n:3][n:4]([H:10])[c:5]([O:6][H:11])[n:7]1)([H:8])[H:9]>>[N-:1]([c+:2]1[n:3]([H:9])[n:4]([H:10])[c+:5]([O:6][H:11])[n-:7]1)[H:8]"
N        2.15028818       0.45361377      -0.05726621
C        0.93085667       0.14228012       0.36119947
N        0.60464317      -1.04859242      -0.23240655
N       -0.78516876      -1.02900926      -0.27674229
C       -1.15279123       0.20760750       0.12479912
O       -2.42641193       0.55778782       0.01490705
N       -0.15539871       0.99721949       0.38135047
H        2.80371172       0.62318087       0.69190513
H        1.79534319      -0.57679583      -1.03422329
H       -1.30213574      -1.84768638      -0.00186517
H       -2.46293656       1.52039432       0.02834227
11
Frame=13 idx=011453 GeodesicLength=0.598030058648698 rxn_smarts="[N:1]([c:2]1[n:3][n:4]([H:10])[c:5]([O:6][H:11])[n:7]1)([H:8])[H:9]>>[N-:1]([c+:2]1[n:3]([H:9])[n:4]([H:10])[c+:5]([O:6][H:11])[n-:7]1)[H:8]"
N        2.14560282       0.46152867      -0.05425705
C        0.93130709       0.13784068       0.37240626
N        0.60407646      -1.04897071      -0.23346278
N       -0.78577062      -1.03178727      -0.26761804
C       -1.15353452       0.20642174       0.12826503
O       -2.42639588       0.55798480       0.01209374
N       -0.15487600       0.99483024       0.38089981
H        2.80522835       0.59805747       0.69621995
H        1.79430226      -0.54708314      -1.05940496
H       -1.29967481      -1.84956978       0.01549971
H       -2.46026515       1.52074730       0.00935834
11
Frame=14 idx=011453 GeodesicLength=0.6437722418020879 rxn_smarts="[N:1]([c:2]1[n:3][n:4]([H:10])[c:5]([O:6][H:11])[n:7]1)([H:8])[H:9]>>[N-:1]([c+:2]1[n:3]([H:9])[n:4]([H:10])[c+:5]([O:6][H:11])[n-:7]1)[H:8]"
N        2.14105341       0.46897553      -0.05103268
C        0.93174163       0.13358257       0.38333688
N        0.60350358      -1.04980455      -0.23332453
N       -0.78627270      -1.03445108      -0.25896233
C       -1.15420571       0.20540736       0.13096867
O       -2.42633481       0.55820174       0.00873969
N       -0.15429052       0.99256316       0.37980874
H        2.80655215       0.57381273       0.69934800
H        1.79363899      -0.51800364      -1.08307309
H       -1.29756038      -1.85116079       0.03185060
H       -2.45782565       1.52087697      -0.00765995
11
Frame=15 idx=011453 GeodesicLength=0.6894940454902131 rxn_smarts="[N:1]([c:2]1[n:3][n:4]([H:10])[c:5]([O:6][H:11])[n:7]1)([H:8])[H:9]>>[N-:1]([c+:2]1[n:3]([H:9])[n:4]([H:10])[c+:5]([O:6][H:11])[n-:7]1)[H:8]"
N        2.13660923       0.47600348      -0.04760180
C        0.93216641       0.12943265       0.39407186
N        0.60292211      -1.05103621      -0.23223626
N       -0.78671294      -1.03705030      -0.25061993
C       -1.15481962       0.20448551       0.13316581
O       -2.42621028       0.55843582       0.00493039
N       -0.15365011       0.99031450       0.37838853
H        2.80771022       0.55023960       0.70143210
H        1.79320604      -0.48915834      -1.10562533
H       -1.29574000      -1.85253933       0.04746461
H       -2.45548106       1.52087261      -0.02336998
11
Frame=16 idx=011453 GeodesicLength=0.7352093508705062 rxn_smarts="[N:1]([c:2]1[n:3][n:4]([H:10])[c:5]([O:6][H:11])[n:7]1)([H:8])[H:9]>>[N-:1]([c+:2]1[n:3]([H:9])[n:4]([H:10])[c+:5]([O:6][H:11])[n-:7]1)[H:8]"
N        2.13220788       0.48270139      -0.04397464
C        0.93259502       0.12530332       0.40472812
N        0.60231853      -1.05259953      -0.23041181
N       -0.78712650      -1.03962396      -0.24243316
C       -1.15539515       0.20357382       0.13516384
O       -2.42599659       0.55869920       0.00077642
N       -0.15297392       0.98795955       0.37708807
H        2.80877974       0.52707814       0.70248984
H        1.79279636      -0.46008565      -1.12740701
H       -1.29416136      -1.85378574       0.06257035
H       -2.45304401       1.52077947      -0.03859002
