12
Frame=0 idx=010546 GeodesicLength=0.0 rxn_smarts="[O:1]=[C:2]([C@@:3]1([H:9])[C:4]([H:10])([H:11])[N:5]=[C:6]([H:12])[O:7]1)[H:8]>>[O:1]=[C:2](/[C:6](=[N:5]\[C:4]([C:3](=[O:7])[H:9])([H:10])[H:11])[H:12])[H:8]"
O       -1.70955034      -0.59237752       1.36459154
C       -1.14688548      -0.91601313       0.36762141
C       -0.10225351       0.63599906      -0.89638714
C        0.56651163       1.14541731       0.32158740
N        1.17636425      -0.01014801       0.88584670
C        0.65340200      -0.93754281       0.11027955
O        0.54280299      -0.46229255      -1.29041829
H       -1.57738380      -1.65643920      -0.35535005
H       -0.56677661       1.24399162      -1.66779385
H        1.28353377       1.89702287      -0.04453521
H       -0.06401732       1.63759382       1.06892802
H        0.94425242      -1.98521143       0.13562987
12
Frame=1 idx=010546 GeodesicLength=0.08295138777294586 rxn_smarts="[O:1]=[C:2]([C@@:3]1([H:9])[C:4]([H:10])([H:11])[N:5]=[C:6]([H:12])[O:7]1)[H:8]>>[O:1]=[C:2](/[C:6](=[N:5]\[C:4]([C:3](=[O:7])[H:9])([H:10])[H:11])[H:12])[H:8]"
O       -1.72817875      -0.56614683       1.34467491
C       -1.15136634      -0.91258199       0.36281333
C       -0.11309405       0.63362042      -0.89376440
C        0.56942693       1.14304205       0.32131993
N        1.18910647      -0.01350161       0.87911282
C        0.66647560      -0.94770215       0.11700676
O        0.53509879      -0.45758371      -1.29961042
H       -1.57829863      -1.66647295      -0.34725289
H       -0.57441323       1.25343670      -1.65825489
H        1.28179676       1.89896578      -0.04258753
H       -0.06308589       1.62747807       1.07175515
H        0.96653234      -1.99255378       0.14478723
12
Frame=2 idx=010546 GeodesicLength=0.1659113291022658 rxn_smarts="[O:1]=[C:2]([C@@:3]1([H:9])[C:4]([H:10])([H:11])[N:5]=[C:6]([H:12])[O:7]1)[H:8]>>[O:1]=[C:2](/[C:6](=[N:5]\[C:4]([C:3](=[O:7])[H:9])([H:10])[H:11])[H:12])[H:8]"
O       -1.74650254      -0.54032904       1.32432720
C       -1.15601391      -0.90899133       0.35803556
C       -0.12380562       0.63127324      -0.89127518
C        0.57225824       1.14060405       0.32095881
N        1.20190567      -0.01683632       0.87207405
C        0.67951004      -0.95797189       0.12391144
O        0.52721276      -0.45285909      -1.30889192
H       -1.57955664      -1.67597493      -0.33891476
H       -0.58201448       1.26281262      -1.64863393
H        1.27999880       1.90091670      -0.04044015
H       -0.06218910       1.61715767       1.07453291
H        0.98919679      -1.99980170       0.15431597
12
Frame=3 idx=010546 GeodesicLength=0.24883287505866855 rxn_smarts="[O:1]=[C:2]([C@@:3]1([H:9])[C:4]([H:10])([H:11])[N:5]=[C:6]([H:12])[O:7]1)[H:8]>>[O:1]=[C:2](/[C:6](=[N:5]\[C:4]([C:3](=[O:7])[H:9])([H:10])[H:11])[H:12])[H:8]"
O       -1.76452597      -0.51492033       1.30356354
C       -1.16083168      -0.90523784       0.35327731
C       -0.13439330       0.62895898      -0.88891671
C        0.57500722       1.13809498       0.32050171
N        1.21476166      -0.02014982       0.86470370
C        0.69250428      -0.96835220       0.13100992
O        0.51913770      -0.44810618      -1.31826405
H       -1.58115702      -1.68495245      -0.33033905
H       -0.58956840       1.27212041      -1.63892490
H        1.27813640       1.90287045      -0.03808712
H       -0.06132002       1.60660783       1.07725494
H        1.01224913      -2.00693382       0.16422071
12
Frame=4 idx=010546 GeodesicLength=0.33168639461033395 rxn_smarts="[O:1]=[C:2]([C@@:3]1([H:9])[C:4]([H:10])([H:11])[N:5]=[C:6]([H:12])[O:7]1)[H:8]>>[O:1]=[C:2](/[C:6](=[N:5]\[C:4]([C:3](=[O:7])[H:9])([H:10])[H:11])[H:12])[H:8]"
O       -1.78223299      -0.48993994       1.28242286
C       -1.16582651      -0.90131295       0.34852929
C       -0.14486643       0.62667831      -0.88669219
C        0.57767181       1.13550803       0.31994973
N        1.22767547      -0.02344325       0.85698472
C        0.70545739      -0.97884062       0.13832405
O        0.51086995      -0.44331655      -1.32773487
H       -1.58310380      -1.69340305      -0.32153762
H       -0.59704961       1.28136035      -1.62914359
H        1.27620552       1.90481980      -0.03552219
H       -0.06048101       1.59581397       1.07991804
H        1.03568020      -2.01392410       0.17450177
12
Frame=5 idx=010546 GeodesicLength=0.41464498447124604 rxn_smarts="[O:1]=[C:2]([C@@:3]1([H:9])[C:4]([H:10])([H:11])[N:5]=[C:6]([H:12])[O:7]1)[H:8]>>[O:1]=[C:2](/[C:6](=[N:5]\[C:4]([C:3](=[O:7])[H:9])([H:10])[H:11])[H:12])[H:8]"
O       -1.79968129      -0.46530832       1.26093146
C       -1.17100241      -0.89721519       0.34379038
C       -0.15524026       0.62445171      -0.88462882
C        0.58025081       1.13284360       0.31931327
N        1.24066697      -0.02674840       0.84891753
C        0.71839625      -0.98947951       0.14587349
O        0.50241254      -0.43849676      -1.33735712
H       -1.58538289      -1.70135795      -0.31251439
H       -0.60449554       1.29058290      -1.61932230
H        1.27419720       1.90677031      -0.03273699
H       -0.05967955       1.58478097       1.08256261
H        1.05955816      -2.02082336       0.18517087
12
Frame=6 idx=010546 GeodesicLength=0.4974570106230552 rxn_smarts="[O:1]=[C:2]([C@@:3]1([H:9])[C:4]([H:10])([H:11])[N:5]=[C:6]([H:12])[O:7]1)[H:8]>>[O:1]=[C:2](/[C:6](=[N:5]\[C:4]([C:3](=[O:7])[H:9])([H:10])[H:11])[H:12])[H:8]"
O       -1.81687944      -0.44101574       1.23899649
C       -1.17634893      -0.89295984       0.33904842
C       -0.16551596       0.62226236      -0.88268089
C        0.58275949       1.13007921       0.31857852
N        1.25371629      -0.03003667       0.84043786
C        0.73129854      -1.00023166       0.15367138
O        0.49372461      -0.43361319      -1.34707926
H       -1.58797474      -1.70884930      -0.30323492
H       -0.61187915       1.29974880      -1.60937192
H        1.27212253       1.90869786      -0.02972736
H       -0.05886824       1.57344471       1.08514403
H        1.08384500      -2.02752655       0.19621765
12
Frame=7 idx=010546 GeodesicLength=0.5803815048124326 rxn_smarts="[O:1]=[C:2]([C@@:3]1([H:9])[C:4]([H:10])([H:11])[N:5]=[C:6]([H:12])[O:7]1)[H:8]>>[O:1]=[C:2](/[C:6](=[N:5]\[C:4]([C:3](=[O:7])[H:9])([H:10])[H:11])[H:12])[H:8]"
O       -1.83384739      -0.41703081       1.21671311
C       -1.18188176      -0.88852780       0.33429959
C       -0.17571094       0.62013523      -0.88090014
C        0.58518847       1.12722237       0.31776172
N        1.26685353      -0.03334991       0.83156595
C        0.74420065      -1.01114882       0.16175207
O        0.48482570      -0.42868648      -1.35697901
H       -1.59088936      -1.71587009      -0.29373446
H       -0.61923366       1.30891682      -1.59937660
H        1.26996660       1.91061403      -0.02648255
H       -0.05808095       1.56183214       1.08771472
H        1.10860910      -2.03410669       0.20766559
12
Frame=8 idx=010546 GeodesicLength=0.6632386724182399 rxn_smarts="[O:1]=[C:2]([C@@:3]1([H:9])[C:4]([H:10])([H:11])[N:5]=[C:6]([H:12])[O:7]1)[H:8]>>[O:1]=[C:2](/[C:6](=[N:5]\[C:4]([C:3](=[O:7])[H:9])([H:10])[H:11])[H:12])[H:8]"
O       -1.85056064      -0.39338926       1.19407442
C       -1.18760154      -0.88392122       0.32952385
C       -0.18581654       0.61806148      -0.87926590
C        0.58754216       1.12425377       0.31684706
N        1.28005831      -0.03667131       0.82224512
C        0.75708276      -1.02220158       0.17013992
O        0.47570429      -0.42368547      -1.36702679
H       -1.59413264      -1.72240947      -0.28400446
H       -0.62652199       1.31806186      -1.58929018
H        1.26772951       1.91250101      -0.02300031
H       -0.05730111       1.54988847       1.09023447
H        1.13381741      -2.04048828       0.21952280
12
Frame=9 idx=010546 GeodesicLength=0.7461488505721108 rxn_smarts="[O:1]=[C:2]([C@@:3]1([H:9])[C:4]([H:10])([H:11])[N:5]=[C:6]([H:12])[O:7]1)[H:8]>>[O:1]=[C:2](/[C:6](=[N:5]\[C:4]([C:3](=[O:7])[H:9])([H:10])[H:11])[H:12])[H:8]"
O       -1.86705939      -0.37002693       1.17107403
C       -1.19350850      -0.87913890       0.32472222
C       -0.19585533       0.61605467      -0.87779511
C        0.58982209       1.12117215       0.31584499
N        1.29334730      -0.04002585       0.81246579
C        0.76997306      -1.03342047       0.17886256
O        0.46634426      -0.41861746      -1.37726391
H       -1.59768428      -1.72850308      -0.27404000
H       -0.63376745       1.32722316      -1.57913224
H        1.26540681       1.91435910      -0.01926561
H       -0.05652764       1.53761484       1.09273152
H        1.15950907      -2.04669123       0.23179575
12
Frame=10 idx=010546 GeodesicLength=0.8290644926597467 rxn_smarts="[O:1]=[C:2]([C@@:3]1([H:9])[C:4]([H:10])([H:11])[N:5]=[C:6]([H:12])[O:7]1)[H:8]>>[O:1]=[C:2](/[C:6](=[N:5]\[C:4]([C:3](=[O:7])[H:9])([H:10])[H:11])[H:12])[H:8]"
O       -1.88331655      -0.34697395       1.14775238
C       -1.19960679      -0.87417513       0.31987314
C       -0.20582940       0.61411595      -0.87649089
C        0.59202751       1.11796912       0.31475093
N        1.30671160      -0.04341157       0.80219979
C        0.78286959      -1.04479486       0.18795597
O        0.45674325      -0.41346519      -1.38769539
H       -1.60155488      -1.73413201      -0.26385957
H       -0.64095670       1.33639287      -1.56890474
H        1.26299733       1.91617389      -0.01527130
H       -0.05575890       1.52498986       1.09519168
H        1.18567395      -2.05268898       0.24449800
12
Frame=11 idx=010546 GeodesicLength=0.9119891621368333 rxn_smarts="[O:1]=[C:2]([C@@:3]1([H:9])[C:4]([H:10])([H:11])[N:5]=[C:6]([H:12])[O:7]1)[H:8]>>[O:1]=[C:2](/[C:6](=[N:5]\[C:4]([C:3](=[O:7])[H:9])([H:10])[H:11])[H:12])[H:8]"
O       -1.89935761      -0.32419824       1.12408084
C       -1.20589402      -0.86903604       0.31497474
C       -0.21574644       0.61225360      -0.87535194
C        0.59416334       1.11463537       0.31356317
N        1.32014625      -0.04683956       0.79141393
C        0.79578854      -1.05633348       0.19745035
O        0.44688712      -0.40821574      -1.39833447
H       -1.60572642      -1.73932052      -0.25344541
H       -0.64809894       1.34558759      -1.55858883
H        1.26050680       1.91793362      -0.01101032
H       -0.05498531       1.51198995       1.09761332
H        1.21231670      -2.05845654       0.25763462
12
Frame=12 idx=010546 GeodesicLength=0.99492757549826 rxn_smarts="[O:1]=[C:2]([C@@:3]1([H:9])[C:4]([H:10])([H:11])[N:5]=[C:6]([H:12])[O:7]1)[H:8]>>[O:1]=[C:2](/[C:6](=[N:5]\[C:4]([C:3](=[O:7])[H:9])([H:10])[H:11])[H:12])[H:8]"
O       -1.91515535      -0.30172290       1.10011642
C       -1.21237247      -0.86371899       0.31000654
C       -0.22561654       0.61047301      -0.87438999
C        0.59622687       1.11116505       0.31227989
N        1.33364807      -0.05031880       0.78008265
C        0.80873969      -1.06803162       0.20738636
O        0.43677057      -0.40285644      -1.40920310
H       -1.61020513      -1.74405544      -0.24282359
H       -0.65517996       1.35481667      -1.54820307
H        1.25792865       1.91962961      -0.00647299
H       -0.05421091       1.49860378       1.09999175
H        1.23942651      -2.06398393       0.27122913
12
Frame=13 idx=010546 GeodesicLength=1.0778710759825196 rxn_smarts="[O:1]=[C:2]([C@@:3]1([H:9])[C:4]([H:10])([H:11])[N:5]=[C:6]([H:12])[O:7]1)[H:8]>>[O:1]=[C:2](/[C:6](=[N:5]\[C:4]([C:3](=[O:7])[H:9])([H:10])[H:11])[H:12])[H:8]"
O       -1.93068876      -0.27956963       1.07590700
C       -1.21904025      -0.85822815       0.30495379
C       -0.23544924       0.60878297      -0.87361081
C        0.59821691       1.10755376       0.31089717
N        1.34720272      -0.05385636       0.76817945
C        0.82173888      -1.07988539       0.21780339
O        0.42638859      -0.39736802      -1.42032052
H       -1.61498646      -1.74833231      -0.23201685
H       -0.66218927       1.36409253      -1.53775572
H        1.25526481       1.92124894      -0.00165502
H       -0.05343788       1.48482331       1.10231500
H        1.26697995      -2.06926166       0.28530313
12
Frame=14 idx=010546 GeodesicLength=1.1607944500573324 rxn_smarts="[O:1]=[C:2]([C@@:3]1([H:9])[C:4]([H:10])([H:11])[N:5]=[C:6]([H:12])[O:7]1)[H:8]>>[O:1]=[C:2](/[C:6](=[N:5]\[C:4]([C:3](=[O:7])[H:9])([H:10])[H:11])[H:12])[H:8]"
O       -1.94593352      -0.25776478       1.05149675
C       -1.22589839      -0.85256443       0.29978943
C       -0.24525030       0.60718576      -0.87301797
C        0.60013845       1.10379396       0.30941100
N        1.36079604      -0.05745888       0.75568276
C        0.83479738      -1.09187824       0.22875328
O        0.41573943      -0.39172935      -1.43169890
H       -1.62007056      -1.75214400      -0.22105480
H       -0.66913464       1.37340867      -1.52724047
H        1.25252866       1.92276998       0.00344702
H       -0.05266170       1.47064092       1.10456369
H        1.29494916      -2.07425961       0.29986823
12
Frame=15 idx=010546 GeodesicLength=1.2437265300888098 rxn_smarts="[O:1]=[C:2]([C@@:3]1([H:9])[C:4]([H:10])([H:11])[N:5]=[C:6]([H:12])[O:7]1)[H:8]>>[O:1]=[C:2](/[C:6](=[N:5]\[C:4]([C:3](=[O:7])[H:9])([H:10])[H:11])[H:12])[H:8]"
O       -1.96090369      -0.23628184       1.02687557
C       -1.23293604      -0.84673570       0.29450500
C       -0.25503554       0.60569904      -0.87261747
C        0.60199139       1.09987613       0.30781601
N        1.37442028      -0.06114868       0.74254477
C        0.84794248      -1.10401452       0.24026875
O        0.40479868      -0.38591793      -1.44336933
H       -1.62542888      -1.75551191      -0.20992771
H       -0.67602108       1.38280337      -1.51664669
H        1.24971665       1.92417929       0.00884317
H       -0.05187629       1.45603331       1.10673776
H        1.32333203      -2.07898056       0.31497017
12
Frame=16 idx=010546 GeodesicLength=1.326639028590535 rxn_smarts="[O:1]=[C:2]([C@@:3]1([H:9])[C:4]([H:10])([H:11])[N:5]=[C:6]([H:12])[O:7]1)[H:8]>>[O:1]=[C:2](/[C:6](=[N:5]\[C:4]([C:3](=[O:7])[H:9])([H:10])[H:11])[H:12])[H:8]"
O       -1.97556748      -0.21515581       1.00210222
C       -1.24015410      -0.84075139       0.28907033
C       -0.26481076       0.60432916      -0.87241479
C        0.60378147       1.09579389       0.30610518
N        1.38805752      -0.06493468       0.72873390
C        0.86118455      -1.11627186       0.25240686
O        0.39356222      -0.37990547      -1.45535293
H       -1.63106478      -1.75843280      -0.19867363
H       -0.68285082       1.39227601      -1.50597158
H        1.24684256       1.92545867       0.01453492
H       -0.05107300       1.44099061       1.10882056
H        1.35209262      -2.08339633       0.33063897
