11
Frame=0 idx=002652 GeodesicLength=0.0 rxn_smarts="[C:1]([n:2]1[c:3]([H:10])[n:4][n:5][c:6]1[H:11])([H:7])([H:8])[H:9]>>[C:1]([N:2]=[C:6]=[N:5][H:11])([H:7])([H:8])[H:9].[C:3](#[N:4])[H:10]"
C       -1.65134063      -0.40475470      -0.09173494
N       -0.27621302       0.04154263      -0.01123227
C        1.49631144       1.78506865      -0.00253827
N        2.42859474       1.11375492       0.09743799
N        1.95663302      -0.86772417       0.18331086
C        0.70054091      -0.75570888       0.09434760
H       -1.91882644      -0.71176267      -1.10754824
H       -2.30339730       0.42474658       0.18192933
H       -1.87078499      -1.23268981       0.58961448
H        0.72029023       2.51089130      -0.09938898
H        0.71819207      -1.90336388       0.16580248
11
Frame=1 idx=002652 GeodesicLength=0.08371175932459117 rxn_smarts="[C:1]([n:2]1[c:3]([H:10])[n:4][n:5][c:6]1[H:11])([H:7])([H:8])[H:9]>>[C:1]([N:2]=[C:6]=[N:5][H:11])([H:7])([H:8])[H:9].[C:3](#[N:4])[H:10]"
C       -1.64262793      -0.38790124      -0.09390254
N       -0.26461777       0.04275303       0.02267498
C        1.46912447       1.76869397      -0.05501938
N        2.42464571       1.12499290       0.05646457
N        1.95706330      -0.88014256       0.17716768
C        0.69846188      -0.76679421       0.16713386
H       -1.88351187      -0.68625678      -1.11866860
H       -2.29321314       0.44647039       0.16825932
H       -1.88953173      -1.21787046       0.57517425
H        0.67592001       2.48307573      -0.05144795
H        0.74828709      -1.92702077       0.15216382
11
Frame=2 idx=002652 GeodesicLength=0.16815766343234345 rxn_smarts="[C:1]([n:2]1[c:3]([H:10])[n:4][n:5][c:6]1[H:11])([H:7])([H:8])[H:9]>>[C:1]([N:2]=[C:6]=[N:5][H:11])([H:7])([H:8])[H:9].[C:3](#[N:4])[H:10]"
C       -1.63344659      -0.37130775      -0.09544567
N       -0.25215069       0.04190628       0.04483559
C        1.43869547       1.75196333      -0.09795622
N        2.41717254       1.13762697       0.02383066
N        1.95566430      -0.89045093       0.18159488
C        0.69777175      -0.77932372       0.21804243
H       -1.85584351      -0.66493912      -1.12536478
H       -2.27896140       0.46971030       0.15706795
H       -1.90302937      -1.19973841       0.56631864
H        0.63655185       2.45163548      -0.01071213
H        0.77757564      -1.94708242       0.13778868
11
Frame=3 idx=002652 GeodesicLength=0.25301451339193753 rxn_smarts="[C:1]([n:2]1[c:3]([H:10])[n:4][n:5][c:6]1[H:11])([H:7])([H:8])[H:9]>>[C:1]([N:2]=[C:6]=[N:5][H:11])([H:7])([H:8])[H:9].[C:3](#[N:4])[H:10]"
C       -1.62483529      -0.35517821      -0.09750253
N       -0.23993214       0.04030464       0.05975220
C        1.40703971       1.73589189      -0.13114874
N        2.40849875       1.15035838      -0.01225498
N        1.95425419      -0.89948384       0.19393795
C        0.69730944      -0.79241954       0.25552683
H       -1.83371704      -0.64555654      -1.13085480
H       -2.26369404       0.49302966       0.14739098
H       -1.91407362      -1.18082156       0.55904819
H        0.60151589       2.41969509       0.02857332
H        0.80763415      -1.96581998       0.12753159
11
Frame=4 idx=002652 GeodesicLength=0.33807896089237244 rxn_smarts="[C:1]([n:2]1[c:3]([H:10])[n:4][n:5][c:6]1[H:11])([H:7])([H:8])[H:9]>>[C:1]([N:2]=[C:6]=[N:5][H:11])([H:7])([H:8])[H:9].[C:3](#[N:4])[H:10]"
C       -1.61670828      -0.33942293      -0.09986614
N       -0.22812159       0.03825695       0.07022753
C        1.37496881       1.72037618      -0.15828905
N        2.39862031       1.16330316      -0.04824004
N        1.95282555      -0.90762787       0.20782527
C        0.69665764      -0.80562821       0.28530442
H       -1.81496303      -0.62811187      -1.13547650
H       -2.24793712       0.51635106       0.13803446
H       -1.92385024      -1.16102545       0.55323894
H        0.56996099       2.38737626       0.06645482
H        0.83854695      -1.98384729       0.12078628
11
Frame=5 idx=002652 GeodesicLength=0.42332747745187416 rxn_smarts="[C:1]([n:2]1[c:3]([H:10])[n:4][n:5][c:6]1[H:11])([H:7])([H:8])[H:9]>>[C:1]([N:2]=[C:6]=[N:5][H:11])([H:7])([H:8])[H:9].[C:3](#[N:4])[H:10]"
C       -1.60894011      -0.32406676      -0.10312669
N       -0.21700232       0.03605171       0.07886695
C        1.34213736       1.70558475      -0.18159381
N        2.38704128       1.17579969      -0.09067752
N        1.95118139      -0.91464857       0.22280841
C        0.69560563      -0.81845729       0.31122294
H       -1.79722411      -0.61197371      -1.14050350
H       -2.23232090       0.53926520       0.12764881
H       -1.93330394      -1.14096982       0.54715360
H        0.54263210       2.35465594       0.10888922
H        0.87019364      -2.00124114       0.11931158
11
Frame=6 idx=002652 GeodesicLength=0.5087583064711467 rxn_smarts="[C:1]([n:2]1[c:3]([H:10])[n:4][n:5][c:6]1[H:11])([H:7])([H:8])[H:9]>>[C:1]([N:2]=[C:6]=[N:5][H:11])([H:7])([H:8])[H:9].[C:3](#[N:4])[H:10]"
C       -1.60166668      -0.30892255      -0.10616052
N       -0.20618633       0.03342903       0.08431372
C        1.30976514       1.69118998      -0.20149432
N        2.37459868       1.18916866      -0.12753412
N        1.94953192      -0.92121561       0.23668872
C        0.69432847      -0.83150748       0.33210327
H       -1.78242956      -0.59723918      -1.14445290
H       -2.21630586       0.56227883       0.11799977
H       -1.94193441      -1.12008152       0.54279849
H        0.51745401       2.32157300       0.14672531
H        0.90284462      -2.01867317       0.11901259
11
Frame=7 idx=002652 GeodesicLength=0.5944501483994521 rxn_smarts="[C:1]([n:2]1[c:3]([H:10])[n:4][n:5][c:6]1[H:11])([H:7])([H:8])[H:9]>>[C:1]([N:2]=[C:6]=[N:5][H:11])([H:7])([H:8])[H:9].[C:3](#[N:4])[H:10]"
C       -1.59473425      -0.29398076      -0.10957201
N       -0.19601426       0.03064257       0.08931996
C        1.27708886       1.67720455      -0.21920888
N        2.36056227       1.20240549      -0.16720451
N        1.94770516      -0.92691505       0.25128235
C        0.69264683      -0.84447954       0.35062912
H       -1.76827531      -0.58233293      -1.14877989
H       -2.20050856       0.58481049       0.10861682
H       -1.95048280      -1.09955146       0.53765907
H        0.49550340       2.28803366       0.18564976
H        0.93650867      -2.03583702       0.12160820
11
Frame=8 idx=002652 GeodesicLength=0.6803293181852512 rxn_smarts="[C:1]([n:2]1[c:3]([H:10])[n:4][n:5][c:6]1[H:11])([H:7])([H:8])[H:9]>>[C:1]([N:2]=[C:6]=[N:5][H:11])([H:7])([H:8])[H:9].[C:3](#[N:4])[H:10]"
C       -1.58819860      -0.27916968      -0.11282929
N       -0.18617841       0.02749367       0.09249487
C        1.24486188       1.66344412      -0.23482754
N        2.34576941       1.21637342      -0.20324226
N        1.94578476      -0.93230585       0.26520306
C        0.69068045      -0.85774396       0.36581596
H       -1.75607053      -0.56794693      -1.15254426
H       -2.18451522       0.60726999       0.10000730
H       -1.95859096      -1.07866038       0.53333929
H        0.47526881       2.25433960       0.22124658
H        0.97118841      -2.05309399       0.12533631
11
Frame=9 idx=002652 GeodesicLength=0.7664892945450632 rxn_smarts="[C:1]([n:2]1[c:3]([H:10])[n:4][n:5][c:6]1[H:11])([H:7])([H:8])[H:9]>>[C:1]([N:2]=[C:6]=[N:5][H:11])([H:7])([H:8])[H:9].[C:3](#[N:4])[H:10]"
C       -1.58196535      -0.26445931      -0.11625937
N       -0.17688391       0.02412886       0.09538602
C        1.21256083       1.64990993      -0.24890496
N        2.32958573       1.23044060      -0.24021311
N        1.94366640      -0.93710297       0.27943687
C        0.68833969      -0.87117544       0.37898295
H       -1.74450696      -0.55311299      -1.15655030
H       -2.16864491       0.62936975       0.09199624
H       -1.96664653      -1.05809904       0.52838450
H        0.45753102       2.22032163       0.25658791
H        1.00696399      -2.07022103       0.13115325
11
Frame=10 idx=002652 GeodesicLength=0.8528573005447115 rxn_smarts="[C:1]([n:2]1[c:3]([H:10])[n:4][n:5][c:6]1[H:11])([H:7])([H:8])[H:9]>>[C:1]([N:2]=[C:6]=[N:5][H:11])([H:7])([H:8])[H:9].[C:3](#[N:4])[H:10]"
C       -1.57610225      -0.24982161      -0.11961888
N       -0.16793234       0.02039334       0.09682228
C        1.18067905       1.63651048      -0.26148289
N        2.31267378       1.24509870      -0.27488340
N        1.94138552      -0.94159923       0.29370715
C        0.68565432      -0.88501699       0.38941210
H       -1.73455842      -0.53853231      -1.16021966
H       -2.15262431       0.65141471       0.08462943
H       -1.97444159      -1.03724507       0.52396428
H        0.44132080       2.18612920       0.28967419
H        1.04394543      -2.08733121       0.13799540
11
Frame=11 idx=002652 GeodesicLength=0.9395179958819165 rxn_smarts="[C:1]([n:2]1[c:3]([H:10])[n:4][n:5][c:6]1[H:11])([H:7])([H:8])[H:9]>>[C:1]([N:2]=[C:6]=[N:5][H:11])([H:7])([H:8])[H:9].[C:3](#[N:4])[H:10]"
C       -1.57056370      -0.23521067      -0.12303492
N       -0.15943829       0.01634293       0.09767107
C        1.14893080       1.62318015      -0.27290734
N        2.29464469       1.25996670      -0.30944460
N        1.93886299      -0.94561454       0.30873254
C        0.68256582      -0.89928987       0.39768251
H       -1.72555360      -0.52347384      -1.16397791
H       -2.13661020       0.67325684       0.07803767
H       -1.98217898      -1.01654455       0.51922613
H        0.42704301       2.15161505       0.32180503
H        1.08229747      -2.10422818       0.14620982
11
Frame=12 idx=002652 GeodesicLength=1.0264265947012592 rxn_smarts="[C:1]([n:2]1[c:3]([H:10])[n:4][n:5][c:6]1[H:11])([H:7])([H:8])[H:9]>>[C:1]([N:2]=[C:6]=[N:5][H:11])([H:7])([H:8])[H:9].[C:3](#[N:4])[H:10]"
C       -1.56538749      -0.22061078      -0.12642510
N       -0.15130026       0.01188876       0.09725941
C        1.11757054       1.60987923      -0.28325268
N        2.27587798       1.27527704      -0.34256148
N        1.93606583      -0.94928362       0.32448057
C        0.67908301      -0.91414220       0.40332191
H       -1.71802445      -0.50823844      -1.16758812
H       -2.12046494       0.69503243       0.07224709
H       -1.98974132      -0.99570221       0.51471924
H        0.41419892       2.11682170       0.35225846
H        1.12212220      -2.12092189       0.15554070
11
Frame=13 idx=002652 GeodesicLength=1.113682227801509 rxn_smarts="[C:1]([n:2]1[c:3]([H:10])[n:4][n:5][c:6]1[H:11])([H:7])([H:8])[H:9]>>[C:1]([N:2]=[C:6]=[N:5][H:11])([H:7])([H:8])[H:9].[C:3](#[N:4])[H:10]"
C       -1.56053989      -0.20597553      -0.12989433
N       -0.14361147       0.00705747       0.09619942
C        1.08633941       1.59657649      -0.29270898
N        2.25596632       1.29071799      -0.37587596
N        1.93288311      -0.95243094       0.34144129
C        0.67517946      -0.92962510       0.40659334
H       -1.71147440      -0.49226183      -1.17137209
H       -2.10427954       0.71665854       0.06736337
H       -1.99727724      -0.97503930       0.50980109
H        0.40322361       2.08152472       0.38206560
H        1.16359065      -2.13720250       0.16638724
11
Frame=14 idx=002652 GeodesicLength=1.2012339688533191 rxn_smarts="[C:1]([n:2]1[c:3]([H:10])[n:4][n:5][c:6]1[H:11])([H:7])([H:8])[H:9]>>[C:1]([N:2]=[C:6]=[N:5][H:11])([H:7])([H:8])[H:9].[C:3](#[N:4])[H:10]"
C       -1.55607186      -0.19129325      -0.13335715
N       -0.13628687       0.00175692       0.09379046
C        1.05550102       1.58321513      -0.30139084
N        2.23531139       1.30646899      -0.40819797
N        1.92921089      -0.95513145       0.35985667
C        0.67086501      -0.94590750       0.40683657
H       -1.70648541      -0.47567310      -1.17512976
H       -2.08794241       0.73821180       0.06358445
H       -2.00463810      -0.95437693       0.50492214
H        0.39367615       2.04573034       0.41047965
H        1.20686020      -2.15300097       0.17860578
11
Frame=15 idx=002652 GeodesicLength=1.2891383137961019 rxn_smarts="[C:1]([n:2]1[c:3]([H:10])[n:4][n:5][c:6]1[H:11])([H:7])([H:8])[H:9]>>[C:1]([N:2]=[C:6]=[N:5][H:11])([H:7])([H:8])[H:9].[C:3](#[N:4])[H:10]"
C       -1.55196481      -0.17653645      -0.13685921
N       -0.12934934      -0.00402287       0.09014045
C        1.02496999       1.56979821      -0.30940376
N        2.21376845       1.32243160      -0.44014020
N        1.92487543      -0.95731957       0.37990680
C        0.66618427      -0.96306886       0.40380636
H       -1.70293711      -0.45809268      -1.17901559
H       -2.07146433       0.75963415       0.06111392
H       -2.01181980      -0.93391813       0.49978459
H        0.38573655       2.00925576       0.43792526
H        1.25200071      -2.16816117       0.19274137
11
Frame=16 idx=002652 GeodesicLength=1.377383947113676 rxn_smarts="[C:1]([n:2]1[c:3]([H:10])[n:4][n:5][c:6]1[H:11])([H:7])([H:8])[H:9]>>[C:1]([N:2]=[C:6]=[N:5][H:11])([H:7])([H:8])[H:9].[C:3](#[N:4])[H:10]"
C       -1.54816274      -0.16172454      -0.14046766
N       -0.12269008      -0.01028743       0.08470879
C        0.99481281       1.55654555      -0.31659350
N        2.19146848       1.33902562      -0.47126467
N        1.91977817      -0.95924023       0.40039247
C        0.66134312      -0.98109299       0.39679661
H       -1.70106307      -0.43959271      -1.18303057
H       -2.05473456       0.78089943       0.05995853
H       -2.01858797      -0.91363456       0.49454395
H        0.37924018       1.97197822       0.46461160
H        1.29859567      -2.18287637       0.21034445
