16
Frame=0 idx=008601 GeodesicLength=0.0 rxn_smarts="[C:1]1([H:8])([H:9])[C@@:2]2([H:10])[C@@:3]3([H:11])[C:4]([H:12])([H:13])[C@:5]([H:14])([C:6]3([H:15])[H:16])[N:7]12>>[C:1]1([H:8])([H:9])[C@@:2]2([H:10])[C:3][C:6]([H:15])([H:16])[C@@:5]([C:4]([H:11])([H:12])[H:13])([H:14])[N:7]12"
C        1.71729640       0.83268247      -0.11139271
C        1.11936293      -0.29742404       0.64587376
C       -0.22844009      -0.09990224       1.27744797
C       -1.05607595      -1.23495775      -0.26853269
C       -0.50936124       0.05275681      -0.88711131
C       -0.91520950       0.89660938       0.31150400
N        0.95461864      -0.16659355      -0.82970778
H        2.77978675       0.78311835      -0.31679306
H        1.33936147       1.83838136       0.01482815
H        1.75749336      -1.09955814       0.99449365
H       -0.89117793      -1.15858335       1.04666926
H       -0.55798528      -2.16055891      -0.55320300
H       -2.14309479      -1.31328523      -0.26110619
H       -0.82884217       0.28803134      -1.90603679
H       -0.54414748       1.91627832       0.38469109
H       -1.99358517       0.92300512       0.45837565
16
Frame=1 idx=008601 GeodesicLength=0.06413094709863054 rxn_smarts="[C:1]1([H:8])([H:9])[C@@:2]2([H:10])[C@@:3]3([H:11])[C:4]([H:12])([H:13])[C@:5]([H:14])([C:6]3([H:15])[H:16])[N:7]12>>[C:1]1([H:8])([H:9])[C@@:2]2([H:10])[C:3][C:6]([H:15])([H:16])[C@@:5]([C:4]([H:11])([H:12])[H:13])([H:14])[N:7]12"
C        1.71860271       0.83210649      -0.11561092
C        1.12322890      -0.29407166       0.65008255
C       -0.22459559      -0.09590079       1.27691351
C       -1.05924791      -1.23641212      -0.26878183
C       -0.50738203       0.05048801      -0.88575681
C       -0.91279054       0.89756042       0.31308900
N        0.95614085      -0.17194108      -0.82620188
H        2.78143657       0.78282689      -0.31939451
H        1.33954475       1.83820982       0.00436339
H        1.76459789      -1.09149220       1.00366765
H       -0.89913386      -1.17169482       1.05714047
H       -0.56752764      -2.16215345      -0.56417090
H       -2.14675892      -1.30943805      -0.27200591
H       -0.82219833       0.29371910      -1.90372284
H       -0.55328327       1.92151882       0.38325040
H       -1.99063358       0.91667462       0.46713864
16
Frame=2 idx=008601 GeodesicLength=0.12825365492802954 rxn_smarts="[C:1]1([H:8])([H:9])[C@@:2]2([H:10])[C@@:3]3([H:11])[C:4]([H:12])([H:13])[C@:5]([H:14])([C:6]3([H:15])[H:16])[N:7]12>>[C:1]1([H:8])([H:9])[C@@:2]2([H:10])[C:3][C:6]([H:15])([H:16])[C@@:5]([C:4]([H:11])([H:12])[H:13])([H:14])[N:7]12"
C        1.71992421       0.83150170      -0.11986205
C        1.12713836      -0.29064296       0.65431147
C       -0.22070263      -0.09185597       1.27639910
C       -1.06243290      -1.23785638      -0.26901602
C       -0.50537940       0.04820615      -0.88438273
C       -0.91035764       0.89852581       0.31467977
N        0.95767614      -0.17731260      -0.82262638
H        2.78309511       0.78253256      -0.32205461
H        1.33972590       1.83796631      -0.00615645
H        1.77174260      -1.08327864       1.01286379
H       -0.90726892      -1.18506681       1.06765275
H       -0.57721022      -2.16359791      -0.57526704
H       -2.15031930      -1.30549583      -0.28289865
H       -0.81547260       0.29934310      -1.90134053
H       -0.56257891       1.92668039       0.38181184
H       -1.98757979       0.91035108       0.47588574
16
Frame=3 idx=008601 GeodesicLength=0.19235858261272806 rxn_smarts="[C:1]1([H:8])([H:9])[C@@:2]2([H:10])[C@@:3]3([H:11])[C:4]([H:12])([H:13])[C@:5]([H:14])([C:6]3([H:15])[H:16])[N:7]12>>[C:1]1([H:8])([H:9])[C@@:2]2([H:10])[C:3][C:6]([H:15])([H:16])[C@@:5]([C:4]([H:11])([H:12])[H:13])([H:14])[N:7]12"
C        1.72126283       0.83086972      -0.12414514
C        1.13109131      -0.28713684       0.65855733
C       -0.21675864      -0.08775804       1.27590518
C       -1.06562801      -1.23929039      -0.26923600
C       -0.50335340       0.04591249      -0.88299049
C       -0.90791130       0.89950909       0.31627371
N        0.95922470      -0.18270155      -0.81898348
H        2.78476497       0.78223576      -0.32476969
H        1.33991005       1.83765225      -0.01671826
H        1.77891900      -1.07492782       1.02206671
H       -0.91559245      -1.19871285       1.07820285
H       -0.58702612      -2.16488635      -0.58648128
H       -2.15377205      -1.30146104      -0.29377004
H       -0.80866989       0.30489579      -1.89889270
H       -0.57203585       1.93176239       0.38037108
H       -1.98442515       0.90403737       0.48461021
16
Frame=4 idx=008601 GeodesicLength=0.25644904035568516 rxn_smarts="[C:1]1([H:8])([H:9])[C@@:2]2([H:10])[C@@:3]3([H:11])[C:4]([H:12])([H:13])[C@:5]([H:14])([C:6]3([H:15])[H:16])[N:7]12>>[C:1]1([H:8])([H:9])[C@@:2]2([H:10])[C:3][C:6]([H:15])([H:16])[C@@:5]([C:4]([H:11])([H:12])[H:13])([H:14])[N:7]12"
C        1.72261921       0.83021018      -0.12845877
C        1.13508924      -0.28355197       0.66281488
C       -0.21275783      -0.08359456       1.27542892
C       -1.06882812      -1.24071118      -0.26944049
C       -0.50130443       0.04360856      -0.88157994
C       -0.90545187       0.90051328       0.31786619
N        0.96078633      -0.18809992      -0.81527386
H        2.78644677       0.78193400      -0.32753552
H        1.34010011       1.83726588      -0.02730926
H        1.78612014      -1.06645064       1.03125760
H       -0.92412120      -1.21264729       1.08879116
H       -0.59696300      -2.16600960      -0.59780034
H       -2.15711104      -1.29733463      -0.30460993
H       -0.80179729       0.31037035      -1.89637862
H       -0.58165635       1.93676312       0.37892477
H       -1.98117068       0.89773443       0.49330321
16
Frame=5 idx=008601 GeodesicLength=0.32052277840161736 rxn_smarts="[C:1]1([H:8])([H:9])[C@@:2]2([H:10])[C@@:3]3([H:11])[C:4]([H:12])([H:13])[C@:5]([H:14])([C:6]3([H:15])[H:16])[N:7]12>>[C:1]1([H:8])([H:9])[C@@:2]2([H:10])[C:3][C:6]([H:15])([H:16])[C@@:5]([C:4]([H:11])([H:12])[H:13])([H:14])[N:7]12"
C        1.72399640       0.82952457      -0.13280376
C        1.13913231      -0.27988614       0.66708493
C       -0.20869905      -0.07935867       1.27497398
C       -1.07203298      -1.24211954      -0.26963091
C       -0.49923127       0.04129568      -0.88015116
C       -0.90297940       0.90154143       0.31945811
N        0.96236202      -0.19350677      -0.81149781
H        2.78814401       0.78162806      -0.33035367
H        1.34030084       1.83681037      -0.03793113
H        1.79334394      -1.05784726       1.04043668
H       -0.93286635      -1.22689195       1.09940972
H       -0.60702062      -2.16696376      -0.60922022
H       -2.16033653      -1.29311636      -0.31541045
H       -0.79485418       0.31576520      -1.89380109
H       -0.59144243       1.94168221       0.37746950
H       -1.97781670       0.89144294       0.50196729
16
Frame=6 idx=008601 GeodesicLength=0.3845777926949595 rxn_smarts="[C:1]1([H:8])([H:9])[C@@:2]2([H:10])[C@@:3]3([H:11])[C:4]([H:12])([H:13])[C@:5]([H:14])([C:6]3([H:15])[H:16])[N:7]12>>[C:1]1([H:8])([H:9])[C@@:2]2([H:10])[C:3][C:6]([H:15])([H:16])[C@@:5]([C:4]([H:11])([H:12])[H:13])([H:14])[N:7]12"
C        1.72539565       0.82881200      -0.13718043
C        1.14322191      -0.27613723       0.67136617
C       -0.20457864      -0.07504261       1.27454027
C       -1.07524045      -1.24351364      -0.26980729
C       -0.49713301       0.03897517      -0.87870303
C       -0.90049371       0.90259568       0.32104835
N        0.96395235      -0.19892025      -0.80765401
H        2.78985771       0.78131564      -0.33322490
H        1.34051399       1.83628488      -0.04858537
H        1.80059032      -1.04911722       1.04960124
H       -0.94184354      -1.24146581       1.11005531
H       -0.61719462      -2.16774115      -0.62073552
H       -2.16344599      -1.28880407      -0.32616691
H       -0.78784152       0.32107912      -1.89115953
H       -0.60139758       1.94651756       0.37600349
H       -1.97436287       0.88516193       0.51060216
16
Frame=7 idx=008601 GeodesicLength=0.44861518541806755 rxn_smarts="[C:1]1([H:8])([H:9])[C@@:2]2([H:10])[C@@:3]3([H:11])[C:4]([H:12])([H:13])[C@:5]([H:14])([C:6]3([H:15])[H:16])[N:7]12>>[C:1]1([H:8])([H:9])[C@@:2]2([H:10])[C:3][C:6]([H:15])([H:16])[C@@:5]([C:4]([H:11])([H:12])[H:13])([H:14])[N:7]12"
C        1.72681894       0.82807237      -0.14158933
C        1.14735951      -0.27230302       0.67565748
C       -0.20039323      -0.07063819       1.27412843
C       -1.07844864      -1.24489241      -0.26996960
C       -0.49500854       0.03664839      -0.87723468
C       -0.89799463       0.90367886       0.32263608
N        0.96555825      -0.20433834      -0.80374174
H        2.79158988       0.78099532      -0.33615042
H        1.34074229       1.83568981      -0.05927338
H        1.80785884      -1.04026079       1.05874841
H       -0.95107062      -1.25638995       1.12072395
H       -0.62748046      -2.16833547      -0.63234041
H       -2.16643756      -1.28439649      -0.33687377
H       -0.78076000       0.32631074      -1.88845414
H       -0.61152504       1.95126809       0.37452472
H       -1.97080899       0.87889107       0.51920840
16
Frame=8 idx=008601 GeodesicLength=0.5126409940542228 rxn_smarts="[C:1]1([H:8])([H:9])[C@@:2]2([H:10])[C@@:3]3([H:11])[C:4]([H:12])([H:13])[C@:5]([H:14])([C:6]3([H:15])[H:16])[N:7]12>>[C:1]1([H:8])([H:9])[C@@:2]2([H:10])[C:3][C:6]([H:15])([H:16])[C@@:5]([C:4]([H:11])([H:12])[H:13])([H:14])[N:7]12"
C        1.72826812       0.82730583      -0.14603120
C        1.15154623      -0.26837995       0.67995858
C       -0.19613887      -0.06613478       1.27374011
C       -1.08165544      -1.24625342      -0.27011682
C       -0.49285703       0.03431712      -0.87574435
C       -0.89548199       0.90479389       0.32422083
N        0.96717994      -0.20975908      -0.79975942
H        2.79334187       0.78066590      -0.33913155
H        1.34098902       1.83502545      -0.06999809
H        1.81514813      -1.03127686       1.06787672
H       -0.96056435      -1.27169396       1.13140406
H       -0.63787477      -2.16873946      -0.64402542
H       -2.16930985      -1.27989035      -0.34752525
H       -0.77361048       0.33145871      -1.88568473
H       -0.62182672       1.95593083       0.37302921
H       -1.96715381       0.87263014       0.52778731
16
Frame=9 idx=008601 GeodesicLength=0.57664969652062 rxn_smarts="[C:1]1([H:8])([H:9])[C@@:2]2([H:10])[C@@:3]3([H:11])[C:4]([H:12])([H:13])[C@:5]([H:14])([C:6]3([H:15])[H:16])[N:7]12>>[C:1]1([H:8])([H:9])[C@@:2]2([H:10])[C:3][C:6]([H:15])([H:16])[C@@:5]([C:4]([H:11])([H:12])[H:13])([H:14])[N:7]12"
C        1.72974535       0.82651064      -0.15050732
C        1.15578479      -0.26436585       0.68427071
C       -0.19181273      -0.06152901       1.27337679
C       -1.08486112      -1.24759640      -0.27024950
C       -0.49067600       0.03198199      -0.87422945
C       -0.89295485       0.90594249       0.32580450
N        0.96881957      -0.21518536      -0.79570367
H        2.79511593       0.78032634      -0.34217262
H        1.34125390       1.83429058      -0.08077383
H        1.82246511      -1.02215693       1.07699322
H       -0.97034512      -1.28739789       1.14209455
H       -0.64837882      -2.16894761      -0.65579252
H       -2.17206235      -1.27528082      -0.35812351
H       -0.76638837       0.33652679      -1.88284899
H       -0.63230957       1.96050502       0.37151536
H       -1.96339573       0.86637600       0.53634628
16
Frame=10 idx=008601 GeodesicLength=0.6406452657500891 rxn_smarts="[C:1]1([H:8])([H:9])[C@@:2]2([H:10])[C@@:3]3([H:11])[C:4]([H:12])([H:13])[C@:5]([H:14])([C:6]3([H:15])[H:16])[N:7]12>>[C:1]1([H:8])([H:9])[C@@:2]2([H:10])[C:3][C:6]([H:15])([H:16])[C@@:5]([C:4]([H:11])([H:12])[H:13])([H:14])[N:7]12"
C        1.73125207       0.82568493      -0.15502046
C        1.16007737      -0.26025563       0.68859622
C       -0.18741128      -0.05681573       1.27304024
C       -1.08806601      -1.24891932      -0.27036808
C       -0.48846311       0.02964415      -0.87268687
C       -0.89041195       0.90712565       0.32738883
N        0.97047813      -0.22062084      -0.79156963
H        2.79691263       0.77997291      -0.34527895
H        1.34153768       1.83348304      -0.09161702
H        1.82981719      -1.01288425       1.08611215
H       -0.98043223      -1.30353395       1.15278521
H       -0.65899595      -2.16895104      -0.66764360
H       -2.17469547      -1.27055889      -0.36866891
H       -0.75909007       0.34151777      -1.87994455
H       -0.64297796       1.96498626       0.36998102
H       -1.95953102       0.86012496       0.54489441
16
Frame=11 idx=008601 GeodesicLength=0.7046339052636761 rxn_smarts="[C:1]1([H:8])([H:9])[C@@:2]2([H:10])[C@@:3]3([H:11])[C:4]([H:12])([H:13])[C@:5]([H:14])([C:6]3([H:15])[H:16])[N:7]12>>[C:1]1([H:8])([H:9])[C@@:2]2([H:10])[C:3][C:6]([H:15])([H:16])[C@@:5]([C:4]([H:11])([H:12])[H:13])([H:14])[N:7]12"
C        1.73279128       0.82482901      -0.15957196
C        1.16442610      -0.25604562       0.69293431
C       -0.18293086      -0.05198397       1.27273177
C       -1.09126871      -1.25022037      -0.27047099
C       -0.48621735       0.02730526      -0.87111517
C       -0.88785353       0.90834762       0.32897307
N        0.97215674      -0.22606373      -0.78735582
H        2.79873517       0.77960319      -0.34845370
H        1.34184451       1.83260360      -0.10252999
H        1.83720566      -1.00345536       1.09523310
H       -0.99084811      -1.32013530       1.16346506
H       -0.66972242      -2.16874304      -0.67957142
H       -2.17720851      -1.26572314      -0.37915316
H       -0.75171547       0.34642987      -1.87697169
H       -0.65383538       1.96937379       0.36842339
H       -1.95555913       0.85387820       0.55343320
16
Frame=12 idx=008601 GeodesicLength=0.7686152765508963 rxn_smarts="[C:1]1([H:8])([H:9])[C@@:2]2([H:10])[C@@:3]3([H:11])[C:4]([H:12])([H:13])[C@:5]([H:14])([C:6]3([H:15])[H:16])[N:7]12>>[C:1]1([H:8])([H:9])[C@@:2]2([H:10])[C:3][C:6]([H:15])([H:16])[C@@:5]([C:4]([H:11])([H:12])[H:13])([H:14])[N:7]12"
C        1.73436460       0.82394264      -0.16416332
C        1.16883233      -0.25173190       0.69728421
C       -0.17836762      -0.04702322       1.27245259
C       -1.09446691      -1.25149672      -0.27055648
C       -0.48393730       0.02496727      -0.86951290
C       -0.88527888       0.90961198       0.33055638
N        0.97385574      -0.23151187      -0.78306068
H        2.80058446       0.77921430      -0.35170032
H        1.34217741       1.83165162      -0.11351566
H        1.84463083      -0.99386581       1.10435598
H       -1.00161568      -1.33723482       1.17412295
H       -0.68055376      -2.16831517      -0.69156811
H       -2.17959917      -1.26077098      -0.38956758
H       -0.74426375       0.35126153      -1.87393090
H       -0.66488489       1.97366486       0.36683954
H       -1.95147739       0.84763629       0.56196432
16
Frame=13 idx=008601 GeodesicLength=0.8325943706351315 rxn_smarts="[C:1]1([H:8])([H:9])[C@@:2]2([H:10])[C@@:3]3([H:11])[C:4]([H:12])([H:13])[C@:5]([H:14])([C:6]3([H:15])[H:16])[N:7]12>>[C:1]1([H:8])([H:9])[C@@:2]2([H:10])[C:3][C:6]([H:15])([H:16])[C@@:5]([C:4]([H:11])([H:12])[H:13])([H:14])[N:7]12"
C        1.73597432       0.82302327      -0.16879809
C        1.17330041      -0.24730925       0.70164853
C       -0.17371620      -0.04192745       1.27220451
C       -1.09766105      -1.25274622      -0.27062401
C       -0.48161998       0.02263089      -0.86787609
C       -0.88268620       0.91092029       0.33214066
N        0.97557699      -0.23697060      -0.77867801
H        2.80246164       0.77880283      -0.35502935
H        1.34253617       1.83062343      -0.12459153
H        1.85210501      -0.98409490       1.11349625
H       -1.01276692      -1.35486758       1.18474471
H       -0.69149177      -2.16765835      -0.70363409
H       -2.18186793      -1.25569409      -0.39991174
H       -0.73673001       0.35601606      -1.87081852
H       -0.67613255       1.97785536       0.36523265
H       -1.94728193       0.84139631       0.57049411
16
Frame=14 idx=008601 GeodesicLength=0.8965737662733562 rxn_smarts="[C:1]1([H:8])([H:9])[C@@:2]2([H:10])[C@@:3]3([H:11])[C:4]([H:12])([H:13])[C@:5]([H:14])([C:6]3([H:15])[H:16])[N:7]12>>[C:1]1([H:8])([H:9])[C@@:2]2([H:10])[C:3][C:6]([H:15])([H:16])[C@@:5]([C:4]([H:11])([H:12])[H:13])([H:14])[N:7]12"
C        1.73762354       0.82207168      -0.17347805
C        1.17783287      -0.24277281       0.70602667
C       -0.16897245      -0.03668487       1.27198929
C       -1.10084905      -1.25396694      -0.27067150
C       -0.47926363       0.02029802      -0.86620275
C       -0.88007495       0.91227749       0.33372568
N        0.97732193      -0.24243759      -0.77420596
H        2.80436988       0.77836767      -0.35844430
H        1.34292477       1.82951974      -0.13576177
H        1.85962869      -0.97413919       1.12265180
H       -1.02433119      -1.37307215       1.19531506
H       -0.70253115      -2.16676716      -0.71575816
H       -2.18401347      -1.25048983      -0.41017582
H       -0.72911380       0.36069148      -1.86763463
H       -0.68758156       1.98194422       0.36359892
H       -1.94297044       0.83516025       0.57902551
16
Frame=15 idx=008601 GeodesicLength=0.9605529529483356 rxn_smarts="[C:1]1([H:8])([H:9])[C@@:2]2([H:10])[C@@:3]3([H:11])[C:4]([H:12])([H:13])[C@:5]([H:14])([C:6]3([H:15])[H:16])[N:7]12>>[C:1]1([H:8])([H:9])[C@@:2]2([H:10])[C:3][C:6]([H:15])([H:16])[C@@:5]([C:4]([H:11])([H:12])[H:13])([H:14])[N:7]12"
C        1.73931482       0.82108816      -0.17820496
C        1.18243283      -0.23811751       0.71041778
C       -0.16413067      -0.03128301       1.27180801
C       -1.10402818      -1.25515612      -0.27069581
C       -0.47686677       0.01797044      -0.86449036
C       -0.87744397       0.91368830       0.33531069
N        0.97909152      -0.24791029      -0.76964220
H        2.80631133       0.77790719      -0.36194874
H        1.34334639       1.82833998      -0.14703106
H        1.86720326      -0.96399464       1.13182011
H       -1.03634172      -1.39188711       1.20581694
H       -0.71366469      -2.16563446      -0.72792748
H       -2.18603354      -1.24515516      -0.42035065
H       -0.72141601       0.36528555      -1.86437833
H       -0.69923518       1.98592906       0.36193552
H       -1.93853943       0.82892962       0.58756054
16
Frame=16 idx=008601 GeodesicLength=1.0245324091472185 rxn_smarts="[C:1]1([H:8])([H:9])[C@@:2]2([H:10])[C@@:3]3([H:11])[C:4]([H:12])([H:13])[C@:5]([H:14])([C:6]3([H:15])[H:16])[N:7]12>>[C:1]1([H:8])([H:9])[C@@:2]2([H:10])[C:3][C:6]([H:15])([H:16])[C@@:5]([C:4]([H:11])([H:12])[H:13])([H:14])[N:7]12"
C        1.74105111       0.82007330      -0.18298092
C        1.18710378      -0.23333770       0.71482107
C       -0.15918496      -0.02570856       1.27166207
C       -1.10719570      -1.25631101      -0.27069316
C       -0.47442775       0.01565008      -0.86273607
C       -0.87479202       0.91515803       0.33689519
N        0.98088698      -0.25338608      -0.76498425
H        2.80828865       0.77741988      -0.36554687
H        1.34380459       1.82708403      -0.15840489
H        1.87483044      -0.95365673       1.14099889
H       -1.04883512      -1.41135460       1.21623078
H       -0.72488482      -2.16425394      -0.74012810
H       -2.18792609      -1.23968725      -0.43042641
H       -0.71363730       0.36979602      -1.86104869
H       -0.71109666       1.98980795       0.36023929
H       -1.93398513       0.82270656       0.59610206
