18
Frame=0 idx=000771 GeodesicLength=0.0 rxn_smarts="[C:1]([C:2]([C:3]([C:4]1([H:14])[C:5]([H:15])([H:16])[C:6]1([H:17])[H:18])([H:12])[H:13])([H:10])[H:11])([H:7])([H:8])[H:9]>>[C:1](=[C:2]([H:10])[H:11])([H:8])[H:9].[C:3](=[C:4]1[C:5]([H:15])([H:16])[C:6]1([H:17])[H:18])([H:12])[H:13].[H:7][H:14]"
C       -2.35239778      -0.23738620      -0.07682929
C       -1.78457456      -1.03193672       0.87542660
C        0.60024334      -0.72171427       0.92134068
C        0.94735101       0.17107855      -0.04434175
C        1.89253849       0.26369043      -1.17534836
C        1.74391421       1.40782787      -0.17726434
H       -1.15957610       0.54391117      -0.77695569
H       -2.83296037       0.69320789       0.20381274
H       -2.66037414      -0.65645705      -1.02822946
H       -1.79536684      -0.73438847       1.91448997
H       -1.60970590      -2.08064812       0.67989242
H        0.69920322      -1.78432354       0.74524955
H        0.50582156      -0.40470405       1.95121273
H       -0.30931505       0.59353532      -0.70411469
H        2.79356516      -0.33610061      -1.13235867
H        1.51037461       0.42926263      -2.17558504
H        1.26689867       2.31270014      -0.53418552
H        2.54436046       1.57244495       0.53378807
18
Frame=1 idx=000771 GeodesicLength=0.0812573824594178 rxn_smarts="[C:1]([C:2]([C:3]([C:4]1([H:14])[C:5]([H:15])([H:16])[C:6]1([H:17])[H:18])([H:12])[H:13])([H:10])[H:11])([H:7])([H:8])[H:9]>>[C:1](=[C:2]([H:10])[H:11])([H:8])[H:9].[C:3](=[C:4]1[C:5]([H:15])([H:16])[C:6]1([H:17])[H:18])([H:12])[H:13].[H:7][H:14]"
C       -2.36210516      -0.21166332      -0.04392775
C       -1.77657188      -1.03780206       0.87384737
C        0.59385015      -0.72435159       0.91013278
C        0.94738349       0.16121654      -0.06404170
C        1.92878318       0.25760292      -1.16304206
C        1.72510122       1.41170993      -0.18754603
H       -1.17403480       0.52294490      -0.82240322
H       -2.81103453       0.72199024       0.27815928
H       -2.73304936      -0.58741716      -0.99066653
H       -1.81296722      -0.79314532       1.92651569
H       -1.60301490      -2.07842299       0.63605811
H        0.72375608      -1.78674746       0.75090292
H        0.50694224      -0.39415594       1.93695336
H       -0.30738612       0.55480528      -0.75847842
H        2.84036739      -0.32189628      -1.08139296
H        1.57536327       0.40001834      -2.17731453
H        1.24108588       2.30192753      -0.57099020
H        2.49753108       1.60338643       0.54723389
18
Frame=2 idx=000771 GeodesicLength=0.16171721204544826 rxn_smarts="[C:1]([C:2]([C:3]([C:4]1([H:14])[C:5]([H:15])([H:16])[C:6]1([H:17])[H:18])([H:12])[H:13])([H:10])[H:11])([H:7])([H:8])[H:9]>>[C:1](=[C:2]([H:10])[H:11])([H:8])[H:9].[C:3](=[C:4]1[C:5]([H:15])([H:16])[C:6]1([H:17])[H:18])([H:12])[H:13].[H:7][H:14]"
C       -2.36801919      -0.18528361      -0.01144563
C       -1.76921750      -1.04293702       0.87230229
C        0.58784512      -0.72832660       0.89900149
C        0.94735408       0.15022422      -0.08357411
C        1.96320382       0.25265189      -1.14983267
C        1.70443150       1.41494307      -0.19857622
H       -1.18857525       0.49931048      -0.86777175
H       -2.78260941       0.75047947       0.35018328
H       -2.79930085      -0.51541272      -0.94932110
H       -1.83081344      -0.85146696       1.93524594
H       -1.59801350      -2.07400226       0.59281137
H        0.74726616      -1.78954111       0.75643775
H        0.50775886      -0.38491193       1.92248656
H       -0.30546437       0.51362408      -0.81132892
H        2.88413701      -0.30502212      -1.02993826
H        1.63881150       0.37207362      -2.17669332
H        1.21358703       2.28961548      -0.60828753
H        2.44761841       1.63398202       0.55830082
18
Frame=3 idx=000771 GeodesicLength=0.24162267223807815 rxn_smarts="[C:1]([C:2]([C:3]([C:4]1([H:14])[C:5]([H:15])([H:16])[C:6]1([H:17])[H:18])([H:12])[H:13])([H:10])[H:11])([H:7])([H:8])[H:9]>>[C:1](=[C:2]([H:10])[H:11])([H:8])[H:9].[C:3](=[C:4]1[C:5]([H:15])([H:16])[C:6]1([H:17])[H:18])([H:12])[H:13].[H:7][H:14]"
C       -2.37027386      -0.15865654       0.02023423
C       -1.76241099      -1.04737805       0.87088838
C        0.58222983      -0.73351171       0.88805351
C        0.94727557       0.13826370      -0.10281048
C        1.99551716       0.24886327      -1.13596985
C        1.68231590       1.41738271      -0.21024184
H       -1.20342005       0.47351386      -0.91243446
H       -2.74904886       0.77776083       0.41939620
H       -2.85793975      -0.44097941      -0.90527705
H       -1.84923419      -0.90845814       1.94069571
H       -1.59457543      -2.06763242       0.55088401
H        0.76984029      -1.79266943       0.76186211
H        0.50844084      -0.37691816       1.90796529
H       -0.30365825       0.47093245      -0.86198855
H        2.92444711      -0.28578456      -0.97863668
H        1.70017302       0.34579121      -2.17390544
H        1.18500098       2.27585811      -0.64567083
H        2.39532069       1.66362227       0.56695575
18
Frame=4 idx=000771 GeodesicLength=0.32119523195936356 rxn_smarts="[C:1]([C:2]([C:3]([C:4]1([H:14])[C:5]([H:15])([H:16])[C:6]1([H:17])[H:18])([H:12])[H:13])([H:10])[H:11])([H:7])([H:8])[H:9]>>[C:1](=[C:2]([H:10])[H:11])([H:8])[H:9].[C:3](=[C:4]1[C:5]([H:15])([H:16])[C:6]1([H:17])[H:18])([H:12])[H:13].[H:7][H:14]"
C       -2.36918687      -0.13216687       0.05085168
C       -1.75605110      -1.05121532       0.86966557
C        0.57698597      -0.73970070       0.87738823
C        0.94718950       0.12552205      -0.12166817
C        2.02558942       0.24617601      -1.12171103
C        1.65922481       1.41893066      -0.22245113
H       -1.21880735       0.44626801      -0.95576267
H       -2.71197327       0.80300521       0.48564755
H       -2.90819056      -0.36467944      -0.85965018
H       -1.86854263      -0.96352394       1.94298593
H       -1.59245698      -2.05962956       0.51076290
H        0.79167597      -1.79600310       0.76731712
H        0.50908443      -0.36996909       1.89350551
H       -0.30206387       0.42761262      -0.91002173
H        2.96106702      -0.26462531      -0.92804373
H        1.75908729       0.32140017      -2.16921143
H        1.15596529       2.26080278      -0.68283251
H        2.34140292       1.69179582       0.57322807
18
Frame=5 idx=000771 GeodesicLength=0.4004469353305272 rxn_smarts="[C:1]([C:2]([C:3]([C:4]1([H:14])[C:5]([H:15])([H:16])[C:6]1([H:17])[H:18])([H:12])[H:13])([H:10])[H:11])([H:7])([H:8])[H:9]>>[C:1](=[C:2]([H:10])[H:11])([H:8])[H:9].[C:3](=[C:4]1[C:5]([H:15])([H:16])[C:6]1([H:17])[H:18])([H:12])[H:13].[H:7][H:14]"
C       -2.36517954      -0.10616532       0.08019619
C       -1.74998728      -1.05444948       0.86868769
C        0.57210193      -0.74665583       0.86704159
C        0.94714639       0.11219536      -0.14010063
C        2.05337360       0.24445812      -1.10728409
C        1.63565812       1.41951189      -0.23508086
H       -1.23494473       0.41857188      -0.99710827
H       -2.67334087       0.82543729       0.54895542
H       -2.94956962      -0.28737093      -0.81355143
H       -1.88887528      -1.01614587       1.94230032
H       -1.59138669      -2.05025604       0.47285950
H        0.81290529      -1.79935315       0.77283731
H        0.50982270      -0.36383886       1.87916067
H       -0.30076201       0.38444855      -0.95515876
H        2.99390770      -0.24203100      -0.87864035
H        1.81532387       0.29894511      -2.16288598
H        1.12711924       2.24462151      -0.71944101
H        2.28668719       1.71807679       0.57721272
18
Frame=6 idx=000771 GeodesicLength=0.47954350526867656 rxn_smarts="[C:1]([C:2]([C:3]([C:4]1([H:14])[C:5]([H:15])([H:16])[C:6]1([H:17])[H:18])([H:12])[H:13])([H:10])[H:11])([H:7])([H:8])[H:9]>>[C:1](=[C:2]([H:10])[H:11])([H:8])[H:9].[C:3](=[C:4]1[C:5]([H:15])([H:16])[C:6]1([H:17])[H:18])([H:12])[H:13].[H:7][H:14]"
C       -2.35870758      -0.08082670       0.10832911
C       -1.74415565      -1.05724954       0.86795342
C        0.56754286      -0.75414197       0.85708207
C        0.94721105       0.09844104      -0.15810870
C        2.07901461       0.24357287      -1.09285383
C        1.61197006       1.41915138      -0.24810791
H       -1.25198353       0.39096521      -1.03626622
H       -2.63436235       0.84476576       0.60976984
H       -2.98228113      -0.20939982      -0.76764403
H       -1.91045546      -1.06640306       1.93880802
H       -1.59105381      -2.03980652       0.43710523
H        0.83377863      -1.80251376       0.77870170
H        0.51061206      -0.35820046       1.86496953
H       -0.29979568       0.34187867      -0.99746483
H        3.02312807      -0.21844546      -0.83062717
H        1.86894449       0.27840059      -2.15520460
H        1.09887771       2.22748790      -0.75546870
H        2.23171564       1.74232386       0.57902707
18
Frame=7 idx=000771 GeodesicLength=0.5585798148778982 rxn_smarts="[C:1]([C:2]([C:3]([C:4]1([H:14])[C:5]([H:15])([H:16])[C:6]1([H:17])[H:18])([H:12])[H:13])([H:10])[H:11])([H:7])([H:8])[H:9]>>[C:1](=[C:2]([H:10])[H:11])([H:8])[H:9].[C:3](=[C:4]1[C:5]([H:15])([H:16])[C:6]1([H:17])[H:18])([H:12])[H:13].[H:7][H:14]"
C       -2.35005738      -0.05609391       0.13542872
C       -1.73848580      -1.05965384       0.86747806
C        0.56330192      -0.76210430       0.84744210
C        0.94742248       0.08428408      -0.17576311
C        2.10275511       0.24344713      -1.07842515
C        1.58819263       1.41789563      -0.26151695
H       -1.27000595       0.36365223      -1.07326852
H       -2.59556601       0.86108478       0.66861907
H       -3.00675008      -0.13089462      -0.72216061
H       -1.93331109      -1.11434342       1.93265608
H       -1.59134445      -2.02841475       0.40338553
H        0.85436666      -1.80544837       0.78484640
H        0.51153284      -0.35301348       1.85087377
H       -0.29915701       0.29983556      -1.03726287
H        3.04907767      -0.19392698      -0.78385245
H        1.92030999       0.25960183      -2.14631189
H        1.07123434       2.20943413      -0.79102064
H        2.17648412       1.76465829       0.57885246
18
Frame=8 idx=000771 GeodesicLength=0.6376211367855255 rxn_smarts="[C:1]([C:2]([C:3]([C:4]1([H:14])[C:5]([H:15])([H:16])[C:6]1([H:17])[H:18])([H:12])[H:13])([H:10])[H:11])([H:7])([H:8])[H:9]>>[C:1](=[C:2]([H:10])[H:11])([H:8])[H:9].[C:3](=[C:4]1[C:5]([H:15])([H:16])[C:6]1([H:17])[H:18])([H:12])[H:13].[H:7][H:14]"
C       -2.33955513      -0.03202524       0.16163729
C       -1.73293360      -1.06178828       0.86724220
C        0.55935582      -0.77037266       0.83816525
C        0.94782841       0.06982229      -0.19307463
C        2.12475266       0.24395983      -1.06408037
C        1.56453157       1.41578423      -0.27530752
H       -1.28910358       0.33702315      -1.10806512
H       -2.55771831       0.87430625       0.72596684
H       -3.02332167      -0.05210438      -0.67741599
H       -1.95753223      -1.16015148       1.92391709
H       -1.59202102      -2.01623879       0.37148694
H        0.87483063      -1.80797751       0.79147753
H        0.51251699      -0.34802684       1.83688350
H       -0.29886348       0.25847605      -1.07470820
H        3.07196455      -0.16875771      -0.73836913
H        1.96955044       0.24242316      -2.13639081
H        1.04440234       2.19056717      -0.82613925
H        2.12131561       1.78508076       0.57677436
18
Frame=9 idx=000771 GeodesicLength=0.7166166012520344 rxn_smarts="[C:1]([C:2]([C:3]([C:4]1([H:14])[C:5]([H:15])([H:16])[C:6]1([H:17])[H:18])([H:12])[H:13])([H:10])[H:11])([H:7])([H:8])[H:9]>>[C:1](=[C:2]([H:10])[H:11])([H:8])[H:9].[C:3](=[C:4]1[C:5]([H:15])([H:16])[C:6]1([H:17])[H:18])([H:12])[H:13].[H:7][H:14]"
C       -2.32735256      -0.00854407       0.18710581
C       -1.72740791      -1.06364225       0.86723649
C        0.55570832      -0.77888655       0.82919035
C        0.94844898       0.05507615      -0.21008205
C        2.14515134       0.24502734      -1.04979096
C        1.54101184       1.41284737      -0.28945815
H       -1.30932614       0.31129702      -1.14068216
H       -2.52127307       0.88451948       0.78218193
H       -3.03234454       0.02672745      -0.63347989
H       -1.98303639      -1.20387028       1.91260757
H       -1.59298065      -2.00331609       0.34125962
H        0.89516592      -1.81004573       0.79849831
H        0.51363042      -0.34318494       1.82292988
H       -0.29890598       0.21771568      -1.11000567
H        3.09201211      -0.14296907      -0.69404868
H        2.01689359       0.22664609      -2.12549391
H        1.01838118       2.17089096      -0.86087756
H        2.06622353       1.80371145       0.57290907
18
Frame=10 idx=000771 GeodesicLength=0.795667716794897 rxn_smarts="[C:1]([C:2]([C:3]([C:4]1([H:14])[C:5]([H:15])([H:16])[C:6]1([H:17])[H:18])([H:12])[H:13])([H:10])[H:11])([H:7])([H:8])[H:9]>>[C:1](=[C:2]([H:10])[H:11])([H:8])[H:9].[C:3](=[C:4]1[C:5]([H:15])([H:16])[C:6]1([H:17])[H:18])([H:12])[H:13].[H:7][H:14]"
C       -2.31370300       0.01431192       0.21197708
C       -1.72192173      -1.06529386       0.86752533
C        0.55235551      -0.78759285       0.82052896
C        0.94933636       0.04009908      -0.22680440
C        2.16411691       0.24661794      -1.03563038
C        1.51774928       1.40913899      -0.30394480
H       -1.33073962       0.28657707      -1.17123464
H       -2.48670094       0.89177027       0.83750881
H       -3.03415400       0.10542201      -0.59051760
H       -2.00987943      -1.24550519       1.89883670
H       -1.59411296      -1.98975546       0.31264544
H        0.91548318      -1.81158403       0.80600120
H        0.51487295      -0.33842971       1.80902586
H       -0.29927562       0.17758028      -1.14334561
H        3.10944353      -0.11673947      -0.65093546
H        2.06248674       0.21230501      -2.11378481
H        0.99324615       2.15051442      -0.89523604
H        2.01139668       1.82056359       0.56738438
18
Frame=11 idx=000771 GeodesicLength=0.8747965576823112 rxn_smarts="[C:1]([C:2]([C:3]([C:4]1([H:14])[C:5]([H:15])([H:16])[C:6]1([H:17])[H:18])([H:12])[H:13])([H:10])[H:11])([H:7])([H:8])[H:9]>>[C:1](=[C:2]([H:10])[H:11])([H:8])[H:9].[C:3](=[C:4]1[C:5]([H:15])([H:16])[C:6]1([H:17])[H:18])([H:12])[H:13].[H:7][H:14]"
C       -2.29868852       0.03661354       0.23641464
C       -1.71643360      -1.06676783       0.86812105
C        0.54930432      -0.79647730       0.81214289
C        0.95050791       0.02488930      -0.24327240
C        2.18177247       0.24869385      -1.02157271
C        1.49471168       1.40469181      -0.31876510
H       -1.35339325       0.26292404      -1.19979768
H       -2.45420263       0.89619107       0.89218838
H       -3.02900147       0.18391622      -0.54848673
H       -2.03800611      -1.28508733       1.88259779
H       -1.59535050      -1.97558231       0.28550423
H        0.93578963      -1.81257491       0.81392501
H        0.51627715      -0.33375318       1.79512826
H       -0.29995491       0.13792033      -1.17491674
H        3.12444640      -0.09005834      -0.60890355
H        2.10653047       0.19927704      -2.10130272
H        0.96892598       2.12943000      -0.92929409
H        1.95676499       1.83575398       0.56028948
18
Frame=12 idx=000771 GeodesicLength=0.9540924929721601 rxn_smarts="[C:1]([C:2]([C:3]([C:4]1([H:14])[C:5]([H:15])([H:16])[C:6]1([H:17])[H:18])([H:12])[H:13])([H:10])[H:11])([H:7])([H:8])[H:9]>>[C:1](=[C:2]([H:10])[H:11])([H:8])[H:9].[C:3](=[C:4]1[C:5]([H:15])([H:16])[C:6]1([H:17])[H:18])([H:12])[H:13].[H:7][H:14]"
C       -2.28243168       0.05837918       0.26056330
C       -1.71095484      -1.06813415       0.86905349
C        0.54655940      -0.80552471       0.80403767
C        0.95199872       0.00946079      -0.25949933
C        2.19824465       0.25123117      -1.00763893
C        1.47192684       1.39954562      -0.33392119
H       -1.37735946       0.24041883      -1.22644586
H       -2.42407138       0.89784754       0.94638880
H       -3.01708850       0.26213665      -0.50738472
H       -2.06739258      -1.32262935       1.86391100
H       -1.59663661      -1.96084404       0.25971658
H        0.95614921      -1.81298642       0.82232127
H        0.51783417      -0.32913339       1.78123599
H       -0.30093183       0.09865892      -1.20487131
H        3.13720886      -0.06298413      -0.56791942
H        2.14915860       0.18752705      -2.08813377
H        0.94540502       2.10768158      -0.96310583
H        1.90238139       1.84934887       0.55169227
18
Frame=13 idx=000771 GeodesicLength=1.0334523896372092 rxn_smarts="[C:1]([C:2]([C:3]([C:4]1([H:14])[C:5]([H:15])([H:16])[C:6]1([H:17])[H:18])([H:12])[H:13])([H:10])[H:11])([H:7])([H:8])[H:9]>>[C:1](=[C:2]([H:10])[H:11])([H:8])[H:9].[C:3](=[C:4]1[C:5]([H:15])([H:16])[C:6]1([H:17])[H:18])([H:12])[H:13].[H:7][H:14]"
C       -2.26486241       0.07968768       0.28454402
C       -1.70537377      -1.06933917       0.87030384
C        0.54412754      -0.81472019       0.79614776
C        0.95378796      -0.00621303      -0.27550288
C        2.21353794       0.25417864      -0.99375706
C        1.44930028       1.39367509      -0.34938767
H       -1.40265591       0.21916943      -1.25116922
H       -2.39649022       0.89685335       1.00017216
H       -2.99845001       0.33996259      -0.46707299
H       -2.09782630      -1.35805165       1.84267474
H       -1.59786929      -1.94547768       0.23516155
H        0.97647432      -1.81280539       0.83100232
H        0.51960738      -0.32457172       1.76727597
H       -0.30219057       0.05962069      -1.23329922
H        3.14776407      -0.03541426      -0.52783998
H        2.19047183       0.17686231      -2.07422192
H        0.92257816       2.08515435      -0.99670025
H        1.84806899       1.86142897       0.54166883
18
Frame=14 idx=000771 GeodesicLength=1.11305901891 rxn_smarts="[C:1]([C:2]([C:3]([C:4]1([H:14])[C:5]([H:15])([H:16])[C:6]1([H:17])[H:18])([H:12])[H:13])([H:10])[H:11])([H:7])([H:8])[H:9]>>[C:1](=[C:2]([H:10])[H:11])([H:8])[H:9].[C:3](=[C:4]1[C:5]([H:15])([H:16])[C:6]1([H:17])[H:18])([H:12])[H:13].[H:7][H:14]"
C       -2.24616567       0.10049739       0.30843946
C       -1.69976270      -1.07045409       0.87199101
C        0.54203699      -0.82410043       0.78849683
C        0.95594549      -0.02209675      -0.29128367
C        2.22780349       0.25756776      -0.98001577
C        1.42693442       1.38714599      -0.36513626
H       -1.42939451       0.19920211      -1.27406960
H       -2.37201308       0.89324133       1.05347611
H       -2.97320461       0.41724125      -0.42765259
H       -2.12928632      -1.39118628       1.81906437
H       -1.59906334      -1.92957705       0.21191455
H        0.99685413      -1.81207609       0.84000923
H        0.52163882      -0.32015187       1.75329938
H       -0.30370336       0.02081174      -1.26032678
H        3.15633041      -0.00749141      -0.48876725
H        2.23055767       0.16744028      -2.05972989
H        0.90047367       2.06200103      -1.03003176
H        1.79401850       1.87198507       0.53032263
18
Frame=15 idx=000771 GeodesicLength=1.1929512963304123 rxn_smarts="[C:1]([C:2]([C:3]([C:4]1([H:14])[C:5]([H:15])([H:16])[C:6]1([H:17])[H:18])([H:12])[H:13])([H:10])[H:11])([H:7])([H:8])[H:9]>>[C:1](=[C:2]([H:10])[H:11])([H:8])[H:9].[C:3](=[C:4]1[C:5]([H:15])([H:16])[C:6]1([H:17])[H:18])([H:12])[H:13].[H:7][H:14]"
C       -2.22630430       0.12082563       0.33238670
C       -1.69407862      -1.07152242       0.87410749
C        0.54028894      -0.83365389       0.78106664
C        0.95846342      -0.03820714      -0.30685129
C        2.24106204       0.26137104      -0.96638297
C        1.40475516       1.37995211      -0.38117763
H       -1.45764515       0.18060706      -1.29511487
H       -2.35086298       0.88706027       1.10629420
H       -2.94120256       0.49402572      -0.38896665
H       -2.16162444      -1.42200746       1.79300649
H       -1.60013273      -1.91313041       0.18984339
H        1.01726964      -1.81077863       0.84928963
H        0.52391740      -0.31585051       1.73927223
H       -0.30546113      -0.01791538      -1.28603024
H        3.16295095       0.02083586      -0.45060386
H        2.26949531       0.15915403      -2.04464776
H        0.87900486       2.03815154      -1.06317466
H        1.74010420       1.88108261       0.51768317
18
Frame=16 idx=000771 GeodesicLength=1.2732043332462804 rxn_smarts="[C:1]([C:2]([C:3]([C:4]1([H:14])[C:5]([H:15])([H:16])[C:6]1([H:17])[H:18])([H:12])[H:13])([H:10])[H:11])([H:7])([H:8])[H:9]>>[C:1](=[C:2]([H:10])[H:11])([H:8])[H:9].[C:3](=[C:4]1[C:5]([H:15])([H:16])[C:6]1([H:17])[H:18])([H:12])[H:13].[H:7][H:14]"
C       -2.20528755       0.14065906       0.35650345
C       -1.68829951      -1.07258968       0.87666913
C        0.53889357      -0.84335427       0.77385934
C        0.96135658      -0.05453586      -0.32220519
C        2.25334917       0.26555560      -0.95287572
C        1.38277643       1.37209518      -0.39751586
H       -1.48749695       0.16354681      -1.31425394
H       -2.33364607       0.87825507       1.15855223
H       -2.90222563       0.57025369      -0.35090682
H       -2.19466136      -1.45043630       1.76448877
H       -1.60099844      -1.89612704       0.16886405
H        1.03773088      -1.80887483       0.85884304
H        0.52643499      -0.31163131       1.72518245
H       -0.30745250      -0.05661931      -1.31045791
H        3.16768909       0.04952000      -0.41335107
H        2.30730968       0.15194637      -2.02901947
H        0.85816798       2.01359547      -1.09615461
H        1.68635964       1.88874134       0.50377812
