14
Frame=0 idx=005585 GeodesicLength=0.0 rxn_smarts="[C:1]1([H:7])([H:8])[C@:2]2([H:9])[C:3]([H:10])([H:11])[C:4]([H:12])([H:13])[C@@:5]1([H:14])[O:6]2>>[C@@:1]12([H:8])[C@@:2]([H:9])([C:3]1([H:10])[H:11])[O:6][C@:5]2([C:4]([H:7])([H:12])[H:13])[H:14]"
C        1.05699455       0.45670963      -0.54798296
C        0.25576801       0.94725680       0.64365837
C       -1.18034130       0.93857123       0.40360084
C       -0.45622954      -1.16538678      -0.58675801
C        0.84371087      -0.87529474       0.14940894
O        0.59018134      -0.22919682       1.41703917
H       -0.37314386      -0.06137429      -1.16239354
H        2.02172659       0.85179329      -0.85625150
H        0.64479875       1.87513039       1.08284786
H       -1.84620193       0.82527468       1.25472738
H       -1.57722152       1.45580292      -0.46319454
H       -1.31100639      -1.59482831      -0.07303954
H       -0.24019860      -1.74361234      -1.48852188
H        1.57116307      -1.68084571       0.22685947
14
Frame=1 idx=005585 GeodesicLength=0.09159127990576664 rxn_smarts="[C:1]1([H:7])([H:8])[C@:2]2([H:9])[C:3]([H:10])([H:11])[C:4]([H:12])([H:13])[C@@:5]1([H:14])[O:6]2>>[C@@:1]12([H:8])[C@@:2]([H:9])([C:3]1([H:10])[H:11])[O:6][C@:5]2([C:4]([H:7])([H:12])[H:13])[H:14]"
C        1.04087016       0.46937337      -0.54286770
C        0.26577517       0.94721498       0.66821712
C       -1.16436671       0.93410497       0.39026826
C       -0.46480477      -1.16693165      -0.58316272
C        0.83878506      -0.87140210       0.14336071
O        0.58926672      -0.24371213       1.42033538
H       -0.36306333      -0.06272885      -1.19323785
H        2.00451383       0.86544978      -0.85224105
H        0.65186179       1.86796528       1.12247357
H       -1.83801767       0.87163040       1.24090082
H       -1.57759955       1.42677271      -0.48280050
H       -1.30435260      -1.61276728      -0.05749572
H       -0.25512885      -1.75584603      -1.47960979
H        1.57626073      -1.66912344       0.20585948
14
Frame=2 idx=005585 GeodesicLength=0.18317391999448607 rxn_smarts="[C:1]1([H:7])([H:8])[C@:2]2([H:9])[C:3]([H:10])([H:11])[C:4]([H:12])([H:13])[C@@:5]1([H:14])[O:6]2>>[C@@:1]12([H:8])[C@@:2]([H:9])([C:3]1([H:10])[H:11])[O:6][C@:5]2([C:4]([H:7])([H:12])[H:13])[H:14]"
C        1.02441989       0.48198410      -0.53750288
C        0.27554483       0.94685240       0.69254272
C       -1.14807913       0.93001213       0.37760216
C       -0.47357345      -1.16829829      -0.57954411
C        0.83357851      -0.86740612       0.13749327
O        0.58851218      -0.25786485       1.42345820
H       -0.35213710      -0.06448545      -1.22418715
H        1.98697185       0.87907144      -0.84799111
H        0.65873324       1.86030803       1.16158934
H       -1.82864011       0.91806777       1.22539636
H       -1.57852825       1.39677664      -0.50106592
H       -1.29737523      -1.63037904      -0.04214243
H       -0.27014173      -1.76749568      -1.47072580
H        1.58071451      -1.65714306       0.18507734
14
Frame=3 idx=005585 GeodesicLength=0.2747570418706805 rxn_smarts="[C:1]1([H:7])([H:8])[C@:2]2([H:9])[C:3]([H:10])([H:11])[C:4]([H:12])([H:13])[C@@:5]1([H:14])[O:6]2>>[C@@:1]12([H:8])[C@@:2]([H:9])([C:3]1([H:10])[H:11])[O:6][C@:5]2([C:4]([H:7])([H:12])[H:13])[H:14]"
C        1.00770939       0.49448476      -0.53191846
C        0.28504962       0.94619874       0.71651524
C       -1.13159832       0.92627902       0.36558806
C       -0.48252097      -1.16947970      -0.57592353
C        0.82808558      -0.86332335       0.13183263
O        0.58788065      -0.27159772       1.42640406
H       -0.34027296      -0.06657785      -1.25515403
H        1.96919070       0.89258430      -0.84347717
H        0.66537989       1.85220729       1.20006776
H       -1.81799592       0.96457359       1.20841063
H       -1.58010908       1.36573090      -0.51789745
H       -1.29008785      -1.64766129      -0.02707705
H       -0.28520901      -1.77846859      -1.46196601
H        1.58449828      -1.64495009       0.16459532
14
Frame=4 idx=005585 GeodesicLength=0.36635352834151674 rxn_smarts="[C:1]1([H:7])([H:8])[C@:2]2([H:9])[C:3]([H:10])([H:11])[C:4]([H:12])([H:13])[C@@:5]1([H:14])[O:6]2>>[C@@:1]12([H:8])[C@@:2]([H:9])([C:3]1([H:10])[H:11])[O:6][C@:5]2([C:4]([H:7])([H:12])[H:13])[H:14]"
C        0.99079767       0.50682097      -0.52615030
C        0.29425964       0.94528081       0.74002639
C       -1.11504926       0.92286537       0.35420846
C       -0.49162680      -1.17048736      -0.57231965
C        0.82230923      -0.85917377       0.12639871
O        0.58733113      -0.28486887       1.42917079
H       -0.32739623      -0.06894404      -1.28604723
H        1.95124893       0.90592288      -0.83868996
H        0.67175967       1.84370982       1.23779982
H       -1.80603584       1.01121500       1.19011262
H       -1.58241625       1.33357702      -0.53317291
H       -1.28249161      -1.66464883      -0.01238818
H       -0.30029675      -1.78868189      -1.45343542
H        1.58760646      -1.63258712       0.14448684
14
Frame=5 idx=005585 GeodesicLength=0.4579540961947285 rxn_smarts="[C:1]1([H:7])([H:8])[C@:2]2([H:9])[C:3]([H:10])([H:11])[C:4]([H:12])([H:13])[C@@:5]1([H:14])[O:6]2>>[C@@:1]12([H:8])[C@@:2]([H:9])([C:3]1([H:10])[H:11])[O:6][C@:5]2([C:4]([H:7])([H:12])[H:13])[H:14]"
C        0.97373357       0.51894728      -0.52024260
C        0.30314843       0.94413471       0.76297928
C       -1.09855908       0.91973338       0.34343670
C       -0.50087438      -1.17133716      -0.56874153
C        0.81625195      -0.85497568       0.12121083
O        0.58681938      -0.29763515       1.43176060
H       -0.31345758      -0.07152537      -1.31676738
H        1.93321450       0.91902812      -0.83363157
H        0.67782578       1.83486928       1.27468840
H       -1.79270065       1.05800764       1.17063933
H       -1.58547387       1.30030202      -0.54677067
H       -1.27458917      -1.68138991       0.00184523
H       -0.31537849      -1.79806551      -1.44523123
H        1.59003961      -1.62009365       0.12482462
14
Frame=6 idx=005585 GeodesicLength=0.5495754882128655 rxn_smarts="[C:1]1([H:7])([H:8])[C@:2]2([H:9])[C:3]([H:10])([H:11])[C:4]([H:12])([H:13])[C@@:5]1([H:14])[O:6]2>>[C@@:1]12([H:8])[C@@:2]([H:9])([C:3]1([H:10])[H:11])[O:6][C@:5]2([C:4]([H:7])([H:12])[H:13])[H:14]"
C        0.95655000       0.53082236      -0.51423412
C        0.31168689       0.94277854       0.78530216
C       -1.08225252       0.91679545       0.33329243
C       -0.51024315      -1.17206941      -0.56518337
C        0.80992594      -0.85075086       0.11627831
O        0.58632732      -0.30988001       1.43417796
H       -0.29844849      -0.07425376      -1.34721881
H        1.91512765       0.93186153      -0.82831720
H        0.68352736       1.82572175       1.31066338
H       -1.77795293       1.10504191       1.14997469
H       -1.58928172       1.26596469      -0.55852813
H       -1.26636148      -1.69796448       0.01557130
H       -0.33042555      -1.80656594      -1.43743160
H        1.59182069      -1.60750177       0.10565300
14
Frame=7 idx=005585 GeodesicLength=0.6412294355327036 rxn_smarts="[C:1]1([H:7])([H:8])[C@:2]2([H:9])[C:3]([H:10])([H:11])[C:4]([H:12])([H:13])[C@@:5]1([H:14])[O:6]2>>[C@@:1]12([H:8])[C@@:2]([H:9])([C:3]1([H:10])[H:11])[O:6][C@:5]2([C:4]([H:7])([H:12])[H:13])[H:14]"
C        0.93926641       0.54241548      -0.50816678
C        0.31985395       0.94123603       0.80694906
C       -1.06625046       0.91396583       0.32377866
C       -0.51971504      -1.17273082      -0.56162974
C        0.80335015      -0.84652135       0.11160587
O        0.58583105      -0.32160040       1.43643306
H       -0.28237079      -0.07706975      -1.37730364
H        1.89700992       0.94439743      -0.82277854
H        0.68881994       1.81630819       1.34568972
H       -1.76177270       1.15242384       1.12807774
H       -1.59380036       1.23064351      -0.56828811
H       -1.25778396      -1.71448425       0.02875236
H       -0.34542672      -1.81414486      -1.43012189
H        1.59298860      -1.59483889       0.08700225
14
Frame=8 idx=005585 GeodesicLength=0.732917587912388 rxn_smarts="[C:1]1([H:7])([H:8])[C@:2]2([H:9])[C:3]([H:10])([H:11])[C:4]([H:12])([H:13])[C@@:5]1([H:14])[O:6]2>>[C@@:1]12([H:8])[C@@:2]([H:9])([C:3]1([H:10])[H:11])[O:6][C@:5]2([C:4]([H:7])([H:12])[H:13])[H:14]"
C        0.92188692       0.55369926      -0.50207227
C        0.32763363       0.93951739       0.82789249
C       -1.05066614       0.91113021       0.31492703
C       -0.52927179      -1.17338019      -0.55805328
C        0.79654535      -0.84231207       0.10719277
O        0.58532741      -0.33280668       1.43854044
H       -0.26526446      -0.07990947      -1.40691800
H        1.87885811       0.95662494      -0.81704543
H        0.69365746       1.80665906       1.37974758
H       -1.74412647       1.20025990       1.10480208
H       -1.59898378       1.19448120      -0.57589534
H       -1.24881356      -1.73106537       0.04136395
H       -0.36037103      -1.82076898      -1.42336413
H        1.59358834      -1.58212921       0.06888210
14
Frame=9 idx=005585 GeodesicLength=0.8245831750694059 rxn_smarts="[C:1]1([H:7])([H:8])[C@:2]2([H:9])[C:3]([H:10])([H:11])[C:4]([H:12])([H:13])[C@@:5]1([H:14])[O:6]2>>[C@@:1]12([H:8])[C@@:2]([H:9])([C:3]1([H:10])[H:11])[O:6][C@:5]2([C:4]([H:7])([H:12])[H:13])[H:14]"
C        0.90442243       0.56466221      -0.49598693
C        0.33498103       0.93759241       0.84812140
C       -1.03558473       0.90813507       0.30678598
C       -0.53886546      -1.17409516      -0.55446614
C        0.78954911      -0.83814382       0.10301618
O        0.58483136      -0.34353925       1.44047857
H       -0.24722414      -0.08277457      -1.43603503
H        1.86067518       0.96856913      -0.81112857
H        0.69798177       1.79673398       1.41284413
H       -1.72511936       1.24889597       1.08015674
H       -1.60473585       1.15764061      -0.58126680
H       -1.23939019      -1.74783342       0.05338081
H       -0.37521589      -1.82646903      -1.41717255
H        1.59369475      -1.56937412       0.05127220
14
Frame=10 idx=005585 GeodesicLength=0.9162930519958707 rxn_smarts="[C:1]1([H:7])([H:8])[C@:2]2([H:9])[C:3]([H:10])([H:11])[C:4]([H:12])([H:13])[C@@:5]1([H:14])[O:6]2>>[C@@:1]12([H:8])[C@@:2]([H:9])([C:3]1([H:10])[H:11])[O:6][C@:5]2([C:4]([H:7])([H:12])[H:13])[H:14]"
C        0.88684384       0.57528502      -0.48991935
C        0.34190194       0.93550191       0.86765216
C       -1.02112628       0.90489481       0.29938361
C       -0.54852038      -1.17493260      -0.55076921
C        0.78237002      -0.83403723       0.09908742
O        0.58434919      -0.35380918       1.44229749
H       -0.22827015      -0.08553592      -1.46453090
H        1.84241293       0.98022326      -0.80508258
H        0.70174074       1.78661547       1.44500081
H       -1.70454768       1.29817734       1.05378745
H       -1.61099754       1.12033995      -0.58427718
H       -1.22946771      -1.76493270       0.06482286
H       -0.39002558      -1.83119093      -1.41162342
H        1.59333668      -1.55659919       0.03417084
14
Frame=11 idx=005585 GeodesicLength=1.008047084664867 rxn_smarts="[C:1]1([H:7])([H:8])[C@:2]2([H:9])[C:3]([H:10])([H:11])[C:4]([H:12])([H:13])[C@@:5]1([H:14])[O:6]2>>[C@@:1]12([H:8])[C@@:2]([H:9])([C:3]1([H:10])[H:11])[O:6][C@:5]2([C:4]([H:7])([H:12])[H:13])[H:14]"
C        0.86912906       0.58556156      -0.48387861
C        0.34839850       0.93325653       0.88651037
C       -1.00736741       0.90130982       0.29277030
C       -0.55824158      -1.17594187      -0.54690051
C        0.77502290      -0.83000713       0.09539997
O        0.58391730      -0.36364142       1.44401651
H       -0.20847096      -0.08810919      -1.49233536
H        1.82403228       0.99160323      -0.79893405
H        0.70489276       1.77633028       1.47625819
H       -1.68233529       1.34802779       1.02542508
H       -1.61768994       1.08281710      -0.58487397
H       -1.21899151      -1.78246879       0.07571307
H       -0.40484485      -1.83492549      -1.40671856
H        1.59254874      -1.54381239       0.01754756
14
Frame=12 idx=005585 GeodesicLength=1.0998443288060058 rxn_smarts="[C:1]1([H:7])([H:8])[C@:2]2([H:9])[C:3]([H:10])([H:11])[C:4]([H:12])([H:13])[C@@:5]1([H:14])[O:6]2>>[C@@:1]12([H:8])[C@@:2]([H:9])([C:3]1([H:10])[H:11])[O:6][C@:5]2([C:4]([H:7])([H:12])[H:13])[H:14]"
C        0.85125654       0.59549203      -0.47786072
C        0.35447970       0.93086926       0.90473964
C       -0.99436431       0.89729589       0.28700620
C       -0.56804396      -1.17716100      -0.54278363
C        0.76752068      -0.82606162       0.09194855
O        0.58358746      -0.37306221       1.44565599
H       -0.18790350      -0.09041919      -1.51939348
H        1.80549046       1.00273093      -0.79270153
H        0.70740277       1.76590848       1.50667304
H       -1.65838780       1.39829628       0.99473694
H       -1.62474598       1.04531508      -0.58301356
H       -1.20790549      -1.80054091       0.08607564
H       -0.41974338      -1.83764769      -1.40244507
H        1.59135680      -1.53101533       0.00136198
14
Frame=13 idx=005585 GeodesicLength=1.1916409219460298 rxn_smarts="[C:1]1([H:7])([H:8])[C@:2]2([H:9])[C:3]([H:10])([H:11])[C:4]([H:12])([H:13])[C@@:5]1([H:14])[O:6]2>>[C@@:1]12([H:8])[C@@:2]([H:9])([C:3]1([H:10])[H:11])[O:6][C@:5]2([C:4]([H:7])([H:12])[H:13])[H:14]"
C        0.83321346       0.60508546      -0.47185720
C        0.36015262       0.92832953       0.92238178
C       -0.98216374       0.89274040       0.28216661
C       -0.57793134      -1.17862943      -0.53835697
C        0.75988317      -0.82221147       0.08871409
O        0.58342432      -0.38211082       1.44722670
H       -0.16664918      -0.09240592      -1.54567021
H        1.78675737       1.01364753      -0.78638813
H        0.70923732       1.75533604       1.53631025
H       -1.63268620       1.44894338       0.96144931
H       -1.63211152       1.00804996      -0.57870903
H       -1.19612880      -1.81922506       0.09593515
H       -0.43479416      -1.83933385      -1.39875180
H        1.58979667      -1.51821575      -0.01445056
14
Frame=14 idx=005585 GeodesicLength=1.2834803542214792 rxn_smarts="[C:1]1([H:7])([H:8])[C@:2]2([H:9])[C:3]([H:10])([H:11])[C:4]([H:12])([H:13])[C@@:5]1([H:14])[O:6]2>>[C@@:1]12([H:8])[C@@:2]([H:9])([C:3]1([H:10])[H:11])[O:6][C@:5]2([C:4]([H:7])([H:12])[H:13])[H:14]"
C        0.81498218       0.61434566      -0.46585418
C        0.36547392       0.92569556       0.93948491
C       -0.97077734       0.88768405       0.27827797
C       -0.58796700      -1.18032889      -0.53349896
C        0.75209388      -0.81844724       0.08571366
O        0.58349324      -0.39077525       1.44876502
H       -0.14472320      -0.09395295      -1.57111904
H        1.76780076       1.02435096      -0.78001849
H        0.71035786       1.74471276       1.56523118
H       -1.60505940       1.49933346       0.92520998
H       -1.63973973       0.97130339      -0.57198855
H       -1.18364020      -1.83856467       0.10534121
H       -0.45012911      -1.83993794      -1.39562789
H        1.58783413      -1.50541891      -0.02991683
14
Frame=15 idx=005585 GeodesicLength=1.3753474960356118 rxn_smarts="[C:1]1([H:7])([H:8])[C@:2]2([H:9])[C:3]([H:10])([H:11])[C:4]([H:12])([H:13])[C@@:5]1([H:14])[O:6]2>>[C@@:1]12([H:8])[C@@:2]([H:9])([C:3]1([H:10])[H:11])[O:6][C@:5]2([C:4]([H:7])([H:12])[H:13])[H:14]"
C        0.79658583       0.62327929      -0.45985012
C        0.37049946       0.92302427       0.95606515
C       -0.96018218       0.88216217       0.27533599
C       -0.59819845      -1.18222695      -0.52812231
C        0.74414280      -0.81476003       0.08295289
O        0.58385840      -0.39903134       1.45028693
H       -0.12211922      -0.09499308      -1.59573914
H        1.74864628       1.03483393      -0.77360507
H        0.71074023       1.73411648       1.59346271
H       -1.57552757       1.54884198       0.88591066
H       -1.64757928       0.93534245      -0.56296086
H       -1.17042470      -1.85853686       0.11432638
H       -0.46587899      -1.83940434      -1.39300127
H        1.58543738      -1.49264796      -0.04506194
14
Frame=16 idx=005585 GeodesicLength=1.46722840093754 rxn_smarts="[C:1]1([H:7])([H:8])[C@:2]2([H:9])[C:3]([H:10])([H:11])[C:4]([H:12])([H:13])[C@@:5]1([H:14])[O:6]2>>[C@@:1]12([H:8])[C@@:2]([H:9])([C:3]1([H:10])[H:11])[O:6][C@:5]2([C:4]([H:7])([H:12])[H:13])[H:14]"
C        0.77808668       0.63189236      -0.45386324
C        0.37530970       0.92040171       0.97211214
C       -0.95031390       0.87627207       0.27328926
C       -0.60868671      -1.18425475      -0.52213678
C        0.73601272      -0.81113551       0.08044552
O        0.58457647      -0.40681778       1.45180683
H       -0.09877810      -0.09547808      -1.61955355
H        1.72937396       1.04506075      -0.76717514
H        0.71036915       1.72366708       1.62099867
H       -1.54423535       1.59659912       0.84361248
H       -1.65556754       0.90046250      -0.55178022
H       -1.15649837      -1.87905949       0.12291709
H       -0.48219931      -1.83766011      -1.39078736
H        1.58255060      -1.47994987      -0.05988572
