14
Frame=0 idx=009489 GeodesicLength=0.0 rxn_smarts="[C:1]([N:2]([c:3]1[n:4][n:5]([H:12])[c:6]([H:13])[c:7]1[H:14])[H:11])([H:8])([H:9])[H:10]>>[C:1]([N:2]([C:3]1=[C:7]=[C:6]([H:13])[N:5]([H:12])[N:4]1[H:14])[H:11])([H:8])([H:9])[H:10]"
C        2.25138122       0.15058932       0.42755256
N        1.12133312       0.71675143      -0.28117059
C       -0.11030916       0.13040057      -0.12146405
N       -1.08952694       0.39758138      -1.13897677
N       -2.20452122       0.06100868      -0.53387650
C       -1.98720666      -0.46849213       0.72183656
C       -0.65802655      -0.46893329       1.06777861
H        1.94150638      -0.06518846       1.44823803
H        2.61713147      -0.78041724      -0.02251593
H        3.06311305       0.87744959       0.44521049
H        1.30385807       1.05486878      -1.21218558
H       -3.03288684      -0.03273748      -1.10045189
H       -2.85358414      -0.80376305       1.27694979
H       -0.36226178      -0.76911813      -0.97692477
14
Frame=1 idx=009489 GeodesicLength=0.09589630599599495 rxn_smarts="[C:1]([N:2]([c:3]1[n:4][n:5]([H:12])[c:6]([H:13])[c:7]1[H:14])[H:11])([H:8])([H:9])[H:10]>>[C:1]([N:2]([C:3]1=[C:7]=[C:6]([H:13])[N:5]([H:12])[N:4]1[H:14])[H:11])([H:8])([H:9])[H:10]"
C        2.25378770       0.15573040       0.42818046
N        1.12498093       0.70516434      -0.29288929
C       -0.11214224       0.13817631      -0.12316698
N       -1.08377471       0.36948701      -1.14798650
N       -2.20729489       0.06489130      -0.53446675
C       -1.99215180      -0.44589734       0.72816269
C       -0.65746192      -0.49100194       1.04931693
H        1.93720796      -0.10395601       1.43646108
H        2.65937012      -0.74702400      -0.04386429
H        3.04010015       0.90847604       0.48821449
H        1.30621560       1.05092432      -1.22094458
H       -3.04537039      -0.00005706      -1.08994451
H       -2.85649289      -0.78729952       1.28257937
H       -0.36697362      -0.81761384      -0.95965213
14
Frame=2 idx=009489 GeodesicLength=0.19170637303448998 rxn_smarts="[C:1]([N:2]([c:3]1[n:4][n:5]([H:12])[c:6]([H:13])[c:7]1[H:14])[H:11])([H:8])([H:9])[H:10]>>[C:1]([N:2]([C:3]1=[C:7]=[C:6]([H:13])[N:5]([H:12])[N:4]1[H:14])[H:11])([H:8])([H:9])[H:10]"
C        2.25588400       0.16050499       0.42859154
N        1.12865051       0.69243371      -0.30537752
C       -0.11394429       0.14538954      -0.12523961
N       -1.07829635       0.34120116      -1.15609777
N       -2.20987432       0.06819801      -0.53504667
C       -1.99607104      -0.42491383       0.73380181
C       -0.65765260      -0.50972379       1.03171836
H        1.93380999      -0.14486932       1.42220771
H        2.70300967      -0.71046249      -0.06435997
H        3.01339401       0.93826663       0.53279869
H        1.30845828       1.04662023      -1.23012709
H       -3.05638925       0.03377478      -1.07960241
H       -2.85863899      -0.77016644       1.28852383
H       -0.37233961      -0.86625319      -0.94179091
14
Frame=3 idx=009489 GeodesicLength=0.2875575486344061 rxn_smarts="[C:1]([N:2]([c:3]1[n:4][n:5]([H:12])[c:6]([H:13])[c:7]1[H:14])[H:11])([H:8])([H:9])[H:10]>>[C:1]([N:2]([C:3]1=[C:7]=[C:6]([H:13])[N:5]([H:12])[N:4]1[H:14])[H:11])([H:8])([H:9])[H:10]"
C        2.25770370       0.16489864       0.42871144
N        1.13236808       0.67855384      -0.31860062
C       -0.11571478       0.15234827      -0.12758673
N       -1.07301177       0.31259311      -1.16336968
N       -2.21221821       0.07086320      -0.53572726
C       -1.99912741      -0.40541780       0.73877016
C       -0.65832733      -0.52542905       1.01503059
H        1.93158650      -0.18794647       1.40512670
H        2.74783140      -0.67042035      -0.08385406
H        2.98273575       0.96650146       0.57885489
H        1.31053161       1.04209769      -1.23959202
H       -3.06576195       0.06873425      -1.06954636
H       -2.86020196      -0.75219227       1.29483226
H       -0.37839363      -0.91518452      -0.92304933
14
Frame=4 idx=009489 GeodesicLength=0.3834992600475642 rxn_smarts="[C:1]([N:2]([c:3]1[n:4][n:5]([H:12])[c:6]([H:13])[c:7]1[H:14])[H:11])([H:8])([H:9])[H:10]>>[C:1]([N:2]([C:3]1=[C:7]=[C:6]([H:13])[N:5]([H:12])[N:4]1[H:14])[H:11])([H:8])([H:9])[H:10]"
C        2.25922599       0.16892394       0.42854294
N        1.13616881       0.66344953      -0.33262705
C       -0.11744191       0.15934702      -0.13021534
N       -1.06789672       0.28374691      -1.16980034
N       -2.21433155       0.07300963      -0.53649892
C       -2.00139461      -0.38711487       0.74316934
C       -0.65922855      -0.53838144       0.99913885
H        1.93072656      -0.23271868       1.38503218
H        2.79340815      -0.62681207      -0.10175944
H        2.94798616       0.99267896       0.62602838
H        1.31246918       1.03727085      -1.24936102
H       -3.07336815       0.10490084      -1.05972728
H       -2.86108345      -0.73390481       1.30133181
H       -0.38523992      -0.96439580      -0.90325410
14
Frame=5 idx=009489 GeodesicLength=0.47913746344883745 rxn_smarts="[C:1]([N:2]([c:3]1[n:4][n:5]([H:12])[c:6]([H:13])[c:7]1[H:14])[H:11])([H:8])([H:9])[H:10]>>[C:1]([N:2]([C:3]1=[C:7]=[C:6]([H:13])[N:5]([H:12])[N:4]1[H:14])[H:11])([H:8])([H:9])[H:10]"
C        2.26042336       0.17261141       0.42797135
N        1.14004064       0.64708762      -0.34758074
C       -0.11911476       0.16629471      -0.13321829
N       -1.06282612       0.25400586      -1.17560918
N       -2.21621551       0.07438243      -0.53751951
C       -2.00307528      -0.36926680       0.74723261
C       -0.66032797      -0.54842042       0.98429874
H        1.93128625      -0.28016392       1.36125260
H        2.84019779      -0.57842458      -0.11868701
H        2.90874342       1.01620089       0.67508968
H        1.31426359       1.03266736      -1.25940575
H       -3.07904443       0.14210774      -1.05029138
H       -2.86153873      -0.71476950       1.30814065
H       -0.39281224      -1.01431280      -0.88167377
14
Frame=6 idx=009489 GeodesicLength=0.5749261480056669 rxn_smarts="[C:1]([N:2]([c:3]1[n:4][n:5]([H:12])[c:6]([H:13])[c:7]1[H:14])[H:11])([H:8])([H:9])[H:10]>>[C:1]([N:2]([C:3]1=[C:7]=[C:6]([H:13])[N:5]([H:12])[N:4]1[H:14])[H:11])([H:8])([H:9])[H:10]"
C        2.26124874       0.17594855       0.42709198
N        1.14405499       0.62941888      -0.36349040
C       -0.12068974       0.17365158      -0.13660464
N       -1.05785590       0.22408676      -1.18057250
N       -2.21786200       0.07530524      -0.53862774
C       -2.00400384      -0.35208271       0.75091515
C       -0.66123727      -0.55634722       0.97001925
H        1.93344752      -0.32860049       1.33402193
H        2.88688490      -0.52613399      -0.13314212
H        2.86515039       1.03654357       0.72480624
H        1.31602595       1.02798521      -1.26969034
H       -3.08263589       0.18027312      -1.04105886
H       -2.86117690      -0.69554144       1.31511059
H       -0.40135096      -1.06450704      -0.85877854
14
Frame=7 idx=009489 GeodesicLength=0.670978690773725 rxn_smarts="[C:1]([N:2]([c:3]1[n:4][n:5]([H:12])[c:6]([H:13])[c:7]1[H:14])[H:11])([H:8])([H:9])[H:10]>>[C:1]([N:2]([C:3]1=[C:7]=[C:6]([H:13])[N:5]([H:12])[N:4]1[H:14])[H:11])([H:8])([H:9])[H:10]"
C        2.26169977       0.17898532       0.42584383
N        1.14821881       0.61047524      -0.38038975
C       -0.12212926       0.18154130      -0.14037631
N       -1.05287388       0.19385382      -1.18472050
N       -2.21921867       0.07570007      -0.53985497
C       -2.00420781      -0.33541976       0.75427997
C       -0.66177518      -0.56240747       0.95631927
H        1.93733418      -0.37774806       1.30320802
H        2.93296211      -0.46990886      -0.14496474
H        2.81709097       1.05326549       0.77496506
H        1.31776845       1.02351727      -1.28009525
H       -3.08394774       0.21940928      -1.03208222
H       -2.86002248      -0.67612744       1.32225353
H       -0.41089927      -1.11513620      -0.83438594
14
Frame=8 idx=009489 GeodesicLength=0.7673152727067621 rxn_smarts="[C:1]([N:2]([c:3]1[n:4][n:5]([H:12])[c:6]([H:13])[c:7]1[H:14])[H:11])([H:8])([H:9])[H:10]>>[C:1]([N:2]([C:3]1=[C:7]=[C:6]([H:13])[N:5]([H:12])[N:4]1[H:14])[H:11])([H:8])([H:9])[H:10]"
C        2.26165887       0.18175447       0.42434622
N        1.15252640       0.59044256      -0.39819439
C       -0.12339012       0.19018697      -0.14457968
N       -1.04787566       0.16385062      -1.18797038
N       -2.22029238       0.07583987      -0.54107914
C       -2.00355951      -0.31934619       0.75734739
C       -0.66174735      -0.56712331       0.94280122
H        1.94294672      -0.42622077       1.26925470
H        2.97714264      -0.41065728      -0.15337290
H        2.76529867       1.06574500       0.82454080
H        1.31959215       1.01942368      -1.29044306
H       -3.08287879       0.25885596      -1.02330862
H       -2.85783097      -0.65687318       1.32953121
H       -0.42159068      -1.16587841      -0.80887338
14
Frame=9 idx=009489 GeodesicLength=0.8635923109656025 rxn_smarts="[C:1]([N:2]([c:3]1[n:4][n:5]([H:12])[c:6]([H:13])[c:7]1[H:14])[H:11])([H:8])([H:9])[H:10]>>[C:1]([N:2]([C:3]1=[C:7]=[C:6]([H:13])[N:5]([H:12])[N:4]1[H:14])[H:11])([H:8])([H:9])[H:10]"
C        2.26102989       0.18432890       0.42258256
N        1.15686770       0.56954084      -0.41676086
C       -0.12447819       0.19936967      -0.14924226
N       -1.04276616       0.13372510      -1.19045050
N       -2.22107474       0.07550038      -0.54241478
C       -2.00216425      -0.30361551       0.76013840
C       -0.66120537      -0.57072135       0.92951214
H        1.95021122      -0.47403680       1.23216697
H        3.01935555      -0.34786378      -0.15858072
H        2.71059420       1.07347170       0.87331714
H        1.32144168       1.01607485      -1.30045006
H       -3.07943676       0.29852960      -1.01486854
H       -2.85493361      -0.63735849       1.33704104
H       -0.43344116      -1.21694512      -0.78199054
14
Frame=10 idx=009489 GeodesicLength=0.960182746963168 rxn_smarts="[C:1]([N:2]([c:3]1[n:4][n:5]([H:12])[c:6]([H:13])[c:7]1[H:14])[H:11])([H:8])([H:9])[H:10]>>[C:1]([N:2]([C:3]1=[C:7]=[C:6]([H:13])[N:5]([H:12])[N:4]1[H:14])[H:11])([H:8])([H:9])[H:10]"
C        2.25981560       0.18666566       0.42059505
N        1.16121664       0.54839569      -0.43567678
C       -0.12534080       0.20966628      -0.15418939
N       -1.03746361       0.10446740      -1.19195257
N       -2.22150654       0.07536391      -0.54361177
C       -1.99985098      -0.28847485       0.76263358
C       -0.65992397      -0.57356233       0.91606420
H        1.95903674      -0.51946752       1.19301071
H        3.05763128      -0.28388632      -0.16025894
H        2.65401755       1.07637501       0.91997758
H        1.32348816       1.01357769      -1.30982201
H       -3.07367683       0.33689677      -1.00698532
H       -2.85085595      -0.61821174       1.34456112
H       -0.44658728      -1.26780564      -0.75434546
14
Frame=11 idx=009489 GeodesicLength=1.0569680866067512 rxn_smarts="[C:1]([N:2]([c:3]1[n:4][n:5]([H:12])[c:6]([H:13])[c:7]1[H:14])[H:11])([H:8])([H:9])[H:10]>>[C:1]([N:2]([C:3]1=[C:7]=[C:6]([H:13])[N:5]([H:12])[N:4]1[H:14])[H:11])([H:8])([H:9])[H:10]"
C        2.25801142       0.18887418       0.41842632
N        1.16543900       0.52766214      -0.45448866
C       -0.12599550       0.22117373      -0.15927261
N       -1.03183090       0.07622789      -1.19247484
N       -2.22152474       0.07539315      -0.54471147
C       -1.99666410      -0.27408886       0.76478029
C       -0.65788873      -0.57590719       0.90234389
H        1.96916341      -0.56170303       1.15269730
H        3.09114766      -0.21991229      -0.15884642
H        2.59691631       1.07467139       0.96380464
H        1.32573930       1.01194309      -1.31834171
H       -3.06582047       0.37380984      -0.99975715
H       -2.84566600      -0.59973471       1.35188747
H       -0.46102665      -1.31840933      -0.72604705
14
Frame=12 idx=009489 GeodesicLength=1.1538470768577485 rxn_smarts="[C:1]([N:2]([c:3]1[n:4][n:5]([H:12])[c:6]([H:13])[c:7]1[H:14])[H:11])([H:8])([H:9])[H:10]>>[C:1]([N:2]([C:3]1=[C:7]=[C:6]([H:13])[N:5]([H:12])[N:4]1[H:14])[H:11])([H:8])([H:9])[H:10]"
C        2.25562860       0.19097369       0.41612062
N        1.16936395       0.50820905      -0.47263063
C       -0.12649661       0.23411275      -0.16430189
N       -1.02575565       0.04939376      -1.19196449
N       -2.22110564       0.07580727      -0.54570104
C       -1.99266662      -0.26045474       0.76656202
C       -0.65513862      -0.57789879       0.88821006
H        1.98030149      -0.60023651       1.11195485
H        3.11926137      -0.15719026      -0.15490840
H        2.54084150       1.06852733       1.00436536
H        1.32821861       1.01119457      -1.32585401
H       -3.05619756       0.40819923      -0.99351639
H       -2.83940735      -0.58209497       1.35885488
H       -0.47684748      -1.36854237      -0.69719092
14
Frame=13 idx=009489 GeodesicLength=1.2505686854416778 rxn_smarts="[C:1]([N:2]([c:3]1[n:4][n:5]([H:12])[c:6]([H:13])[c:7]1[H:14])[H:11])([H:8])([H:9])[H:10]>>[C:1]([N:2]([C:3]1=[C:7]=[C:6]([H:13])[N:5]([H:12])[N:4]1[H:14])[H:11])([H:8])([H:9])[H:10]"
C        2.25274044       0.19285236       0.41360246
N        1.17277459       0.49074224      -0.48965266
C       -0.12696821       0.24842966      -0.16917898
N       -1.01910643       0.02353831      -1.19047865
N       -2.22023258       0.07633801      -0.54681076
C       -1.98810141      -0.24719310       0.76795829
C       -0.65188394      -0.57928150       0.87385975
H        1.99217478      -0.63619692       1.07024766
H        3.14296152      -0.09487464      -0.14927280
H        2.48661461       1.05784398       1.04229442
H        1.33083523       1.01126151      -1.33237681
H       -3.04524622       0.43977085      -0.98867565
H       -2.83254208      -0.56484052       1.36548439
H       -0.49402028      -1.41839025      -0.66700067
14
Frame=14 idx=009489 GeodesicLength=1.3472397869020745 rxn_smarts="[C:1]([N:2]([c:3]1[n:4][n:5]([H:12])[c:6]([H:13])[c:7]1[H:14])[H:11])([H:8])([H:9])[H:10]>>[C:1]([N:2]([C:3]1=[C:7]=[C:6]([H:13])[N:5]([H:12])[N:4]1[H:14])[H:11])([H:8])([H:9])[H:10]"
C        2.24946878       0.19467345       0.41095638
N        1.17567721       0.47575039      -0.50536730
C       -0.12743142       0.26427984      -0.17386844
N       -1.01177090      -0.00096912      -1.18804203
N       -2.21886091       0.07700599      -0.54803755
C       -1.98292815      -0.23459597       0.76895882
C       -0.64803191      -0.58024501       0.85910069
H        2.00459877      -0.66877760       1.02837179
H        3.16161523      -0.03467559      -0.14227495
H        2.43474672       1.04330641       1.07751637
H        1.33369317       1.01206706      -1.33813429
H       -3.03319949       0.46851098      -0.98511857
H       -2.82485472      -0.54843745       1.37162875
H       -0.51272239      -1.46789337      -0.63568965
14
Frame=15 idx=009489 GeodesicLength=1.4438129890879716 rxn_smarts="[C:1]([N:2]([c:3]1[n:4][n:5]([H:12])[c:6]([H:13])[c:7]1[H:14])[H:11])([H:8])([H:9])[H:10]>>[C:1]([N:2]([C:3]1=[C:7]=[C:6]([H:13])[N:5]([H:12])[N:4]1[H:14])[H:11])([H:8])([H:9])[H:10]"
C        2.24593662       0.19644859       0.40821810
N        1.17807012       0.46338319      -0.51975267
C       -0.12791217       0.28151750      -0.17843230
N       -1.00365467      -0.02429037      -1.18477646
N       -2.21697399       0.07765685      -0.54950016
C       -1.97723720      -0.22253383       0.76956594
C       -0.64363732      -0.58082546       0.84391133
H        2.01740609      -0.69845639       0.98617989
H        3.17599800       0.02354604      -0.13429633
H        2.38533075       1.02524450       1.11049496
H        1.33677605       1.01371699      -1.34322593
H       -3.02034670       0.49453848      -0.98286152
H       -2.81654424      -0.53271877       1.37734844
H       -0.53321133      -1.51722733      -0.60287328
14
Frame=16 idx=009489 GeodesicLength=1.5402767328504399 rxn_smarts="[C:1]([N:2]([c:3]1[n:4][n:5]([H:12])[c:6]([H:13])[c:7]1[H:14])[H:11])([H:8])([H:9])[H:10]>>[C:1]([N:2]([C:3]1=[C:7]=[C:6]([H:13])[N:5]([H:12])[N:4]1[H:14])[H:11])([H:8])([H:9])[H:10]"
C        2.24221933       0.19817622       0.40544086
N        1.18001149       0.45348553      -0.53296072
C       -0.12840489       0.29986960      -0.18299401
N       -0.99475065      -0.04648865      -1.18083429
N       -2.21457307       0.07828043      -0.55123953
C       -1.97104705      -0.21096089       0.76979105
C       -0.63874077      -0.58128455       0.82814126
H        2.03049493      -0.72547127       0.94365630
H        3.18687712       0.08004619      -0.12524084
H        2.33836736       1.00402940       1.14138106
H        1.34008142       1.01632735      -1.34773834
H       -3.00692644       0.51808473      -0.98178591
H       -2.80768469      -0.51755286       1.38274770
H       -0.55592409      -1.56654123      -0.56836458
