14
Frame=0 idx=010558 GeodesicLength=0.0 rxn_smarts="[C:1]([C@@:2]1([C:5](=[O:6])[N:7]([H:13])[H:14])[C:3]([H:11])([H:12])[O:4]1)([H:8])([H:9])[H:10]>>[C:1]([H:8])([H:9])([H:10])[H:13].[C@:2]12([C:3]([H:11])([H:12])[O:4]1)/[C:5](=[N:7]/[H:14])[O:6]2"
C        0.49873230      -1.47753318      -0.38603292
C        0.07055770       0.61244718      -0.14758336
C        1.32926419       1.29873897       0.03162742
O        0.54860917       1.19976932      -1.20404120
C       -1.35151547       0.71485622       0.44520541
O       -1.61654499       1.88857752       0.69766650
N       -1.88184547      -0.45777195       0.54217951
H        0.73217266      -1.34512616      -1.43802331
H        1.37705077      -1.38969125       0.24656430
H        0.12317082      -2.49995135      -0.24907680
H        1.31162927       2.28409514       0.48078039
H        2.25730216       0.74317928       0.01767931
H       -0.59197961      -1.09337144       0.01531908
H       -2.80660352      -0.47821829       0.94773566
14
Frame=1 idx=010558 GeodesicLength=0.1273640873018334 rxn_smarts="[C:1]([C@@:2]1([C:5](=[O:6])[N:7]([H:13])[H:14])[C:3]([H:11])([H:12])[O:4]1)([H:8])([H:9])[H:10]>>[C:1]([H:8])([H:9])([H:10])[H:13].[C@:2]12([C:3]([H:11])([H:12])[O:4]1)/[C:5](=[N:7]/[H:14])[O:6]2"
C        0.50845826      -1.48001866      -0.36894638
C        0.06822637       0.61237403      -0.12301264
C        1.32356871       1.31717421      -0.00357677
O        0.50408284       1.19306845      -1.20894750
C       -1.34605173       0.70682325       0.47401311
O       -1.55092030       1.87193737       0.81621524
N       -1.90761392      -0.45430207       0.51930160
H        0.81477465      -1.34318670      -1.40229939
H        1.36631029      -1.43101722       0.29560871
H        0.11257543      -2.50210372      -0.30854551
H        1.31808602       2.31430268       0.41962192
H        2.25716735       0.77145653      -0.03604007
H       -0.60407366      -1.12199276       0.08440744
H       -2.86459030      -0.45451538       0.84220024
14
Frame=2 idx=010558 GeodesicLength=0.2540339816926927 rxn_smarts="[C:1]([C@@:2]1([C:5](=[O:6])[N:7]([H:13])[H:14])[C:3]([H:11])([H:12])[O:4]1)([H:8])([H:9])[H:10]>>[C:1]([H:8])([H:9])([H:10])[H:13].[C@:2]12([C:3]([H:11])([H:12])[O:4]1)/[C:5](=[N:7]/[H:14])[O:6]2"
C        0.51609909      -1.48177103      -0.35300410
C        0.06699847       0.61271578      -0.09911407
C        1.31587803       1.33565430      -0.03819486
O        0.46072529       1.18525718      -1.21284997
C       -1.34003282       0.69873112       0.50092586
O       -1.48558666       1.84666483       0.92783386
N       -1.92677318      -0.45064111       0.50490207
H        0.89775261      -1.34007995      -1.36120712
H        1.35059637      -1.47633606       0.34288397
H        0.09836428      -2.49645627      -0.37173644
H        1.31881632       2.34375910       0.35848645
H        2.25442585       0.79957799      -0.08737900
H       -0.61745266      -1.15068713       0.15372877
H       -2.90981099      -0.42638873       0.73472458
14
Frame=3 idx=010558 GeodesicLength=0.3812113778049633 rxn_smarts="[C:1]([C@@:2]1([C:5](=[O:6])[N:7]([H:13])[H:14])[C:3]([H:11])([H:12])[O:4]1)([H:8])([H:9])[H:10]>>[C:1]([H:8])([H:9])([H:10])[H:13].[C@:2]12([C:3]([H:11])([H:12])[O:4]1)/[C:5](=[N:7]/[H:14])[O:6]2"
C        0.52315837      -1.48319322      -0.33806771
C        0.06683271       0.61324384      -0.07671323
C        1.30625017       1.35453316      -0.07178745
O        0.41984369       1.17613125      -1.21639058
C       -1.33357471       0.69057380       0.52567140
O       -1.42039858       1.81494291       1.03030072
N       -1.94245295      -0.44701904       0.49560001
H        0.98262856      -1.33741082      -1.31376741
H        1.32934090      -1.52616068       0.38978946
H        0.08162479      -2.48265357      -0.43856795
H        1.31327345       2.37296880       0.29813856
H        2.24982260       0.82849246      -0.13465510
H       -0.63515966      -1.17989168       0.21463572
H       -2.94118937      -0.39455720       0.63581356
14
Frame=4 idx=010558 GeodesicLength=0.5080481469970839 rxn_smarts="[C:1]([C@@:2]1([C:5](=[O:6])[N:7]([H:13])[H:14])[C:3]([H:11])([H:12])[O:4]1)([H:8])([H:9])[H:10]>>[C:1]([H:8])([H:9])([H:10])[H:13].[C@:2]12([C:3]([H:11])([H:12])[O:4]1)/[C:5](=[N:7]/[H:14])[O:6]2"
C        0.53001608      -1.48441391      -0.32336721
C        0.06785093       0.61393230      -0.05529069
C        1.29508922       1.37337440      -0.10486252
O        0.38072916       1.16560841      -1.21947459
C       -1.32567797       0.68281009       0.54998162
O       -1.35555793       1.77881298       1.12403917
N       -1.95528048      -0.44246517       0.49187463
H        1.06760535      -1.33442253      -1.25881580
H        1.30169117      -1.58020667       0.43673041
H        0.06557829      -2.46059435      -0.50914099
H        1.30271248       2.40131473       0.23833317
H        2.24369403       0.85781489      -0.18000479
H       -0.65777454      -1.20990538       0.26680234
H       -2.96067577      -0.36165977       0.54319525
14
Frame=5 idx=010558 GeodesicLength=0.6352535373970059 rxn_smarts="[C:1]([C@@:2]1([C:5](=[O:6])[N:7]([H:13])[H:14])[C:3]([H:11])([H:12])[O:4]1)([H:8])([H:9])[H:10]>>[C:1]([H:8])([H:9])([H:10])[H:13].[C@:2]12([C:3]([H:11])([H:12])[O:4]1)/[C:5](=[N:7]/[H:14])[O:6]2"
C        0.53809536      -1.48540999      -0.30774782
C        0.06994649       0.61436667      -0.03484084
C        1.28188479       1.39244777      -0.13812230
O        0.34246393       1.15326820      -1.22239146
C       -1.31587562       0.67414365       0.57535679
O       -1.28860903       1.73731656       1.21248542
N       -1.96717378      -0.43708084       0.48935220
H        1.15140765      -1.33260451      -1.19611567
H        1.26941318      -1.63882187       0.48267765
H        0.05192512      -2.42942127      -0.58086857
H        1.28618836       2.42906002       0.17845873
H        2.23596688       0.88871010      -0.22420310
H       -0.68532420      -1.24135754       0.31031480
H       -2.97030912      -0.32461695       0.45564418
14
Frame=6 idx=010558 GeodesicLength=0.7626235941107687 rxn_smarts="[C:1]([C@@:2]1([C:5](=[O:6])[N:7]([H:13])[H:14])[C:3]([H:11])([H:12])[O:4]1)([H:8])([H:9])[H:10]>>[C:1]([H:8])([H:9])([H:10])[H:13].[C@:2]12([C:3]([H:11])([H:12])[O:4]1)/[C:5](=[N:7]/[H:14])[O:6]2"
C        0.54717706      -1.48651424      -0.29100007
C        0.07312483       0.61479769      -0.01553986
C        1.26725411       1.41136200      -0.17134102
O        0.30556694       1.13956926      -1.22514419
C       -1.30450459       0.66529572       0.60088028
O       -1.22088870       1.69254971       1.29404382
N       -1.97834899      -0.43027889       0.48879186
H        1.23299302      -1.33115491      -1.12548008
H        1.23181961      -1.70189833       0.52674900
H        0.04341963      -2.38958252      -0.65393229
H        1.26506176       2.45569069       0.11955016
H        2.22708295       0.92038996      -0.26813724
H       -0.71816160      -1.27433847       0.34553225
H       -2.97159601      -0.28588768       0.37502738
14
Frame=7 idx=010558 GeodesicLength=0.8901950734521922 rxn_smarts="[C:1]([C@@:2]1([C:5](=[O:6])[N:7]([H:13])[H:14])[C:3]([H:11])([H:12])[O:4]1)([H:8])([H:9])[H:10]>>[C:1]([H:8])([H:9])([H:10])[H:13].[C@:2]12([C:3]([H:11])([H:12])[O:4]1)/[C:5](=[N:7]/[H:14])[O:6]2"
C        0.55740742      -1.48769484      -0.27266753
C        0.07728543       0.61521464       0.00266723
C        1.25116605       1.42989418      -0.20467136
O        0.26966223       1.12465593      -1.22769312
C       -1.29136596       0.65578861       0.62703476
O       -1.15224206       1.64508197       1.36903588
N       -1.98904567      -0.42207719       0.48965740
H        1.31139221      -1.33012287      -1.04697670
H        1.18934435      -1.76932080       0.56746500
H        0.04171344      -2.34088232      -0.72650496
H        1.23961771       2.48086798       0.06186968
H        2.21683939       0.95259384      -0.31259330
H       -0.75620881      -1.30883219       0.37284163
H       -2.96556573      -0.24516694       0.30053539
14
Frame=8 idx=010558 GeodesicLength=1.0180229234585956 rxn_smarts="[C:1]([C@@:2]1([C:5](=[O:6])[N:7]([H:13])[H:14])[C:3]([H:11])([H:12])[O:4]1)([H:8])([H:9])[H:10]>>[C:1]([H:8])([H:9])([H:10])[H:13].[C@:2]12([C:3]([H:11])([H:12])[O:4]1)/[C:5](=[N:7]/[H:14])[O:6]2"
C        0.56873191      -1.48885460      -0.25241616
C        0.08225612       0.61579010       0.01958245
C        1.23371826       1.44784554      -0.23816766
O        0.23462224       1.10896940      -1.23011936
C       -1.27663879       0.64553979       0.65343689
O       -1.08246490       1.59493901       1.43805336
N       -1.99940951      -0.41239777       0.49133996
H        1.38534165      -1.32939709      -0.96125424
H        1.14267648      -1.84039533       0.60320029
H        0.04823774      -2.28402554      -0.79588007
H        1.21041458       2.50429024       0.00595689
H        2.20506753       0.98479372      -0.35803353
H       -0.79937838      -1.34446029       0.39251950
H       -2.95317492      -0.20263720       0.23178169
14
Frame=9 idx=010558 GeodesicLength=1.1462121862298573 rxn_smarts="[C:1]([C@@:2]1([C:5](=[O:6])[N:7]([H:13])[H:14])[C:3]([H:11])([H:12])[O:4]1)([H:8])([H:9])[H:10]>>[C:1]([H:8])([H:9])([H:10])[H:13].[C@:2]12([C:3]([H:11])([H:12])[O:4]1)/[C:5](=[N:7]/[H:14])[O:6]2"
C        0.58094493      -1.48994895      -0.22997174
C        0.08785123       0.61673837       0.03491018
C        1.21517426       1.46501395      -0.27172840
O        0.20060956       1.09304823      -1.23258297
C       -1.26068391       0.63470580       0.67926491
O       -1.01178165       1.54223332       1.50107386
N       -2.00944818      -0.40121958       0.49329231
H        1.45387224      -1.32846840      -0.86895513
H        1.09274823      -1.91439443       0.63229504
H        0.06382373      -2.22012092      -0.85978936
H        1.17831034       2.52573543      -0.04759836
H        2.19172819       1.01629787      -0.40457098
H       -0.84748953      -1.38064740       0.40494729
H       -2.93565946      -0.15897329       0.16941337
14
Frame=10 idx=010558 GeodesicLength=1.2749263634479882 rxn_smarts="[C:1]([C@@:2]1([C:5](=[O:6])[N:7]([H:13])[H:14])[C:3]([H:11])([H:12])[O:4]1)([H:8])([H:9])[H:10]>>[C:1]([H:8])([H:9])([H:10])[H:13].[C@:2]12([C:3]([H:11])([H:12])[O:4]1)/[C:5](=[N:7]/[H:14])[O:6]2"
C        0.59372707      -1.49085386      -0.20561779
C        0.09386815       0.61825095       0.04869389
C        1.19574636       1.48122310      -0.30524058
O        0.16743017       1.07736837      -1.23500339
C       -1.24362402       0.62325365       0.70456103
O       -0.94062557       1.48773564       1.55791462
N       -2.01904740      -0.38873325       0.49614794
H        1.51656446      -1.32705606      -0.77072386
H        1.04017088      -1.99011083       0.65320531
H        0.08855621      -2.15074723      -0.91640979
H        1.14422200       2.54508349      -0.09838284
H        2.17673432       1.04641684      -0.45236941
H       -0.90026810      -1.41680885       0.41051302
H       -2.91345453      -0.11502197       0.11271183
14
Frame=11 idx=010558 GeodesicLength=1.4043489141720302 rxn_smarts="[C:1]([C@@:2]1([C:5](=[O:6])[N:7]([H:13])[H:14])[C:3]([H:11])([H:12])[O:4]1)([H:8])([H:9])[H:10]>>[C:1]([H:8])([H:9])([H:10])[H:13].[C@:2]12([C:3]([H:11])([H:12])[O:4]1)/[C:5](=[N:7]/[H:14])[O:6]2"
C        0.60671332      -1.49165946      -0.17934500
C        0.10016054       0.62043450       0.06081102
C        1.17579383       1.49624310      -0.33857119
O        0.13525555       1.06222536      -1.23750446
C       -1.22577769       0.61140437       0.72865215
O       -0.86955809       1.43197150       1.60826018
N       -2.02810648      -0.37506449       0.49974280
H        1.57315076      -1.32426872      -0.66621356
H        0.98596388      -2.06687167       0.66446345
H        0.12260973      -2.07707531      -0.96511133
H        1.10918663       2.56225166      -0.14636773
H        2.16019589       1.07440851      -0.50131038
H       -0.95753197      -1.45229551       0.40960272
H       -2.88805590      -0.07170383       0.06289133
14
Frame=12 idx=010558 GeodesicLength=1.5344794691255403 rxn_smarts="[C:1]([C@@:2]1([C:5](=[O:6])[N:7]([H:13])[H:14])[C:3]([H:11])([H:12])[O:4]1)([H:8])([H:9])[H:10]>>[C:1]([H:8])([H:9])([H:10])[H:13].[C@:2]12([C:3]([H:11])([H:12])[O:4]1)/[C:5](=[N:7]/[H:14])[O:6]2"
C        0.61967911      -1.49217707      -0.15190911
C        0.10656912       0.62343759       0.07146111
C        1.15564479       1.50999948      -0.37139613
O        0.10409925       1.04801765      -1.23992365
C       -1.20742969       0.59923325       0.75141720
O       -0.79927701       1.37575240       1.65204571
N       -2.03650274      -0.36059183       0.50427734
H        1.62280002      -1.32034705      -0.55728228
H        0.93201367      -2.14251375       0.66470361
H        0.16426916      -2.00133039      -1.00425191
H        1.07415420       2.57730484      -0.19114436
H        2.14229727       1.09969623      -0.55065802
H       -1.01856738      -1.48644692       0.40407154
H       -2.85974976      -0.03003443       0.01858895
14
Frame=13 idx=010558 GeodesicLength=1.6653775919520977 rxn_smarts="[C:1]([C@@:2]1([C:5](=[O:6])[N:7]([H:13])[H:14])[C:3]([H:11])([H:12])[O:4]1)([H:8])([H:9])[H:10]>>[C:1]([H:8])([H:9])([H:10])[H:13].[C@:2]12([C:3]([H:11])([H:12])[O:4]1)/[C:5](=[N:7]/[H:14])[O:6]2"
C        0.63235587      -1.49255082      -0.12363042
C        0.11299296       0.62724508       0.08072722
C        1.13570964       1.52230650      -0.40347379
O        0.07424075       1.03479052      -1.24230880
C       -1.18898338       0.58705618       0.77227902
O       -0.73060631       1.31983393       1.68911225
N       -2.04417040      -0.34555511       0.50942820
H        1.66510431      -1.31478220      -0.44428518
H        0.88042665      -2.21623495       0.65276114
H        0.21240823      -1.92450302      -1.03403768
H        1.04007441       2.59027591      -0.23292998
H        2.12341219       1.12172845      -0.59967790
H       -1.08302167      -1.51881466       0.39589427
H       -2.82994322       0.00920419      -0.01985836
14
Frame=14 idx=010558 GeodesicLength=1.7970789851625222 rxn_smarts="[C:1]([C@@:2]1([C:5](=[O:6])[N:7]([H:13])[H:14])[C:3]([H:11])([H:12])[O:4]1)([H:8])([H:9])[H:10]>>[C:1]([H:8])([H:9])([H:10])[H:13].[C@:2]12([C:3]([H:11])([H:12])[O:4]1)/[C:5](=[N:7]/[H:14])[O:6]2"
C        0.64468569      -1.49266865      -0.09560595
C        0.11940238       0.63178341       0.08885700
C        1.11613905       1.53318394      -0.43470203
O        0.04549541       1.02263585      -1.24450906
C       -1.17044272       0.57475077       0.79150112
O       -0.66357649       1.26428701       1.72015717
N       -2.05110876      -0.33018540       0.51531825
H        1.69989151      -1.30831294      -0.32845335
H        0.83232187      -2.28529886       0.62919148
H        0.26534065      -1.84819342      -1.05484547
H        1.00736006       2.60132134      -0.27173264
H        2.10374399       1.14042917      -0.64798635
H       -1.15079553      -1.54924719       0.38699100
H       -2.79845712       0.04551497      -0.05418116
14
Frame=15 idx=010558 GeodesicLength=1.9296490199279361 rxn_smarts="[C:1]([C@@:2]1([C:5](=[O:6])[N:7]([H:13])[H:14])[C:3]([H:11])([H:12])[O:4]1)([H:8])([H:9])[H:10]>>[C:1]([H:8])([H:9])([H:10])[H:13].[C@:2]12([C:3]([H:11])([H:12])[O:4]1)/[C:5](=[N:7]/[H:14])[O:6]2"
C        0.65647889      -1.49284897      -0.06827548
C        0.12575208       0.63693454       0.09604113
C        1.09732020       1.54241938      -0.46489795
O        0.01814739       1.01139312      -1.24654878
C       -1.15217838       0.56258251       0.80869267
O       -0.59918346       1.21022284       1.74507364
N       -2.05737108      -0.31467036       0.52158987
H        1.72665260      -1.30055930      -0.20961823
H        0.79002267      -2.34994366       0.59295821
H        0.32230605      -1.77215609      -1.06800738
H        0.97679665       2.61046388      -0.30808441
H        2.08378024       1.15542198      -0.69490425
H       -1.22195365      -1.57778441       0.38023561
H       -2.76657021       0.07852453      -0.08425465
14
Frame=16 idx=010558 GeodesicLength=2.063135952953286 rxn_smarts="[C:1]([C@@:2]1([C:5](=[O:6])[N:7]([H:13])[H:14])[C:3]([H:11])([H:12])[O:4]1)([H:8])([H:9])[H:10]>>[C:1]([H:8])([H:9])([H:10])[H:13].[C@:2]12([C:3]([H:11])([H:12])[O:4]1)/[C:5](=[N:7]/[H:14])[O:6]2"
C        0.66797269      -1.49281995      -0.04328431
C        0.13222063       0.64250575       0.10245945
C        1.07914037       1.55030998      -0.49406736
O       -0.00812907       1.00108212      -1.24825093
C       -1.13375771       0.55001909       0.82439244
O       -0.53654805       1.15658064       1.76507617
N       -2.06293945      -0.29907980       0.52825795
H        1.74525419      -1.29318575      -0.08945046
H        0.75314733      -2.40643667       0.54705970
H        0.38205491      -1.69768403      -1.07482855
H        0.94800569       2.61800576      -0.34185469
H        2.06357121       1.16737298      -0.74039800
H       -1.29704423      -1.60464611       0.37741728
H       -2.73294850       0.10797599      -0.11252869
