16
Frame=0 idx=000220 GeodesicLength=0.0 rxn_smarts="[C:1]([C@@:2]1([H:10])[C:3]([H:11])([H:12])[C:4]([H:13])([H:14])[C:5]([H:15])=[C:6]1[H:16])([H:7])([H:8])[H:9]>>[C:1]([C@@:2]1([H:10])[C:3]([H:11])([H:12])[C:4]([H:14])=[C:5]=[C:6]1[H:16])([H:7])([H:8])[H:9].[H:13][H:15]"
C        1.77748002      -0.42681128       0.49539134
C        0.81224907       0.07575677      -0.57876879
C       -0.35102514      -0.92063940      -0.84356466
C       -1.50509809      -0.27668208      -0.15404084
C       -1.22823409       1.04234484       0.11805456
C        0.05588294       1.33331214      -0.21063049
H        1.23591256      -0.63369360       1.42194381
H        2.54355823       0.31917995       0.71189502
H        2.27669669      -1.34444277       0.17637610
H        1.37769545       0.26511350      -1.49722370
H       -0.53293360      -1.04789435      -1.91663261
H       -0.17802511      -1.92247697      -0.44020310
H       -2.34136551       0.63670151       1.79895712
H       -2.42195595      -0.76615420       0.15628659
H       -2.01267130       1.34444095       1.03762116
H        0.49183378       2.32194498      -0.27546150
16
Frame=1 idx=000220 GeodesicLength=0.06529805793959353 rxn_smarts="[C:1]([C@@:2]1([H:10])[C:3]([H:11])([H:12])[C:4]([H:13])([H:14])[C:5]([H:15])=[C:6]1[H:16])([H:7])([H:8])[H:9]>>[C:1]([C@@:2]1([H:10])[C:3]([H:11])([H:12])[C:4]([H:14])=[C:5]=[C:6]1[H:16])([H:7])([H:8])[H:9].[H:13][H:15]"
C        1.78444400      -0.42180649       0.49228018
C        0.81166431       0.07442742      -0.57775127
C       -0.35465383      -0.92250881      -0.82804767
C       -1.50741624      -0.26934829      -0.14220212
C       -1.22333639       1.05371810       0.12034658
C        0.05993773       1.33573891      -0.21375601
H        1.24918983      -0.62259511       1.42386334
H        2.55303382       0.32442971       0.69906619
H        2.28090682      -1.34169507       0.17554077
H        1.37103119       0.25784898      -1.50130621
H       -0.53559723      -1.06448685      -1.89923511
H       -0.18235381      -1.91883726      -0.41094090
H       -2.33967431       0.58284363       1.78488082
H       -2.45922529      -0.73420552       0.09045195
H       -2.00836349       1.34394743       1.06624725
H        0.50041287       2.32252921      -0.27943778
16
Frame=2 idx=000220 GeodesicLength=0.1304826749253426 rxn_smarts="[C:1]([C@@:2]1([H:10])[C:3]([H:11])([H:12])[C:4]([H:13])([H:14])[C:5]([H:15])=[C:6]1[H:16])([H:7])([H:8])[H:9]>>[C:1]([C@@:2]1([H:10])[C:3]([H:11])([H:12])[C:4]([H:14])=[C:5]=[C:6]1[H:16])([H:7])([H:8])[H:9].[H:13][H:15]"
C        1.79112361      -0.41729102       0.48884866
C        0.81078602       0.07303868      -0.57668146
C       -0.35842822      -0.92424164      -0.81279392
C       -1.51039100      -0.26245231      -0.13072473
C       -1.21864856       1.06444319       0.12312940
C        0.06358514       1.33786764      -0.21635377
H        1.26229309      -0.61228146       1.42532566
H        2.56214562       0.32905770       0.68609575
H        2.28486049      -1.33929941       0.17404372
H        1.36396469       0.25086818      -1.50520228
H       -0.53832699      -1.08069879      -1.88191448
H       -0.18657820      -1.91499052      -0.38240181
H       -2.34056756       0.53254626       1.76853247
H       -2.48906581      -0.70202548       0.02792661
H       -2.00517288       1.34258970       1.09470893
H        0.50842058       2.32286929      -0.28253875
16
Frame=3 idx=000220 GeodesicLength=0.19556702175431995 rxn_smarts="[C:1]([C@@:2]1([H:10])[C:3]([H:11])([H:12])[C:4]([H:13])([H:14])[C:5]([H:15])=[C:6]1[H:16])([H:7])([H:8])[H:9]>>[C:1]([C@@:2]1([H:10])[C:3]([H:11])([H:12])[C:4]([H:14])=[C:5]=[C:6]1[H:16])([H:7])([H:8])[H:9].[H:13][H:15]"
C        1.79730708      -0.41316500       0.48529994
C        0.80965081       0.07165167      -0.57564978
C       -0.36234874      -0.92573921      -0.79808501
C       -1.51409709      -0.25564971      -0.12039390
C       -1.21409677       1.07468541       0.12612218
C        0.06691703       1.33980901      -0.21873827
H        1.27481264      -0.60258128       1.42647026
H        2.57069014       0.33314700       0.67332876
H        2.28833429      -1.33717501       0.17223028
H        1.35672708       0.24415614      -1.50893366
H       -0.54088169      -1.09653603      -1.86503268
H       -0.19092886      -1.91078961      -0.35466725
H       -2.34315693       0.48530401       1.75039378
H       -2.51230943      -0.67040194      -0.03040830
H       -2.00263381       1.34024032       1.12319119
H        0.51601424       2.32304422      -0.28512753
16
Frame=4 idx=000220 GeodesicLength=0.26072067971227464 rxn_smarts="[C:1]([C@@:2]1([H:10])[C:3]([H:11])([H:12])[C:4]([H:13])([H:14])[C:5]([H:15])=[C:6]1[H:16])([H:7])([H:8])[H:9]>>[C:1]([C@@:2]1([H:10])[C:3]([H:11])([H:12])[C:4]([H:14])=[C:5]=[C:6]1[H:16])([H:7])([H:8])[H:9].[H:13][H:15]"
C        1.80309112      -0.40936905       0.48165529
C        0.80832127       0.07029968      -0.57465450
C       -0.36637853      -0.92702570      -0.78383551
C       -1.51853472      -0.24876647      -0.11138589
C       -1.20967829       1.08460375       0.12929383
C        0.06998633       1.34166567      -0.22098556
H        1.28684688      -0.59335149       1.42735656
H        2.57882255       0.33676364       0.66067559
H        2.29140396      -1.33533279       0.17020305
H        1.34940027       0.23770320      -1.51251854
H       -0.54314174      -1.11216291      -1.84848392
H       -0.19546832      -1.90622363      -0.32743931
H       -2.34678550       0.44065989       1.73091039
H       -2.53038844      -0.63943468      -0.08522070
H       -2.00079559       1.33680832       1.15174589
H        0.52329876       2.32316256      -0.28731666
16
Frame=5 idx=000220 GeodesicLength=0.32597834072334164 rxn_smarts="[C:1]([C@@:2]1([H:10])[C:3]([H:11])([H:12])[C:4]([H:13])([H:14])[C:5]([H:15])=[C:6]1[H:16])([H:7])([H:8])[H:9]>>[C:1]([C@@:2]1([H:10])[C:3]([H:11])([H:12])[C:4]([H:14])=[C:5]=[C:6]1[H:16])([H:7])([H:8])[H:9].[H:13][H:15]"
C        1.80855493      -0.40581118       0.47790626
C        0.80682386       0.06897849      -0.57369726
C       -0.37048705      -0.92814051      -0.76993980
C       -1.52364202      -0.24167564      -0.10380237
C       -1.20530477       1.09426981       0.13272639
C        0.07284671       1.34346887      -0.22314523
H        1.29853184      -0.58440912       1.42801774
H        2.58663034       0.34001408       0.64803074
H        2.29412901      -1.33370911       0.16800223
H        1.34197028       0.23143555      -1.51599025
H       -0.54503966      -1.12779559      -1.83213137
H       -0.20023604      -1.90123924      -0.30041731
H       -2.35136104       0.39815863       1.71016553
H       -2.54439428      -0.60892379      -0.13718773
H       -1.99935577       1.33213664       1.18068586
H        0.53033365       2.32324213      -0.28922342
16
Frame=6 idx=000220 GeodesicLength=0.3912944702037816 rxn_smarts="[C:1]([C@@:2]1([H:10])[C:3]([H:11])([H:12])[C:4]([H:13])([H:14])[C:5]([H:15])=[C:6]1[H:16])([H:7])([H:8])[H:9]>>[C:1]([C@@:2]1([H:10])[C:3]([H:11])([H:12])[C:4]([H:14])=[C:5]=[C:6]1[H:16])([H:7])([H:8])[H:9].[H:13][H:15]"
C        1.81374017      -0.40248095       0.47405176
C        0.80519578       0.06769745      -0.57276912
C       -0.37463066      -0.92908472      -0.75637480
C       -1.52923971      -0.23442487      -0.09742540
C       -1.20097314       1.10371545       0.13631911
C        0.07553866       1.34522078      -0.22519009
H        1.30991109      -0.57576698       1.42844759
H        2.59413903       0.34291429       0.63540220
H        2.29654956      -1.33228473       0.16561764
H        1.33446157       0.22536719      -1.51934591
H       -0.54662640      -1.14335661      -1.81593432
H       -0.20515377      -1.89585248      -0.27365352
H       -2.35674464       0.35782748       1.68830332
H       -2.55494812      -0.57907956      -0.18644852
H       -1.99837528       1.32630914       1.20984535
H        0.53715586       2.32327912      -0.29084529
16
Frame=7 idx=000220 GeodesicLength=0.4567187175402661 rxn_smarts="[C:1]([C@@:2]1([H:10])[C:3]([H:11])([H:12])[C:4]([H:13])([H:14])[C:5]([H:15])=[C:6]1[H:16])([H:7])([H:8])[H:9]>>[C:1]([C@@:2]1([H:10])[C:3]([H:11])([H:12])[C:4]([H:14])=[C:5]=[C:6]1[H:16])([H:7])([H:8])[H:9].[H:13][H:15]"
C        1.81875735      -0.39932823       0.47005641
C        0.80346301       0.06645136      -0.57186244
C       -0.37879711      -0.92989727      -0.74301950
C       -1.53528024      -0.22698424      -0.09218204
C       -1.19664574       1.11296781       0.14014600
C        0.07810609       1.34692913      -0.22709452
H        1.32116675      -0.56732080       1.42867036
H        2.60148723       0.34552020       0.62265187
H        2.29874765      -1.33103041       0.16302178
H        1.32684159       0.21946213      -1.52263088
H       -0.54790777      -1.15899151      -1.79974638
H       -0.21022824      -1.89003904      -0.24691582
H       -2.36303624       0.31944213       1.66535388
H       -2.56270446      -0.54968658      -0.23361709
H       -1.99778687       1.31922692       1.23937098
H        0.54381701       2.32327839      -0.29220260
16
Frame=8 idx=000220 GeodesicLength=0.5222747080688795 rxn_smarts="[C:1]([C@@:2]1([H:10])[C:3]([H:11])([H:12])[C:4]([H:13])([H:14])[C:5]([H:15])=[C:6]1[H:16])([H:7])([H:8])[H:9]>>[C:1]([C@@:2]1([H:10])[C:3]([H:11])([H:12])[C:4]([H:14])=[C:5]=[C:6]1[H:16])([H:7])([H:8])[H:9].[H:13][H:15]"
C        1.82369479      -0.39631568       0.46587687
C        0.80163491       0.06523669      -0.57096458
C       -0.38297918      -0.93060883      -0.72974799
C       -1.54171723      -0.21932844      -0.08799907
C       -1.19228381       1.12204641       0.14428468
C        0.08057780       1.34860206      -0.22882816
H        1.33246603      -0.55898578       1.42868962
H        2.60878218       0.34787189       0.60963148
H        2.30078255      -1.32992731       0.16017814
H        1.31905188       0.21369195      -1.52587457
H       -0.54889854      -1.17482635      -1.78340129
H       -0.21546035      -1.88376861      -0.21998421
H       -2.37041121       0.28283834       1.64125134
H       -2.56809595      -0.52054144      -0.27921934
H       -1.99749233       1.31076799       1.26940372
H        0.55034846       2.32324711      -0.29329663
16
Frame=9 idx=000220 GeodesicLength=0.5879014187626758 rxn_smarts="[C:1]([C@@:2]1([H:10])[C:3]([H:11])([H:12])[C:4]([H:13])([H:14])[C:5]([H:15])=[C:6]1[H:16])([H:7])([H:8])[H:9]>>[C:1]([C@@:2]1([H:10])[C:3]([H:11])([H:12])[C:4]([H:14])=[C:5]=[C:6]1[H:16])([H:7])([H:8])[H:9].[H:13][H:15]"
C        1.82854874      -0.39346288       0.46151783
C        0.79972726       0.06406556      -0.57006337
C       -0.38715280      -0.93120273      -0.71656601
C       -1.54841765      -0.21152918      -0.08466771
C       -1.18791931       1.13096465       0.14858789
C        0.08297140       1.35023480      -0.23035379
H        1.34379746      -0.55083390       1.42848964
H        2.61599898       0.34994630       0.59638667
H        2.30265115      -1.32897727       0.15707184
H        1.31110623       0.20809218      -1.52905708
H       -0.54966140      -1.19072647      -1.76689490
H       -0.22077695      -1.87705656      -0.19297971
H       -2.37866033       0.24813886       1.61615253
H       -2.57129846      -0.49187045      -0.32319570
H       -1.99767951       1.30104141       1.29966160
H        0.55676520       2.32317567      -0.29408972
16
Frame=10 idx=000220 GeodesicLength=0.6536441816971272 rxn_smarts="[C:1]([C@@:2]1([H:10])[C:3]([H:11])([H:12])[C:4]([H:13])([H:14])[C:5]([H:15])=[C:6]1[H:16])([H:7])([H:8])[H:9]>>[C:1]([C@@:2]1([H:10])[C:3]([H:11])([H:12])[C:4]([H:14])=[C:5]=[C:6]1[H:16])([H:7])([H:8])[H:9].[H:13][H:15]"
C        1.83340117      -0.39072714       0.45693988
C        0.79774659       0.06292561      -0.56915576
C       -0.39132143      -0.93171284      -0.70336127
C       -1.55538015      -0.20355028      -0.08217017
C       -1.18351608       1.13973092       0.15316276
C        0.08530492       1.35183483      -0.23166464
H        1.35530820      -0.54276715       1.42807426
H        2.62323098       0.35179715       0.58278825
H        2.30441895      -1.32815812       0.15367712
H        1.30295405       0.20261564      -1.53221543
H       -0.55020493      -1.20684853      -1.75007409
H       -0.22619463      -1.86986224      -0.16567975
H       -2.38806877       0.21519025       1.58991817
H       -2.57259847      -0.46339751      -0.36601650
H       -1.99816440       1.28985567       1.33039304
H        0.56308399       2.32307376      -0.29461587
16
Frame=11 idx=000220 GeodesicLength=0.7194643371701541 rxn_smarts="[C:1]([C@@:2]1([H:10])[C:3]([H:11])([H:12])[C:4]([H:13])([H:14])[C:5]([H:15])=[C:6]1[H:16])([H:7])([H:8])[H:9]>>[C:1]([C@@:2]1([H:10])[C:3]([H:11])([H:12])[C:4]([H:14])=[C:5]=[C:6]1[H:16])([H:7])([H:8])[H:9].[H:13][H:15]"
C        1.83823376      -0.38813005       0.45216306
C        0.79570839       0.06182859      -0.56823916
C       -0.39547304      -0.93212155      -0.69017307
C       -1.56250828      -0.19546047      -0.08033594
C       -1.17912643       1.14836806       0.15783641
C        0.08758838       1.35340698      -0.23274742
H        1.36694764      -0.53484428       1.42743899
H        2.63045457       0.35339404       0.56890472
H        2.30606449      -1.32748833       0.15000935
H        1.29462981       0.19729344      -1.53533332
H       -0.55059718      -1.22304821      -1.73298240
H       -0.23165281      -1.86221152      -0.13824925
H       -2.39831514       0.18410409       1.56276451
H       -2.57209362      -0.43538592      -0.40753243
H       -1.99919372       1.27735347       1.36127857
H        0.56933318       2.32294163      -0.29480262
16
Frame=12 idx=000220 GeodesicLength=0.7853954337698906 rxn_smarts="[C:1]([C@@:2]1([H:10])[C:3]([H:11])([H:12])[C:4]([H:13])([H:14])[C:5]([H:15])=[C:6]1[H:16])([H:7])([H:8])[H:9]>>[C:1]([C@@:2]1([H:10])[C:3]([H:11])([H:12])[C:4]([H:14])=[C:5]=[C:6]1[H:16])([H:7])([H:8])[H:9].[H:13][H:15]"
C        1.84310822      -0.38564193       0.44714336
C        0.79360980       0.06076697      -0.56730117
C       -0.39961144      -0.93244855      -0.67688714
C       -1.56980967      -0.18721411      -0.07916814
C       -1.17472374       1.15688619       0.16270563
C        0.08983518       1.35495590      -0.23357379
H        1.37884924      -0.52698408       1.42657748
H        2.63774216       0.35476538       0.55460001
H        2.30762744      -1.32695351       0.14602805
H        1.28607120       0.19208836      -1.53843182
H       -0.55082553      -1.23945922      -1.71546081
H       -0.23717628      -1.85404603      -0.11047210
H       -2.40965716       0.15478287       1.53454396
H       -2.56993153      -0.40761106      -0.44814825
H       -2.00062734       1.26333075       1.39252452
H        0.57551945       2.32278206      -0.29467978
16
Frame=13 idx=000220 GeodesicLength=0.8514541897047418 rxn_smarts="[C:1]([C@@:2]1([H:10])[C:3]([H:11])([H:12])[C:4]([H:13])([H:14])[C:5]([H:15])=[C:6]1[H:16])([H:7])([H:8])[H:9]>>[C:1]([C@@:2]1([H:10])[C:3]([H:11])([H:12])[C:4]([H:14])=[C:5]=[C:6]1[H:16])([H:7])([H:8])[H:9].[H:13][H:15]"
C        1.84807459      -0.38323830       0.44183109
C        0.79143598       0.05974140      -0.56632791
C       -0.40374525      -0.93270579      -0.66337819
C       -1.57729303      -0.17876536      -0.07868246
C       -1.17027866       1.16529246       0.16785386
C        0.09205495       1.35648902      -0.23411219
H        1.39114925      -0.51911897       1.42547739
H        2.64515324       0.35592942       0.53971867
H        2.30912176      -1.32654551       0.14169294
H        1.27719239       0.18698199      -1.54152994
H       -0.55088765      -1.25620689      -1.69732773
H       -0.24279073      -1.84528875      -0.08211067
H       -2.42233798       0.12718758       1.50507212
H       -2.56616925      -0.37987867      -0.48823063
H       -2.00233217       1.24752468       1.42428907
H        0.58165257       2.32260171      -0.29423542
16
Frame=14 idx=000220 GeodesicLength=0.9176222556178728 rxn_smarts="[C:1]([C@@:2]1([H:10])[C:3]([H:11])([H:12])[C:4]([H:13])([H:14])[C:5]([H:15])=[C:6]1[H:16])([H:7])([H:8])[H:9]>>[C:1]([C@@:2]1([H:10])[C:3]([H:11])([H:12])[C:4]([H:14])=[C:5]=[C:6]1[H:16])([H:7])([H:8])[H:9].[H:13][H:15]"
C        1.85310091      -0.38093304       0.43625843
C        0.78920046       0.05875857      -0.56532482
C       -0.40787333      -0.93287280      -0.64969900
C       -1.58489366      -0.17016227      -0.07876993
C       -1.16584021       1.17361123       0.17312572
C        0.09425529       1.35801380      -0.23437920
H        1.40376752      -0.51129723       1.42413935
H        2.65264054       0.35687357       0.52436118
H        2.31053020      -1.32626826       0.13703338
H        1.26804065       0.18198363      -1.54461459
H       -0.55084147      -1.27316639      -1.67863925
H       -0.24846363      -1.83594872      -0.05332462
H       -2.43606788       0.10141164       1.47452131
H       -2.56085698      -0.35240345      -0.52758689
H       -2.00445240       1.22999507       1.45635168
H        0.58775397       2.32240467      -0.29345275
16
Frame=15 idx=000220 GeodesicLength=0.9838609644037275 rxn_smarts="[C:1]([C@@:2]1([H:10])[C:3]([H:11])([H:12])[C:4]([H:13])([H:14])[C:5]([H:15])=[C:6]1[H:16])([H:7])([H:8])[H:9]>>[C:1]([C@@:2]1([H:10])[C:3]([H:11])([H:12])[C:4]([H:14])=[C:5]=[C:6]1[H:16])([H:7])([H:8])[H:9].[H:13][H:15]"
C        1.85813863      -0.37874387       0.43046187
C        0.78691690       0.05782445      -0.56429776
C       -0.41198672      -0.93292428      -0.63591053
C       -1.59254501      -0.16144737      -0.07932257
C       -1.16145089       1.18187410       0.17835979
C        0.09644167       1.35953941      -0.23440407
H        1.41659520      -0.50357529       1.42255973
H        2.66013251       0.35758199       0.50864072
H        2.31182592      -1.32612875       0.13208873
H        1.25867438       0.17710088      -1.54766400
H       -0.55073306      -1.29019556      -1.65946401
H       -0.25415151      -1.82604331      -0.02429135
H       -2.45049724       0.07750083       1.44311273
H       -2.55406045      -0.32540028      -0.56600781
H       -2.00713893       1.21084284       1.48846988
H        0.59383859       2.32219423      -0.29233136
16
Frame=16 idx=000220 GeodesicLength=1.0501383013333663 rxn_smarts="[C:1]([C@@:2]1([H:10])[C:3]([H:11])([H:12])[C:4]([H:13])([H:14])[C:5]([H:15])=[C:6]1[H:16])([H:7])([H:8])[H:9]>>[C:1]([C@@:2]1([H:10])[C:3]([H:11])([H:12])[C:4]([H:14])=[C:5]=[C:6]1[H:16])([H:7])([H:8])[H:9].[H:13][H:15]"
C        1.86313772      -0.37668111       0.42448989
C        0.78459873       0.05694457      -0.56325720
C       -0.41608222      -0.93283773      -0.62208370
C       -1.60018904      -0.15265947      -0.08024862
C       -1.15714406       1.19011692       0.18339870
C        0.09862312       1.36107832      -0.23423479
H        1.42951731      -0.49599526       1.42075061
H        2.66756186       0.35804960       0.49268441
H        2.31297912      -1.32612896       0.12691723
H        1.24915639       0.17233541      -1.55066270
H       -0.55061149      -1.30715882      -1.63989306
H       -0.25982322      -1.81559986       0.00480956
H       -2.46527822       0.05544734       1.41108264
H       -2.54588079      -0.29906888      -0.60330613
H       -2.01049326       1.19018018       1.52044678
H        0.59992804       2.32197775      -0.29089362
