14
Frame=0 idx=005645 GeodesicLength=0.0 rxn_smarts="[C:1](#[C:2][C:3]([C:4]1([H:10])[C:5]([H:11])([H:12])[C:6]1([H:13])[H:14])([H:8])[H:9])[H:7]>>[C:1](=[C:2]=[C:3]([H:8])[H:9])([H:7])[H:13].[C:4]1([H:10])=[C:6]([H:14])[C:5]1([H:11])[H:12]"
C        1.10854148      -1.59435548      -0.39790417
C        1.41682770      -0.79949084       0.53897836
C        1.20367189       0.38478803       1.13683948
C       -0.40409247       1.05286505      -0.11352554
C       -1.61713421       0.20474791       0.06829686
C       -0.74412911       0.25488686      -1.14324123
H        1.41838392      -2.56517060      -0.74228945
H        0.66103340       0.41854387       2.07550100
H        1.91694467       1.18622683       0.97533336
H       -0.17567824       2.09637379       0.02021185
H       -2.60230767       0.66757706       0.06364051
H       -1.54233573      -0.66970057       0.71442459
H        0.22979604      -0.99739856      -0.98826071
H       -0.86952170       0.36010662      -2.20800485
14
Frame=1 idx=005645 GeodesicLength=0.08705431518943892 rxn_smarts="[C:1](#[C:2][C:3]([C:4]1([H:10])[C:5]([H:11])([H:12])[C:6]1([H:13])[H:14])([H:8])[H:9])[H:7]>>[C:1](=[C:2]=[C:3]([H:8])[H:9])([H:7])[H:13].[C:4]1([H:10])=[C:6]([H:14])[C:5]1([H:11])[H:12]"
C        1.12925603      -1.59899346      -0.39846430
C        1.43312622      -0.80061401       0.53629799
C        1.20079572       0.38101170       1.13829731
C       -0.40483387       1.05090475      -0.11838867
C       -1.62733935       0.21786503       0.07100431
C       -0.75710261       0.24753396      -1.14377325
H        1.46215142      -2.56197667      -0.74367518
H        0.65608903       0.39753957       2.07654516
H        1.92022815       1.18159706       1.00064935
H       -0.16750479       2.09479186      -0.00373458
H       -2.60608890       0.69370305       0.06583321
H       -1.56246905      -0.65335832       0.72217351
H        0.21988254      -1.00566817      -0.99609018
H       -0.89619053       0.35566365      -2.20667469
14
Frame=2 idx=005645 GeodesicLength=0.17400987393576248 rxn_smarts="[C:1](#[C:2][C:3]([C:4]1([H:10])[C:5]([H:11])([H:12])[C:6]1([H:13])[H:14])([H:8])[H:9])[H:7]>>[C:1](=[C:2]=[C:3]([H:8])[H:9])([H:7])[H:13].[C:4]1([H:10])=[C:6]([H:14])[C:5]1([H:11])[H:12]"
C        1.15056932      -1.60365712      -0.39895634
C        1.44975292      -0.80155678       0.53355519
C        1.19782836       0.37700870       1.13975021
C       -0.40557966       1.04871680      -0.12342763
C       -1.63773346       0.23156211       0.07382980
C       -0.77047133       0.23971510      -1.14399361
H        1.50726882      -2.55754073      -0.74609073
H        0.65099982       0.37591276       2.07724963
H        1.92289571       1.17658530       1.02669050
H       -0.15886932       2.09251008      -0.02841639
H       -2.60966908       0.72074841       0.06771477
H       -1.58319237      -0.63594145       0.73052178
H        0.20918094      -1.01463772      -1.00351295
H       -0.92298065       0.35057455      -2.20491422
14
Frame=3 idx=005645 GeodesicLength=0.2608930218584304 rxn_smarts="[C:1](#[C:2][C:3]([C:4]1([H:10])[C:5]([H:11])([H:12])[C:6]1([H:13])[H:14])([H:8])[H:9])[H:7]>>[C:1](=[C:2]=[C:3]([H:8])[H:9])([H:7])[H:13].[C:4]1([H:10])=[C:6]([H:14])[C:5]1([H:11])[H:12]"
C        1.17303442      -1.60787576      -0.39992013
C        1.46704829      -0.80200253       0.53040027
C        1.19486849       0.37287401       1.14111563
C       -0.40639291       1.04633867      -0.12855603
C       -1.64820380       0.24562509       0.07670763
C       -0.78416855       0.23160728      -1.14395048
H        1.55223181      -2.55275724      -0.74823720
H        0.64588040       0.35342720       2.07751320
H        1.92483010       1.17144810       1.05353122
H       -0.15003099       2.08955606      -0.05354538
H       -2.61301567       0.74830419       0.06930758
H       -1.60421173      -0.61775013       0.73924075
H        0.19797842      -1.02398986      -1.01084700
H       -0.94984829       0.34519493      -2.20276007
14
Frame=4 idx=005645 GeodesicLength=0.3477763326447462 rxn_smarts="[C:1](#[C:2][C:3]([C:4]1([H:10])[C:5]([H:11])([H:12])[C:6]1([H:13])[H:14])([H:8])[H:9])[H:7]>>[C:1](=[C:2]=[C:3]([H:8])[H:9])([H:7])[H:13].[C:4]1([H:10])=[C:6]([H:14])[C:5]1([H:11])[H:12]"
C        1.19613613      -1.61213812      -0.40077092
C        1.48460731      -0.80230028       0.52725521
C        1.19178026       0.36844000       1.14251579
C       -0.40719845       1.04369191      -0.13387678
C       -1.65888475       0.26040155       0.07971289
C       -0.79831855       0.22295759      -1.14350893
H        1.59898927      -2.54639655      -0.75177701
H        0.64056152       0.33026919       2.07740650
H        1.92605115       1.16578698       1.08110753
H       -0.14063044       2.08575789      -0.07950935
H       -2.61610945       0.77697033       0.07049062
H       -1.62591733      -0.59822936       0.74865692
H        0.18577557      -1.03422549      -1.01757565
H       -0.97684223       0.33901435      -2.20012678
14
Frame=5 idx=005645 GeodesicLength=0.43467576922151263 rxn_smarts="[C:1](#[C:2][C:3]([C:4]1([H:10])[C:5]([H:11])([H:12])[C:6]1([H:13])[H:14])([H:8])[H:9])[H:7]>>[C:1](=[C:2]=[C:3]([H:8])[H:9])([H:7])[H:13].[C:4]1([H:10])=[C:6]([H:14])[C:5]1([H:11])[H:12]"
C        1.22076156      -1.61563335      -0.40243362
C        1.50298583      -0.80190964       0.52351737
C        1.18873452       0.36387747       1.14379570
C       -0.40810668       1.04086219      -0.13924213
C       -1.66960303       0.27550848       0.08274832
C       -0.81280527       0.21408266      -1.14277148
H        1.64505851      -2.54007848      -0.75444194
H        0.63526536       0.30605406       2.07674943
H        1.92640090       1.16002791       1.10952110
H       -0.13111997       2.08123480      -0.10580934
H       -2.61893659       0.80603712       0.07135137
H       -1.64781796      -0.57794672       0.75838017
H        0.17308493      -1.04477261      -1.02427918
H       -1.00390211       0.33265612      -2.19708578
14
Frame=6 idx=005645 GeodesicLength=0.521653199974887 rxn_smarts="[C:1](#[C:2][C:3]([C:4]1([H:10])[C:5]([H:11])([H:12])[C:6]1([H:13])[H:14])([H:8])[H:9])[H:7]>>[C:1](=[C:2]=[C:3]([H:8])[H:9])([H:7])[H:13].[C:4]1([H:10])=[C:6]([H:14])[C:5]1([H:11])[H:12]"
C        1.24626412      -1.61897896      -0.40416719
C        1.52167624      -0.80128940       0.51973764
C        1.18555357       0.35897137       1.14511813
C       -0.40902030       1.03774267      -0.14478314
C       -1.68051523       0.29139082       0.08589754
C       -0.82777846       0.20465632      -1.14156336
H        1.69285617      -2.53219591      -0.75837045
H        0.62975749       0.28101939       2.07564361
H        1.92590267       1.15367164       1.13870302
H       -0.12104540       2.07573763      -0.13293899
H       -2.62145267       0.83626014       0.07170798
H       -1.67039516      -0.55618131       0.76881669
H        0.15928281      -1.05627319      -1.03027565
H       -1.03108585       0.32546881      -2.19352582
14
Frame=7 idx=005645 GeodesicLength=0.6087248410994048 rxn_smarts="[C:1](#[C:2][C:3]([C:4]1([H:10])[C:5]([H:11])([H:12])[C:6]1([H:13])[H:14])([H:8])[H:9])[H:7]>>[C:1](=[C:2]=[C:3]([H:8])[H:9])([H:7])[H:13].[C:4]1([H:10])=[C:6]([H:14])[C:5]1([H:11])[H:12]"
C        1.27312201      -1.62171526      -0.40648007
C        1.54094389      -0.80016214       0.51561776
C        1.18231547       0.35378368       1.14640896
C       -0.40999800       1.03436951      -0.15042256
C       -1.69154218       0.30789289       0.08911275
C       -0.84319730       0.19482375      -1.13990719
H        1.74124679      -2.52353512      -0.76244582
H        0.62415217       0.25493901       2.07397174
H        1.92445101       1.14688225       1.16869432
H       -0.11062879       2.06929568      -0.16065432
H       -2.62364536       0.86732184       0.07157479
H       -1.69342017      -0.53314512       0.77979448
H        0.14456893      -1.06848622      -1.03579787
H       -1.05836846       0.31773526      -2.18946697
14
Frame=8 idx=005645 GeodesicLength=0.695830389063778 rxn_smarts="[C:1](#[C:2][C:3]([C:4]1([H:10])[C:5]([H:11])([H:12])[C:6]1([H:13])[H:14])([H:8])[H:9])[H:7]>>[C:1](=[C:2]=[C:3]([H:8])[H:9])([H:7])[H:13].[C:4]1([H:10])=[C:6]([H:14])[C:5]1([H:11])[H:12]"
C        1.30096954      -1.62417592      -0.40895211
C        1.56049338      -0.79880932       0.51150798
C        1.17890466       0.34816363       1.14778171
C       -0.41098399       1.03065491      -0.15623028
C       -1.70275902       0.32530600       0.09242541
C       -0.85915492       0.18436319      -1.13765392
H        1.79162393      -2.51298607      -0.76802443
H        0.61828742       0.22791877       2.07178373
H        1.92202135       1.13932784       1.19946156
H       -0.09959473       2.06167353      -0.18926792
H       -2.62543783       0.89969344       0.07076066
H       -1.71716013      -0.50832062       0.79156610
H        0.12855967      -1.08182756      -1.04034243
H       -1.08576932       0.30901818      -2.18481607
14
Frame=9 idx=005645 GeodesicLength=0.7824429719974916 rxn_smarts="[C:1](#[C:2][C:3]([C:4]1([H:10])[C:5]([H:11])([H:12])[C:6]1([H:13])[H:14])([H:8])[H:9])[H:7]>>[C:1](=[C:2]=[C:3]([H:8])[H:9])([H:7])[H:13].[C:4]1([H:10])=[C:6]([H:14])[C:5]1([H:11])[H:12]"
C        1.33084662      -1.62507089      -0.41285720
C        1.58107859      -0.79644322       0.50658894
C        1.17556859       0.34233437       1.14901767
C       -0.41213568       1.02674339      -0.16199241
C       -1.71396280       0.34308854       0.09571009
C       -0.87544507       0.17366107      -1.13492888
H        1.84058720      -2.50291440      -0.77208682
H        0.61251616       0.19943459       2.06877416
H        1.91845261       1.13155242       1.23104704
H       -0.08861847       2.05318732      -0.21802277
H       -2.62687054       0.93234553       0.06939641
H       -1.74096798      -0.48246800       0.80363731
H        0.11211337      -1.09549636      -1.04464047
H       -1.11316260       0.30004565      -2.17964307
14
Frame=10 idx=005645 GeodesicLength=0.8689813955095074 rxn_smarts="[C:1](#[C:2][C:3]([C:4]1([H:10])[C:5]([H:11])([H:12])[C:6]1([H:13])[H:14])([H:8])[H:9])[H:7]>>[C:1](=[C:2]=[C:3]([H:8])[H:9])([H:7])[H:13].[C:4]1([H:10])=[C:6]([H:14])[C:5]1([H:11])[H:12]"
C        1.36209770      -1.62512471      -0.41741471
C        1.60212982      -0.79359146       0.50146008
C        1.17208304       0.33604002       1.15029219
C       -0.41335841       1.02251475      -0.16784955
C       -1.72530715       0.36176409       0.09904816
C       -0.89227865       0.16239597      -1.13151471
H        1.89092937      -2.49148761      -0.77691571
H        0.60654952       0.16970719       2.06504872
H        1.91372646       1.12295826       1.26344925
H       -0.07716036       2.04343330      -0.24753317
H       -2.62786041       0.96615545       0.06723280
H       -1.76533648      -0.45474595       0.81643354
H        0.09444443      -1.11018252      -1.04792315
H       -1.14065887       0.29016324      -2.17381373
14
Frame=11 idx=005645 GeodesicLength=0.9554457463784266 rxn_smarts="[C:1](#[C:2][C:3]([C:4]1([H:10])[C:5]([H:11])([H:12])[C:6]1([H:13])[H:14])([H:8])[H:9])[H:7]>>[C:1](=[C:2]=[C:3]([H:8])[H:9])([H:7])[H:13].[C:4]1([H:10])=[C:6]([H:14])[C:5]1([H:11])[H:12]"
C        1.39505277      -1.62390972      -0.42304027
C        1.62382322      -0.79001238       0.49589062
C        1.16849034       0.32929573       1.15154661
C       -0.41470197       1.01800908      -0.17374253
C       -1.73674438       0.38124448       0.10240842
C       -0.90963653       0.15066835      -1.12739718
H        1.94192112      -2.47929226      -0.78166373
H        0.60048888       0.13851564       2.06045956
H        1.90775529       1.11358755       1.29668696
H       -0.06536970       2.03243456      -0.27763082
H       -2.62841207       1.00089929       0.06427063
H       -1.79010664      -0.42525205       0.82983970
H        0.07568985      -1.12571852      -1.05031048
H       -1.16825020       0.27953024      -2.16731749
14
Frame=12 idx=005645 GeodesicLength=1.0418346766380997 rxn_smarts="[C:1](#[C:2][C:3]([C:4]1([H:10])[C:5]([H:11])([H:12])[C:6]1([H:13])[H:14])([H:8])[H:9])[H:7]>>[C:1](=[C:2]=[C:3]([H:8])[H:9])([H:7])[H:13].[C:4]1([H:10])=[C:6]([H:14])[C:5]1([H:11])[H:12]"
C        1.42944808      -1.62162201      -0.42943676
C        1.64595592      -0.78591447       0.49014082
C        1.16468768       0.32195911       1.15287263
C       -0.41613002       1.01315220      -0.17971553
C       -1.74829955       0.40176786       0.10578711
C       -0.92759822       0.13830862      -1.12241654
H        1.99454851      -2.46540915      -0.78734789
H        0.59418795       0.10587431       2.05501178
H        1.90047503       1.10315425       1.33075659
H       -0.05303655       2.01993359      -0.30855226
H       -2.62841131       1.03691468       0.06029271
H       -1.81542509      -0.39350491       0.84401731
H        0.05556450      -1.14239725      -1.05136599
H       -1.19596693       0.26778315      -2.16004397
14
Frame=13 idx=005645 GeodesicLength=1.128100210195197 rxn_smarts="[C:1](#[C:2][C:3]([C:4]1([H:10])[C:5]([H:11])([H:12])[C:6]1([H:13])[H:14])([H:8])[H:9])[H:7]>>[C:1](=[C:2]=[C:3]([H:8])[H:9])([H:7])[H:13].[C:4]1([H:10])=[C:6]([H:14])[C:5]1([H:11])[H:12]"
C        1.46588015      -1.61743691      -0.43737934
C        1.66887731      -0.78080389       0.48374137
C        1.16077926       0.31410497       1.15412668
C       -0.41774223       1.00805225      -0.18565759
C       -1.75989058       0.42309579       0.10914948
C       -0.94609935       0.12553712      -1.11660181
H        2.04730836      -2.45122386      -0.79222981
H        0.58787138       0.07143810       2.04842258
H        1.89176127       1.09179071       1.36570038
H       -0.04049933       2.00609526      -0.33994697
H       -2.62792132       1.07371984       0.05539572
H       -1.84096423      -0.35984504       0.85874618
H        0.03442719      -1.15981630      -1.05145380
H       -1.22378789       0.25529196      -2.15201308
14
Frame=14 idx=005645 GeodesicLength=1.214276746261873 rxn_smarts="[C:1](#[C:2][C:3]([C:4]1([H:10])[C:5]([H:11])([H:12])[C:6]1([H:13])[H:14])([H:8])[H:9])[H:7]>>[C:1](=[C:2]=[C:3]([H:8])[H:9])([H:7])[H:13].[C:4]1([H:10])=[C:6]([H:14])[C:5]1([H:11])[H:12]"
C        1.50402772      -1.61158332      -0.44652096
C        1.69235023      -0.77491750       0.47699267
C        1.15664029       0.30556959       1.15541223
C       -0.41949450       1.00263570      -0.19162021
C       -1.77153562       0.44549925       0.11248207
C       -0.96523014       0.11217949      -1.10976323
H        2.10133369      -2.43570066      -0.79744786
H        0.58135940       0.03521393       2.04068180
H        1.88155511       1.07915845       1.40152095
H       -0.02753253       1.99062547      -0.37208067
H       -2.62680876       1.11166893       0.04931878
H       -1.86685957      -0.32371336       0.87419140
H        0.01195233      -1.17829200      -1.05008546
H       -1.25175765       0.24165604      -2.14308151
14
Frame=15 idx=005645 GeodesicLength=1.3003881155208208 rxn_smarts="[C:1](#[C:2][C:3]([C:4]1([H:10])[C:5]([H:11])([H:12])[C:6]1([H:13])[H:14])([H:8])[H:9])[H:7]>>[C:1](=[C:2]=[C:3]([H:8])[H:9])([H:7])[H:13].[C:4]1([H:10])=[C:6]([H:14])[C:5]1([H:11])[H:12]"
C        1.54420770      -1.60351493      -0.45729107
C        1.71652750      -0.76797281       0.46967306
C        1.15229859       0.29634979       1.15665886
C       -0.42143718       0.99696248      -0.19754989
C       -1.78317959       0.46890165       0.11575954
C       -0.98497288       0.09833631      -1.10185331
H        2.15595444      -2.41949260      -0.80214492
H        0.57475609      -0.00303564       2.03155704
H        1.86975463       1.06519728       1.43824845
H       -0.01431419       1.97357045      -0.40479990
H       -2.62508436       1.15053424       0.04205519
H       -1.89290331      -0.28516320       0.89025315
H       -0.01172886      -1.19766424      -1.04735296
H       -1.27987858       0.22699122      -2.13321324
14
Frame=16 idx=005645 GeodesicLength=1.3864811120628733 rxn_smarts="[C:1](#[C:2][C:3]([C:4]1([H:10])[C:5]([H:11])([H:12])[C:6]1([H:13])[H:14])([H:8])[H:9])[H:7]>>[C:1](=[C:2]=[C:3]([H:8])[H:9])([H:7])[H:13].[C:4]1([H:10])=[C:6]([H:14])[C:5]1([H:11])[H:12]"
C        1.58627493      -1.59324780      -0.46950038
C        1.74127580      -0.76008034       0.46198142
C        1.14765221       0.28629950       1.15794300
C       -0.42353175       0.99097991      -0.20348525
C       -1.79479153       0.49350406       0.11895086
C       -1.00539106       0.08387971      -1.09268386
H        2.21176220      -2.40180394      -0.80706517
H        0.56792008      -0.04338442       2.02096399
H        1.85626178       1.04959072       1.47594089
H       -0.00068468       1.95466881      -0.43830645
H       -2.62261718       1.19052081       0.03336474
H       -1.91910575      -0.24372431       0.90702116
H       -0.03683348      -1.21816695      -1.04285844
H       -1.30819157       0.21096426      -2.12226650
