10
Frame=0 idx=003940 GeodesicLength=0.0 rxn_smarts="[O:1]=[C:2]([N:3]([C:4]([C:5]#[N:6])([H:9])[H:10])[H:8])[H:7]>>[O:1]([C+:2]([N:3]([C:4](=[C:5]=[N-:6])[H:10])[H:8])[H:7])[H:9]"
O       -1.06600549       1.37942170      -0.26275150
C       -1.32273372       0.10638927      -0.24202613
N       -0.45306888      -0.74622646       0.19439474
C        0.84125690      -0.35292264       0.62406655
C        1.65953163       0.23734910      -0.35109900
N        2.28972832       0.79203956      -1.15055793
H       -2.29310701      -0.20820983      -0.60027730
H       -0.74145975      -1.71448426       0.23848569
H       -0.19744053       1.50565187       0.18514689
H        1.28329853      -0.99900830       1.36461799
10
Frame=1 idx=003940 GeodesicLength=0.09057079871591608 rxn_smarts="[O:1]=[C:2]([N:3]([C:4]([C:5]#[N:6])([H:9])[H:10])[H:8])[H:7]>>[O:1]([C+:2]([N:3]([C:4](=[C:5]=[N-:6])[H:10])[H:8])[H:7])[H:9]"
O       -1.06984763       1.37658386      -0.25616004
C       -1.32629745       0.10470038      -0.25885511
N       -0.45211335      -0.74777370       0.17731961
C        0.83407879      -0.34077671       0.62056597
C        1.66827365       0.23047903      -0.35442945
N        2.29882192       0.79738588      -1.14462103
H       -2.31148739      -0.20988181      -0.57514827
H       -0.73770623      -1.71561128       0.23241581
H       -0.17424164       1.48467395       0.18776516
H        1.27051934      -0.97977960       1.37114735
10
Frame=2 idx=003940 GeodesicLength=0.1811550971118389 rxn_smarts="[O:1]=[C:2]([N:3]([C:4]([C:5]#[N:6])([H:9])[H:10])[H:8])[H:7]>>[O:1]([C+:2]([N:3]([C:4](=[C:5]=[N-:6])[H:10])[H:8])[H:7])[H:9]"
O       -1.07384359       1.37377814      -0.25038625
C       -1.33060715       0.10351731      -0.27350894
N       -0.45145503      -0.74888702       0.16148121
C        0.82711130      -0.32920564       0.61680357
C        1.67653920       0.22372891      -0.35762718
N        2.30707898       0.80243478      -1.13887765
H       -2.32717946      -0.21194315      -0.55211042
H       -0.73413440      -1.71628998       0.22678684
H       -0.15167685       1.46430468       0.19065566
H        1.25816699      -0.96143803       1.37678315
10
Frame=3 idx=003940 GeodesicLength=0.27170501222502896 rxn_smarts="[O:1]=[C:2]([N:3]([C:4]([C:5]#[N:6])([H:9])[H:10])[H:8])[H:7]>>[O:1]([C+:2]([N:3]([C:4](=[C:5]=[N-:6])[H:10])[H:8])[H:7])[H:9]"
O       -1.07806130       1.37116452      -0.24512229
C       -1.33567383       0.10287116      -0.28560216
N       -0.45110010      -0.74956396       0.14708987
C        0.82043541      -0.31816380       0.61289711
C        1.68427580       0.21708187      -0.36078406
N        2.31438740       0.80702765      -1.13359749
H       -2.34044018      -0.21449520      -0.53215339
H       -0.73068448      -1.71656672       0.22167290
H       -0.12958625       1.44457930       0.19398965
H        1.24644755      -0.94393483       1.38160986
10
Frame=4 idx=003940 GeodesicLength=0.362226395660727 rxn_smarts="[O:1]=[C:2]([N:3]([C:4]([C:5]#[N:6])([H:9])[H:10])[H:8])[H:7]>>[O:1]([C+:2]([N:3]([C:4](=[C:5]=[N-:6])[H:10])[H:8])[H:7])[H:9]"
O       -1.08250550       1.36876513      -0.24065350
C       -1.34132088       0.10264720      -0.29567723
N       -0.45097420      -0.74985681       0.13386188
C        0.81403948      -0.30760347       0.60889803
C        1.69164394       0.21059611      -0.36376040
N        2.32106616       0.81120032      -1.12856829
H       -2.35210210      -0.21747028      -0.51418113
H       -0.72720910      -1.71654706       0.21667526
H       -0.10788822       1.42546490       0.19761137
H        1.23525041      -0.92719604       1.38579400
10
Frame=5 idx=003940 GeodesicLength=0.4527551664096033 rxn_smarts="[O:1]=[C:2]([N:3]([C:4]([C:5]#[N:6])([H:9])[H:10])[H:8])[H:7]>>[O:1]([C+:2]([N:3]([C:4](=[C:5]=[N-:6])[H:10])[H:8])[H:7])[H:9]"
O       -1.08729512       1.36661431      -0.23685511
C       -1.34739592       0.10278413      -0.30407112
N       -0.45105208      -0.74978559       0.12171813
C        0.80793542      -0.29748834       0.60485931
C        1.69871129       0.20429405      -0.36652299
N        2.32721432       0.81491634      -1.12381652
H       -2.36252361      -0.22084632      -0.49798449
H       -0.72367908      -1.71627060       0.21173351
H       -0.08648866       1.40695272       0.20150314
H        1.22457343      -0.91117068       1.38943613
10
Frame=6 idx=003940 GeodesicLength=0.5432747799696995 rxn_smarts="[O:1]=[C:2]([N:3]([C:4]([C:5]#[N:6])([H:9])[H:10])[H:8])[H:7]>>[O:1]([C+:2]([N:3]([C:4](=[C:5]=[N-:6])[H:10])[H:8])[H:7])[H:9]"
O       -1.09245565       1.36470265      -0.23390268
C       -1.35382494       0.10320938      -0.31112416
N       -0.45129264      -0.74937840       0.11044125
C        0.80209353      -0.28778606       0.60078962
C        1.70555787       0.19817497      -0.36902693
N        2.33306268       0.81823284      -1.11915813
H       -2.37210349      -0.22458398      -0.48280098
H       -0.72002295      -1.71579381       0.20661136
H       -0.06532247       1.38902178       0.20553853
H        1.21430806      -0.89579937       1.39263211
10
Frame=7 idx=003940 GeodesicLength=0.6337447746735612 rxn_smarts="[O:1]=[C:2]([N:3]([C:4]([C:5]#[N:6])([H:9])[H:10])[H:8])[H:7]>>[O:1]([C+:2]([N:3]([C:4](=[C:5]=[N-:6])[H:10])[H:8])[H:7])[H:9]"
O       -1.09809035       1.36304305      -0.23167126
C       -1.36050705       0.10386883      -0.31710871
N       -0.45167793      -0.74864937       0.09995789
C        0.79650967      -0.27847174       0.59671149
C        1.71221853       0.19223622      -0.37126621
N        2.33866705       0.82113825      -1.11460295
H       -2.38097616      -0.22865182      -0.46847259
H       -0.71624843      -1.71513081       0.20131047
H       -0.04433112       1.37165827       0.20970145
H        1.20443578      -0.88104087       1.39544041
10
Frame=8 idx=003940 GeodesicLength=0.724170889633991 rxn_smarts="[O:1]=[C:2]([N:3]([C:4]([C:5]#[N:6])([H:9])[H:10])[H:8])[H:7]>>[O:1]([C+:2]([N:3]([C:4](=[C:5]=[N-:6])[H:10])[H:8])[H:7])[H:9]"
O       -1.10424977       1.36163707      -0.23015789
C       -1.36741889       0.10473640      -0.32215568
N       -0.45219234      -0.74760598       0.09017284
C        0.79117544      -0.26952121       0.59263103
C        1.71872423       0.18645205      -0.37326248
N        2.34414579       0.82365686      -1.11008658
H       -2.38932138      -0.23306614      -0.45477424
H       -0.71234287      -1.71429649       0.19576936
H       -0.02344106       1.35486093       0.21395081
H        1.19492085      -0.86685348       1.39791283
10
Frame=9 idx=003940 GeodesicLength=0.8149032256832826 rxn_smarts="[O:1]=[C:2]([N:3]([C:4]([C:5]#[N:6])([H:9])[H:10])[H:8])[H:7]>>[O:1]([C+:2]([N:3]([C:4](=[C:5]=[N-:6])[H:10])[H:8])[H:7])[H:9]"
O       -1.11117793       1.36044225      -0.22907921
C       -1.37449441       0.10581352      -0.32634747
N       -0.45285440      -0.74625354       0.08112215
C        0.78610503      -0.26091642       0.58857056
C        1.72506559       0.18078270      -0.37510301
N        2.34952175       0.82575787      -1.10570746
H       -2.39708237      -0.23779934      -0.44199151
H       -0.70835613      -1.71328218       0.19011524
H       -0.00253003       1.33865364       0.21832647
H        1.18580292      -0.85319851       1.40009423
10
Frame=10 idx=003940 GeodesicLength=0.9051943326010641 rxn_smarts="[O:1]=[C:2]([N:3]([C:4]([C:5]#[N:6])([H:9])[H:10])[H:8])[H:7]>>[O:1]([C+:2]([N:3]([C:4](=[C:5]=[N-:6])[H:10])[H:8])[H:7])[H:9]"
O       -1.11865610       1.35955032      -0.22856905
C       -1.38171911       0.10701986      -0.32991456
N       -0.45361005      -0.74459109       0.07269926
C        0.78127728      -0.25263886       0.58453873
C        1.73126798       0.17524390      -0.37670365
N        2.35473948       0.82746643      -1.10140704
H       -2.40440750      -0.24286236      -0.42977254
H       -0.70425959      -1.71207624       0.18429974
H        0.01832453       1.32296380       0.22284975
H        1.17704307      -0.84007575       1.40197935
10
Frame=11 idx=003940 GeodesicLength=0.9955583616357606 rxn_smarts="[O:1]=[C:2]([N:3]([C:4]([C:5]#[N:6])([H:9])[H:10])[H:8])[H:7]>>[O:1]([C+:2]([N:3]([C:4](=[C:5]=[N-:6])[H:10])[H:8])[H:7])[H:9]"
O       -1.12694861       1.35889299      -0.22834989
C       -1.38906526       0.10839020      -0.33281692
N       -0.45449599      -0.74262067       0.06497256
C        0.77671677      -0.24467134       0.58056521
C        1.73732404       0.16978978      -0.37817961
N        2.35984265       0.82875730      -1.09731173
H       -2.41124496      -0.24825593      -0.41852516
H       -0.70011234      -1.71067806       0.17844277
H        0.03928513       1.30784738       0.22757509
H        1.16869856      -0.82745165       1.40362768
10
Frame=12 idx=003940 GeodesicLength=1.0858873092482455 rxn_smarts="[O:1]=[C:2]([N:3]([C:4]([C:5]#[N:6])([H:9])[H:10])[H:8])[H:7]>>[O:1]([C+:2]([N:3]([C:4](=[C:5]=[N-:6])[H:10])[H:8])[H:7])[H:9]"
O       -1.13604907       1.35852194      -0.22842824
C       -1.39652741       0.10989865      -0.33511789
N       -0.45549816      -0.74033313       0.05792038
C        0.77242378      -0.23700289       0.57665464
C        1.74323479       0.16439154      -0.37954801
N        2.36482232       0.82963270      -1.09341852
H       -2.41766050      -0.25401371      -0.40822659
H       -0.69590730      -1.70907058       0.17255052
H        0.06038949       1.29327969       0.23256061
H        1.16077204      -0.81530421       1.40505309
10
Frame=13 idx=003940 GeodesicLength=1.1762669606697098 rxn_smarts="[O:1]=[C:2]([N:3]([C:4]([C:5]#[N:6])([H:9])[H:10])[H:8])[H:7]>>[O:1]([C+:2]([N:3]([C:4](=[C:5]=[N-:6])[H:10])[H:8])[H:7])[H:9]"
O       -1.14603104       1.35841667      -0.22878433
C       -1.40410336       0.11154279      -0.33683026
N       -0.45661915      -0.73772558       0.05153806
C        0.76840185      -0.22961961       0.57282203
C        1.74900870       0.15902434      -0.38084341
N        2.36970295       0.83009313      -1.08975263
H       -2.42369257      -0.26013601      -0.39891635
H       -0.69164903      -1.70725074       0.16662259
H        0.08171079       1.27926655       0.23785651
H        1.15327084      -0.80361154       1.40628778
10
Frame=14 idx=003940 GeodesicLength=1.2666648707030272 rxn_smarts="[O:1]=[C:2]([N:3]([C:4]([C:5]#[N:6])([H:9])[H:10])[H:8])[H:7]>>[O:1]([C+:2]([N:3]([C:4](=[C:5]=[N-:6])[H:10])[H:8])[H:7])[H:9]"
O       -1.15690295       1.35860244      -0.22944937
C       -1.41179661       0.11331130      -0.33796697
N       -0.45785401      -0.73478881       0.04582784
C        0.76465621      -0.22251420       0.56908079
C        1.75464623       0.15366696      -0.38208619
N        2.37446399       0.83014348      -1.08633911
H       -2.42938903      -0.26664656      -0.39063055
H       -0.68733578      -1.70520526       0.16066718
H        0.10330182       1.26579618       0.24354796
H        1.14621013      -0.79236554       1.40734841
10
Frame=15 idx=003940 GeodesicLength=1.3571076604370707 rxn_smarts="[O:1]=[C:2]([N:3]([C:4]([C:5]#[N:6])([H:9])[H:10])[H:8])[H:7]>>[O:1]([C+:2]([N:3]([C:4](=[C:5]=[N-:6])[H:10])[H:8])[H:7])[H:9]"
O       -1.16871680       1.35908041      -0.23040438
C       -1.41961072       0.11520440      -0.33851780
N       -0.45920420      -0.73151155       0.04080450
C        0.76119571      -0.21567706       0.56544616
C        1.76014893       0.14829753      -0.38330794
N        2.37909542       0.82977754      -1.08322237
H       -2.43477864      -0.27356633      -0.38347288
H       -0.68297435      -1.70291803       0.15470603
H        0.12523393       1.25286670       0.24971190
H        1.13961073      -0.78155360       1.40825678
10
Frame=16 idx=003940 GeodesicLength=1.4475815019269056 rxn_smarts="[O:1]=[C:2]([N:3]([C:4]([C:5]#[N:6])([H:9])[H:10])[H:8])[H:7]>>[O:1]([C+:2]([N:3]([C:4](=[C:5]=[N-:6])[H:10])[H:8])[H:7])[H:9]"
O       -1.18145842       1.35985611      -0.23179018
C       -1.42755279       0.11721496      -0.33846417
N       -0.46066462      -0.72788330       0.03647209
C        0.75802353      -0.20910630       0.56194001
C        1.76551774       0.14291218      -0.38451088
N        2.38355467       0.82901747      -1.08043002
H       -2.43990629      -0.28090168      -0.37743147
H       -0.67855937      -1.70037508       0.14872584
H        0.14755902       1.24046422       0.25646714
H        1.13348655      -0.77119858       1.40902164
