15
Frame=0 idx=008912 GeodesicLength=0.0 rxn_smarts="[C:1]([n:2]1[c:3]([H:11])[c:4]([H:12])[c:5]([H:13])[c:6]1[N:7]([H:14])[H:15])([H:8])([H:9])[H:10]>>[C:1]([N:2]1[C:3]([H:11])=[C-:4][C:5]([H:12])([H:13])[C+:6]1[N:7]([H:14])[H:15])([H:8])([H:9])[H:10]"
C       -1.29628131      -1.24999716       0.39941260
N       -0.05048384      -0.53932224       0.20733333
C        1.22421914      -1.07496432       0.35609771
C        2.22711793      -0.16196959       0.10954986
C        1.40533439       1.02781033      -0.32843074
C        0.03569784       0.72979942      -0.19694282
N       -1.09199198       1.48929908      -0.47063792
H       -1.95138493      -1.09646001      -0.45918450
H       -1.08238516      -2.31124923       0.50017757
H       -1.80473213      -0.91036830       1.30453935
H        1.29845871      -2.10415324       0.67849501
H        1.97756488       0.29272595      -1.13616821
H        1.80285373       2.02024168      -0.48985056
H       -1.82116192       1.44392483       0.22508481
H       -0.87282532       2.44468279      -0.69947555
15
Frame=1 idx=008912 GeodesicLength=0.05031682918144744 rxn_smarts="[C:1]([n:2]1[c:3]([H:11])[c:4]([H:12])[c:5]([H:13])[c:6]1[N:7]([H:14])[H:15])([H:8])([H:9])[H:10]>>[C:1]([N:2]1[C:3]([H:11])=[C-:4][C:5]([H:12])([H:13])[C+:6]1[N:7]([H:14])[H:15])([H:8])([H:9])[H:10]"
C       -1.29844675      -1.25083868       0.40338358
N       -0.05347270      -0.54169663       0.20294553
C        1.22377820      -1.07621110       0.35546226
C        2.22180709      -0.16007147       0.11145542
C        1.40459852       1.02720966      -0.33064448
C        0.03361142       0.72679653      -0.20266248
N       -1.09304193       1.48799172      -0.47126269
H       -1.96240385      -1.09071853      -0.44720301
H       -1.08603371      -2.31342366       0.49387619
H       -1.79726413      -0.91666157       1.31595758
H        1.29873881      -2.10669350       0.67340129
H        2.00292214       0.29817033      -1.14431738
H        1.79849464       2.02492101      -0.46742299
H       -1.81755285       1.45327084       0.22972085
H       -0.87573490       2.43795506      -0.72268967
15
Frame=2 idx=008912 GeodesicLength=0.10062274617972689 rxn_smarts="[C:1]([n:2]1[c:3]([H:11])[c:4]([H:12])[c:5]([H:13])[c:6]1[N:7]([H:14])[H:15])([H:8])([H:9])[H:10]>>[C:1]([N:2]1[C:3]([H:11])=[C-:4][C:5]([H:12])([H:13])[C+:6]1[N:7]([H:14])[H:15])([H:8])([H:9])[H:10]"
C       -1.30062704      -1.25157776       0.40753325
N       -0.05650467      -0.54400456       0.19876296
C        1.22329297      -1.07746358       0.35478015
C        2.21644169      -0.15826632       0.11307218
C        1.40383929       1.02664606      -0.33288252
C        0.03150372       0.72381777      -0.20828901
N       -1.09405202       1.48670485      -0.47200782
H       -1.97333275      -1.08486091      -0.43490334
H       -1.08986206      -2.31542586       0.48775929
H       -1.78972456      -0.92290270       1.32742517
H        1.29899288      -2.10943739       0.66753552
H        2.02909155       0.30408424      -1.15190493
H        1.79372862       2.02918696      -0.44483517
H       -1.81386597       1.46275030       0.23404819
H       -0.87892167       2.43074889      -0.74609392
15
Frame=3 idx=008912 GeodesicLength=0.15093139314266626 rxn_smarts="[C:1]([n:2]1[c:3]([H:11])[c:4]([H:12])[c:5]([H:13])[c:6]1[N:7]([H:14])[H:15])([H:8])([H:9])[H:10]>>[C:1]([N:2]1[C:3]([H:11])=[C-:4][C:5]([H:12])([H:13])[C+:6]1[N:7]([H:14])[H:15])([H:8])([H:9])[H:10]"
C       -1.30282427      -1.25221212       0.41186610
N       -0.05958161      -0.54624350       0.19479299
C        1.22276199      -1.07872737       0.35404156
C        2.21102463      -0.15656031       0.11438782
C        1.40305840       1.02612088      -0.33514023
C        0.02937398       0.72086557      -0.21381218
N       -1.09502122       1.48544203      -0.47287812
H       -1.98417280      -1.07887989      -0.42228042
H       -1.09387521      -2.31725417       0.48182850
H       -1.78211594      -0.92909382       1.33894904
H        1.29921730      -2.11238111       0.66088171
H        2.05609998       0.31049478      -1.15888535
H        1.78855926       2.03302000      -0.42213560
H       -1.81011538       1.47235767       0.23804577
H       -0.88238911       2.42305136      -0.76966159
15
Frame=4 idx=008912 GeodesicLength=0.20125285182872027 rxn_smarts="[C:1]([n:2]1[c:3]([H:11])[c:4]([H:12])[c:5]([H:13])[c:6]1[N:7]([H:14])[H:15])([H:8])([H:9])[H:10]>>[C:1]([N:2]1[C:3]([H:11])=[C-:4][C:5]([H:12])([H:13])[C+:6]1[N:7]([H:14])[H:15])([H:8])([H:9])[H:10]"
C       -1.30503427      -1.25274731       0.41635391
N       -0.06270371      -0.54839393       0.19108765
C        1.22218778      -1.07998240       0.35330559
C        2.20556010      -0.15496276       0.11536823
C        1.40225445       1.02562255      -0.33745073
C        0.02722424       0.71796040      -0.21917609
N       -1.09594752       1.48421859      -0.47384457
H       -1.99487867      -1.07277093      -0.40939037
H       -1.09805725      -2.31891221       0.47604277
H       -1.77448370      -0.93527019       1.35048246
H        1.29941255      -2.11548727       0.65352053
H        2.08391702       0.31736568      -1.16525007
H        1.78300976       2.03638793      -0.39949016
H       -1.80633628       1.48207091       0.24170516
H       -0.88612448       2.41490093      -0.79326431
15
Frame=5 idx=008912 GeodesicLength=0.2515980708400102 rxn_smarts="[C:1]([n:2]1[c:3]([H:11])[c:4]([H:12])[c:5]([H:13])[c:6]1[N:7]([H:14])[H:15])([H:8])([H:9])[H:10]>>[C:1]([N:2]1[C:3]([H:11])=[C-:4][C:5]([H:12])([H:13])[C+:6]1[N:7]([H:14])[H:15])([H:8])([H:9])[H:10]"
C       -1.30725708      -1.25319833       0.42095661
N       -0.06587134      -0.55044236       0.18768420
C        1.22157206      -1.08121374       0.35261895
C        2.20005464      -0.15348588       0.11596205
C        1.40142569       1.02513505      -0.33986449
C        0.02505321       0.71511865      -0.22433362
N       -1.09683558       1.48304646      -0.47486892
H       -2.00541547      -1.06653690      -0.39629947
H       -1.10239254      -2.32041231       0.47034200
H       -1.76687441      -0.94148140       1.36197382
H        1.29957727      -2.11869497       0.64562239
H        2.11251624       0.32466317      -1.17100907
H        1.77711077       2.03926365      -0.37706996
H       -1.80255884       1.49186713       0.24504309
H       -0.89010463       2.40637178      -0.81675759
15
Frame=6 idx=008912 GeodesicLength=0.30196877980236475 rxn_smarts="[C:1]([n:2]1[c:3]([H:11])[c:4]([H:12])[c:5]([H:13])[c:6]1[N:7]([H:14])[H:15])([H:8])([H:9])[H:10]>>[C:1]([N:2]1[C:3]([H:11])=[C-:4][C:5]([H:12])([H:13])[C+:6]1[N:7]([H:14])[H:15])([H:8])([H:9])[H:10]"
C       -1.30949980      -1.25356964       0.42564633
N       -0.06908221      -0.55238153       0.18459316
C        1.22091506      -1.08242697       0.35196419
C        2.19452105      -0.15214835       0.11610393
C        1.40058257       1.02465459      -0.34240952
C        0.02286323       0.71235277      -0.22925320
N       -1.09767875       1.48195250      -0.47590784
H       -2.01578678      -1.06015936      -0.38304022
H       -1.10688550      -2.32175757       0.46466896
H       -1.75930920      -0.94776199       1.37340391
H        1.29969667      -2.12194320       0.63733602
H        2.14191593       0.33241364      -1.17615292
H        1.77089239       2.04161942      -0.35494822
H       -1.79878460       1.50175328       0.24809755
H       -0.89436004       2.39740240      -0.84010214
15
Frame=7 idx=008912 GeodesicLength=0.3523696388394707 rxn_smarts="[C:1]([n:2]1[c:3]([H:11])[c:4]([H:12])[c:5]([H:13])[c:6]1[N:7]([H:14])[H:15])([H:8])([H:9])[H:10]>>[C:1]([N:2]1[C:3]([H:11])=[C-:4][C:5]([H:12])([H:13])[C+:6]1[N:7]([H:14])[H:15])([H:8])([H:9])[H:10]"
C       -1.31176502      -1.25386961       0.43039321
N       -0.07233624      -0.55419733       0.18184622
C        1.22021738      -1.08360911       0.35137676
C        2.18896707      -0.15096367       0.11574264
C        1.39972673       1.02417071      -0.34512058
C        0.02065325       0.70968042      -0.23388941
N       -1.09847667       1.48095617      -0.47692217
H       -2.02597231      -1.05363166      -0.36965970
H       -1.11152759      -2.32295179       0.45896960
H       -1.75182526      -0.95415422       1.38473809
H        1.29976287      -2.12518942       0.62877489
H        2.17211371       0.34059936      -1.18066582
H        1.76439883       2.04344452      -0.33326227
H       -1.79503509       1.51172029       0.25089304
H       -0.89890164       2.38799536      -0.86321450
15
Frame=8 idx=008912 GeodesicLength=0.40284005060187783 rxn_smarts="[C:1]([n:2]1[c:3]([H:11])[c:4]([H:12])[c:5]([H:13])[c:6]1[N:7]([H:14])[H:15])([H:8])([H:9])[H:10]>>[C:1]([N:2]1[C:3]([H:11])=[C-:4][C:5]([H:12])([H:13])[C+:6]1[N:7]([H:14])[H:15])([H:8])([H:9])[H:10]"
C       -1.31405236      -1.25411918       0.43514891
N       -0.07563450      -0.55587551       0.17948357
C        1.21948205      -1.08473138       0.35094258
C        2.18339649      -0.14994348       0.11482613
C        1.39884860       1.02366044      -0.34806034
C        0.01841878       0.70712065      -0.23818947
N       -1.09924264       1.48006369      -0.47786816
H       -2.03593305      -1.04696931      -0.35623852
H       -1.11629301      -2.32400969       0.45317528
H       -1.74448265      -0.96071792       1.39591069
H        1.29977991      -2.12838014       0.62013120
H        2.20307162       0.34915956      -1.18457926
H        1.75768695       2.04473422      -0.31221227
H       -1.79134947       1.52173544       0.25345946
H       -0.90369672       2.37827261      -0.88592980
15
Frame=9 idx=008912 GeodesicLength=0.4530749952390678 rxn_smarts="[C:1]([n:2]1[c:3]([H:11])[c:4]([H:12])[c:5]([H:13])[c:6]1[N:7]([H:14])[H:15])([H:8])([H:9])[H:10]>>[C:1]([N:2]1[C:3]([H:11])=[C-:4][C:5]([H:12])([H:13])[C+:6]1[N:7]([H:14])[H:15])([H:8])([H:9])[H:10]"
C       -1.31637179      -1.25431315       0.43998086
N       -0.07898645      -0.55744671       0.17743520
C        1.21869660      -1.08584720       0.35050365
C        2.17778616      -0.14910107       0.11331391
C        1.39793490       1.02310711      -0.35128569
C        0.01614151       0.70463146      -0.24225917
N       -1.10000445       1.47922845      -0.47882964
H       -2.04574927      -1.04018996      -0.34265645
H       -1.12121251      -2.32492295       0.44738403
H       -1.73720597      -0.96739814       1.40701604
H        1.29971572      -2.13154292       0.61125841
H        2.23494756       0.35826325      -1.18764561
H        1.75073433       2.04550462      -0.29164626
H       -1.78770952       1.53180882       0.25575970
H       -0.90871683       2.36821840      -0.90832899
15
Frame=10 idx=008912 GeodesicLength=0.5033514692243677 rxn_smarts="[C:1]([n:2]1[c:3]([H:11])[c:4]([H:12])[c:5]([H:13])[c:6]1[N:7]([H:14])[H:15])([H:8])([H:9])[H:10]>>[C:1]([N:2]1[C:3]([H:11])=[C-:4][C:5]([H:12])([H:13])[C+:6]1[N:7]([H:14])[H:15])([H:8])([H:9])[H:10]"
C       -1.31872337      -1.25446539       0.44482018
N       -0.08238613      -0.55888297       0.17576249
C        1.21786995      -1.08691204       0.35019413
C        2.17216172      -0.14845193       0.11115469
C        1.39699209       1.02251325      -0.35478251
C        0.01382902       0.70225260      -0.24599780
N       -1.10075058       1.47849388      -0.47971521
H       -2.05536441      -1.03328163      -0.32902772
H       -1.12625949      -2.32570028       0.44148208
H       -1.73007665      -0.97427346       1.41796854
H        1.29958331      -2.13462973       0.60237341
H        2.26764435       0.36780865      -1.18999321
H        1.74362792       2.04574563      -0.27178572
H       -1.78414793       1.54192341       0.25785474
H       -0.91399979       2.35785998      -0.93030809
15
Frame=11 idx=008912 GeodesicLength=0.5536320137881098 rxn_smarts="[C:1]([n:2]1[c:3]([H:11])[c:4]([H:12])[c:5]([H:13])[c:6]1[N:7]([H:14])[H:15])([H:8])([H:9])[H:10]>>[C:1]([N:2]1[C:3]([H:11])=[C-:4][C:5]([H:12])([H:13])[C+:6]1[N:7]([H:14])[H:15])([H:8])([H:9])[H:10]"
C       -1.32111536      -1.25456947       0.44969580
N       -0.08583741      -0.56019285       0.17443813
C        1.21699724      -1.08794768       0.34995028
C        2.16652241      -0.14800824       0.10832275
C        1.39602225       1.02188014      -0.35854873
C        0.01147513       0.69997275      -0.24943795
N       -1.10148392       1.47785675      -0.48054493
H       -2.06481896      -1.02623632      -0.31529744
H       -1.13145514      -2.32633208       0.43549637
H       -1.72306363      -0.98132776       1.42881478
H        1.29936185      -2.13765344       0.59339214
H        2.30124188       0.37788060      -1.19149612
H        1.73638511       2.04546295      -0.25259256
H       -1.78065443       1.55209315       0.25974174
H       -0.91957701       2.34712152      -0.95193424
15
Frame=12 idx=008912 GeodesicLength=0.6039404536353484 rxn_smarts="[C:1]([n:2]1[c:3]([H:11])[c:4]([H:12])[c:5]([H:13])[c:6]1[N:7]([H:14])[H:15])([H:8])([H:9])[H:10]>>[C:1]([N:2]1[C:3]([H:11])=[C-:4][C:5]([H:12])([H:13])[C+:6]1[N:7]([H:14])[H:15])([H:8])([H:9])[H:10]"
C       -1.32355152      -1.25462920       0.45461931
N       -0.08934454      -0.56138432       0.17344661
C        1.21607630      -1.08896247       0.34975222
C        2.16086063      -0.14778502       0.10478124
C        1.39501564       1.02119905      -0.36260082
C        0.00907193       0.69778128      -0.25260503
N       -1.10221979       1.47730047      -0.48133556
H       -2.07413004      -1.01906489      -0.30144335
H       -1.13680391      -2.32681778       0.42944308
H       -1.71615740      -0.98855860       1.43956919
H        1.29904258      -2.14061718       0.58431054
H        2.33577841       0.38852701      -1.19207923
H        1.72903003       2.04466610      -0.23407773
H       -1.77723164       1.56231372       0.26142066
H       -0.92543665       2.33603182      -0.97320113
15
Frame=13 idx=008912 GeodesicLength=0.6543071666576454 rxn_smarts="[C:1]([n:2]1[c:3]([H:11])[c:4]([H:12])[c:5]([H:13])[c:6]1[N:7]([H:14])[H:15])([H:8])([H:9])[H:10]>>[C:1]([N:2]1[C:3]([H:11])=[C-:4][C:5]([H:12])([H:13])[C+:6]1[N:7]([H:14])[H:15])([H:8])([H:9])[H:10]"
C       -1.32603460      -1.25465393       0.45957595
N       -0.09290867      -0.56245295       0.17279791
C        1.21510835      -1.08994429       0.34963080
C        2.15517268      -0.14779102       0.10048464
C        1.39396187       1.02045341      -0.36698582
C        0.00661257       0.69568173      -0.25549246
N       -1.10297015       1.47682660      -0.48206465
H       -2.08329334      -1.01177361      -0.28748463
H       -1.14229656      -2.32716155       0.42329205
H       -1.70937601      -0.99599504       1.45021472
H        1.29862300      -2.14350668       0.57519595
H        2.37126291       0.39973201      -1.19168999
H        1.72160621       2.04337237      -0.21633247
H       -1.77389255       1.57257230       0.26292021
H       -0.93157571       2.32464066      -0.99406222
15
Frame=14 idx=008912 GeodesicLength=0.7046867570989628 rxn_smarts="[C:1]([n:2]1[c:3]([H:11])[c:4]([H:12])[c:5]([H:13])[c:6]1[N:7]([H:14])[H:15])([H:8])([H:9])[H:10]>>[C:1]([N:2]1[C:3]([H:11])=[C-:4][C:5]([H:12])([H:13])[C+:6]1[N:7]([H:14])[H:15])([H:8])([H:9])[H:10]"
C       -1.32856876      -1.25463043       0.46462000
N       -0.09653562      -0.56341919       0.17243978
C        1.21408639      -1.09093323       0.34947276
C        2.14944704      -0.14806217       0.09535781
C        1.39285468       1.01964525      -0.37169557
C        0.00408815       0.69364553      -0.25817450
N       -1.10374478       1.47641052      -0.48279032
H       -2.09236090      -1.00435838      -0.27332328
H       -1.14796417      -2.32734968       0.41711581
H       -1.70265406      -1.00358896       1.46082385
H        1.29807835      -2.14635567       0.56593069
H        2.40779514       0.41164921      -1.19014138
H        1.71410581       2.04157352      -0.19922533
H       -1.77061316       1.58288816       0.26421099
H       -0.93801411       2.31288552      -1.01462132
15
Frame=15 idx=008912 GeodesicLength=0.7550734416749711 rxn_smarts="[C:1]([n:2]1[c:3]([H:11])[c:4]([H:12])[c:5]([H:13])[c:6]1[N:7]([H:14])[H:15])([H:8])([H:9])[H:10]>>[C:1]([N:2]1[C:3]([H:11])=[C-:4][C:5]([H:12])([H:13])[C+:6]1[N:7]([H:14])[H:15])([H:8])([H:9])[H:10]"
C       -1.33115486      -1.25456473       0.46974489
N       -0.10022663      -0.56428583       0.17236102
C        1.21301098      -1.09192913       0.34926925
C        2.14367697      -0.14862478       0.08930727
C        1.39168330       1.01875942      -0.37678203
C        0.00149109       0.69166573      -0.26067487
N       -1.10455600       1.47604712      -0.48350655
H       -2.10133768      -0.99682475      -0.25895741
H       -1.15380522      -2.32738405       0.41090116
H       -1.69598742      -1.01135446       1.47139082
H        1.29740049      -2.14914641       0.55660315
H        2.44538975       0.42431140      -1.18733331
H        1.70655687       2.03926525      -0.18279508
H       -1.76738952       1.59325531       0.26531615
H       -0.94475212       2.30080991      -1.03484446
15
Frame=16 idx=008912 GeodesicLength=0.8054428306172324 rxn_smarts="[C:1]([n:2]1[c:3]([H:11])[c:4]([H:12])[c:5]([H:13])[c:6]1[N:7]([H:14])[H:15])([H:8])([H:9])[H:10]>>[C:1]([N:2]1[C:3]([H:11])=[C-:4][C:5]([H:12])([H:13])[C+:6]1[N:7]([H:14])[H:15])([H:8])([H:9])[H:10]"
C       -1.33379379      -1.25444415       0.47499947
N       -0.10398739      -0.56507077       0.17251381
C        1.21187725      -1.09296594       0.34891973
C        2.13784840      -0.14952105       0.08222168
C        1.39043564       1.01779441      -0.38225322
C       -0.00118862       0.68971409      -0.26307101
N       -1.10541720       1.47571289      -0.48426365
H       -2.11026350      -0.98916699      -0.24429487
H       -1.15984572      -2.32725176       0.40471416
H       -1.68931238      -1.01924747       1.48197666
H        1.29656811      -2.15191021       0.54712338
H        2.48413034       0.43785564      -1.18304972
H        1.69895191       2.03643732      -0.16693138
H       -1.76419958       1.60368637       0.26621175
H       -0.95180348       2.28837762      -1.05481678
