14
Frame=0 idx=007012 GeodesicLength=0.0 rxn_smarts="[C:1]([C@@:2]1([H:11])[C:3]([H:12])=[C:4]([H:13])[N:5]([H:14])[C:6]1=[O:7])([H:8])([H:9])[H:10]>>[C:1]([C:6](/[C:2](=[C:3]([C:4](=[N:5]\[H:14])\[H:13])/[H:12])[H:11])=[O:7])([H:8])([H:9])[H:10]"
C       -1.42326334      -0.40805667       0.49964964
C       -0.18970141       0.73596652      -0.90095555
C        0.80327967       1.37591250      -0.18494590
C        1.54331476       0.38033498       0.45380030
N        1.03818862      -0.80903570       0.19403744
C       -0.12559412      -0.72324936      -0.71446235
O       -0.42402757      -1.67480657      -1.45638049
H       -2.32030826      -0.06172380      -0.00496616
H       -1.17201517       0.20980273       1.35867915
H       -1.53902632      -1.45706201       0.75903376
H       -0.94948696       1.18483622      -1.52185780
H        0.94999112       2.43694116      -0.06560256
H        2.37700981       0.50806032       1.13098216
H        1.43163920      -1.69792028       0.45298839
14
Frame=1 idx=007012 GeodesicLength=0.09026572131538474 rxn_smarts="[C:1]([C@@:2]1([H:11])[C:3]([H:12])=[C:4]([H:13])[N:5]([H:14])[C:6]1=[O:7])([H:8])([H:9])[H:10]>>[C:1]([C:6](/[C:2](=[C:3]([C:4](=[N:5]\[H:14])\[H:13])/[H:12])[H:11])=[O:7])([H:8])([H:9])[H:10]"
C       -1.43934829      -0.40320557       0.49279938
C       -0.20251686       0.73046749      -0.88393702
C        0.80046642       1.37139675      -0.17959695
C        1.55632200       0.38211267       0.45168227
N        1.05740168      -0.81366399       0.20333368
C       -0.12820455      -0.73190083      -0.71050548
O       -0.42266621      -1.67362317      -1.46218000
H       -2.33808044      -0.03637066       0.00512508
H       -1.17755253       0.19119967       1.36525998
H       -1.58006330      -1.45232980       0.74032938
H       -0.93725362       1.17625180      -1.53646389
H        0.94061788       2.43333129      -0.05941796
H        2.40287365       0.52119302       1.11088793
H        1.46800419      -1.69485868       0.46268359
14
Frame=2 idx=007012 GeodesicLength=0.18043739988955287 rxn_smarts="[C:1]([C@@:2]1([H:11])[C:3]([H:12])=[C:4]([H:13])[N:5]([H:14])[C:6]1=[O:7])([H:8])([H:9])[H:10]>>[C:1]([C:6](/[C:2](=[C:3]([C:4](=[N:5]\[H:14])\[H:13])/[H:12])[H:11])=[O:7])([H:8])([H:9])[H:10]"
C       -1.45587826      -0.39833748       0.48587827
C       -0.21521948       0.72459623      -0.86701017
C        0.79715949       1.36667895      -0.17378761
C        1.56918345       0.38407181       0.44960192
N        1.07714939      -0.81822741       0.21267162
C       -0.13111251      -0.74080922      -0.70616977
O       -0.42136625      -1.67252114      -1.46769492
H       -2.35555440      -0.00976436       0.01620360
H       -1.18342850       0.17114731       1.37174257
H       -1.62236322      -1.44699027       0.72028175
H       -0.92383829       1.16694643      -1.55026962
H        0.93136049       2.42951409      -0.05371229
H        2.42844959       0.53489434       1.09000190
H        1.50545850      -1.69119929       0.47226275
14
Frame=3 idx=007012 GeodesicLength=0.2704914056955735 rxn_smarts="[C:1]([C@@:2]1([H:11])[C:3]([H:12])=[C:4]([H:13])[N:5]([H:14])[C:6]1=[O:7])([H:8])([H:9])[H:10]>>[C:1]([C:6](/[C:2](=[C:3]([C:4](=[N:5]\[H:14])\[H:13])/[H:12])[H:11])=[O:7])([H:8])([H:9])[H:10]"
C       -1.47277620      -0.39335432       0.47886582
C       -0.22772603       0.71828229      -0.85034287
C        0.79344768       1.36169478      -0.16765617
C        1.58196919       0.38617197       0.44742930
N        1.09752930      -0.82276169       0.22192422
C       -0.13431030      -0.75005035      -0.70148135
O       -0.42018969      -1.67161758      -1.47286047
H       -2.37256604       0.01819062       0.02835527
H       -1.18954957       0.14970992       1.37800320
H       -1.66586358      -1.44084125       0.69889273
H       -0.90936842       1.15690628      -1.56318095
H        0.92192371       2.42543454      -0.04819575
H        2.45348392       0.54915909       1.06852690
H        1.54399603      -1.68692430       0.48172013
14
Frame=4 idx=007012 GeodesicLength=0.36044019770587177 rxn_smarts="[C:1]([C@@:2]1([H:11])[C:3]([H:12])=[C:4]([H:13])[N:5]([H:14])[C:6]1=[O:7])([H:8])([H:9])[H:10]>>[C:1]([C:6](/[C:2](=[C:3]([C:4](=[N:5]\[H:14])\[H:13])/[H:12])[H:11])=[O:7])([H:8])([H:9])[H:10]"
C       -1.49012471      -0.38820611       0.47164499
C       -0.23995435       0.71148082      -0.83397303
C        0.78930282       1.35642261      -0.16105580
C        1.59456889       0.38842669       0.44541780
N        1.11853070      -0.82725936       0.23125816
C       -0.13775945      -0.75967871      -0.69636318
O       -0.41901677      -1.67100579      -1.47757618
H       -2.38903800       0.04750270       0.04145023
H       -1.19614832       0.12687704       1.38387905
H       -1.71068236      -1.43373407       0.67598139
H       -0.89388350       1.14612653      -1.57512397
H        0.91198382       2.42106955      -0.04239417
H        2.47872865       0.56394954       1.04546537
H        1.58349257      -1.68197144       0.49138934
14
Frame=5 idx=007012 GeodesicLength=0.4502447746895824 rxn_smarts="[C:1]([C@@:2]1([H:11])[C:3]([H:12])=[C:4]([H:13])[N:5]([H:14])[C:6]1=[O:7])([H:8])([H:9])[H:10]>>[C:1]([C:6](/[C:2](=[C:3]([C:4](=[N:5]\[H:14])\[H:13])/[H:12])[H:11])=[O:7])([H:8])([H:9])[H:10]"
C       -1.50776306      -0.38280901       0.46426814
C       -0.25187465       0.70414725      -0.81805746
C        0.78484509       1.35080190      -0.15421996
C        1.60712840       0.39078537       0.44327013
N        1.14031101      -0.83175827       0.24036737
C       -0.14148020      -0.76975475      -0.69089329
O       -0.41800574      -1.67077422      -1.48183003
H       -2.40474016       0.07824186       0.05575539
H       -1.20298220       0.10266914       1.38930974
H       -1.75662713      -1.42548044       0.65161287
H       -0.87763624       1.13461914      -1.58604390
H        0.90156258       2.41635419      -0.03641591
H        2.50324838       0.57928853       1.02183144
H        1.62401392      -1.67633071       0.50104546
14
Frame=6 idx=007012 GeodesicLength=0.5399232666650656 rxn_smarts="[C:1]([C@@:2]1([H:11])[C:3]([H:12])=[C:4]([H:13])[N:5]([H:14])[C:6]1=[O:7])([H:8])([H:9])[H:10]>>[C:1]([C:6](/[C:2](=[C:3]([C:4](=[N:5]\[H:14])\[H:13])/[H:12])[H:11])=[O:7])([H:8])([H:9])[H:10]"
C       -1.52578063      -0.37715319       0.45662990
C       -0.26344514       0.69627155      -0.80255377
C        0.78002084       1.34482903      -0.14692891
C        1.61950117       0.39327089       0.44132107
N        1.16285332      -0.83623672       0.24942419
C       -0.14544032      -0.78030526      -0.68499018
O       -0.41702306      -1.67097195      -1.48554922
H       -2.41959276       0.11031775       0.07116995
H       -1.21034605       0.07699858       1.39414851
H       -1.80379850      -1.41592001       0.62556735
H       -0.86067879       1.12240533      -1.59589768
H        0.89051429       2.41127357      -0.02995046
H        2.52780433       0.59514776       0.99655692
H        1.66541130      -1.66992731       0.51105234
14
Frame=7 idx=007012 GeodesicLength=0.6294237855304666 rxn_smarts="[C:1]([C@@:2]1([H:11])[C:3]([H:12])=[C:4]([H:13])[N:5]([H:14])[C:6]1=[O:7])([H:8])([H:9])[H:10]>>[C:1]([C:6](/[C:2](=[C:3]([C:4](=[N:5]\[H:14])\[H:13])/[H:12])[H:11])=[O:7])([H:8])([H:9])[H:10]"
C       -1.54403074      -0.37118795       0.44878325
C       -0.27466144       0.68783897      -0.78754905
C        0.77492397       1.33846157      -0.13935647
C        1.63178220       0.39584536       0.43935797
N        1.18630249      -0.84071592       0.25812984
C       -0.14965630      -0.79136054      -0.67873125
O       -0.41619838      -1.67164472      -1.48874764
H       -2.43337785       0.14369045       0.08794394
H       -1.21809190       0.04982920       1.39832164
H       -1.85197869      -1.40486257       0.59789624
H       -0.84323978       1.10951516      -1.60467617
H        0.87893185       2.40578104      -0.02315395
H        2.55167148       0.61153295       0.97044822
H        1.70762308      -1.66272299       0.52133344
14
Frame=8 idx=007012 GeodesicLength=0.7187674367544301 rxn_smarts="[C:1]([C@@:2]1([H:11])[C:3]([H:12])=[C:4]([H:13])[N:5]([H:14])[C:6]1=[O:7])([H:8])([H:9])[H:10]>>[C:1]([C:6](/[C:2](=[C:3]([C:4](=[N:5]\[H:14])\[H:13])/[H:12])[H:11])=[O:7])([H:8])([H:9])[H:10]"
C       -1.56256205      -0.36490904       0.44066181
C       -0.28551547       0.67885528      -0.77298037
C        0.76952368       1.33169308      -0.13133454
C        1.64386304       0.39851946       0.43764350
N        1.21066429      -0.84518299       0.26655304
C       -0.15411830      -0.80292759      -0.67206871
O       -0.41545980      -1.67281000      -1.49138205
H       -2.44597660       0.17820849       0.10608021
H       -1.22645920       0.02104076       1.40170416
H       -1.90117743      -1.39213673       0.56841606
H       -0.82537949       1.09599109      -1.61236759
H        0.86679953       2.39986714      -0.01589112
H        2.57529284       0.62843881       0.94277065
H        1.75050497      -1.65464776       0.53219495
14
Frame=9 idx=007012 GeodesicLength=0.8078507473733711 rxn_smarts="[C:1]([C@@:2]1([H:11])[C:3]([H:12])=[C:4]([H:13])[N:5]([H:14])[C:6]1=[O:7])([H:8])([H:9])[H:10]>>[C:1]([C:6](/[C:2](=[C:3]([C:4](=[N:5]\[H:14])\[H:13])/[H:12])[H:11])=[O:7])([H:8])([H:9])[H:10]"
C       -1.58124427      -0.35819299       0.43244187
C       -0.29605429       0.66933256      -0.75888238
C        0.76392332       1.32449339      -0.12309786
C        1.65584447       0.40127123       0.43591855
N        1.23606594      -0.84954561       0.27431125
C       -0.15889338      -0.81500924      -0.66500559
O       -0.41503579      -1.67454299      -1.49335907
H       -2.45722999       0.21364505       0.12572676
H       -1.23522258      -0.00935956       1.40434393
H       -1.95124872      -1.37741795       0.53728628
H       -0.80732907       1.08182424      -1.61910947
H        0.85440671       2.39351888      -0.00865498
H        2.59757084       0.64579302       0.91508585
H        1.79444681      -1.64581004       0.54299487
14
Frame=10 idx=007012 GeodesicLength=0.8967548327119323 rxn_smarts="[C:1]([C@@:2]1([H:11])[C:3]([H:12])=[C:4]([H:13])[N:5]([H:14])[C:6]1=[O:7])([H:8])([H:9])[H:10]>>[C:1]([C:6](/[C:2](=[C:3]([C:4](=[N:5]\[H:14])\[H:13])/[H:12])[H:11])=[O:7])([H:8])([H:9])[H:10]"
C       -1.60009731      -0.35109270       0.42400677
C       -0.30625602       0.65926911      -0.74521586
C        0.75809383       1.31685034      -0.11447221
C        1.66761633       0.40409276       0.43446004
N        1.26249580      -0.85388028       0.28151842
C       -0.16395954      -0.82762003      -0.65756071
O       -0.41483416      -1.67683811      -1.49472484
H       -2.46699117       0.24990956       0.14695041
H       -1.24472956      -0.04140374       1.40600062
H       -2.00203350      -1.36065163       0.50433482
H       -0.78907106       1.06706249      -1.62484213
H        0.84156692       2.38670554      -0.00105063
H        2.61921851       0.66364583       0.88623171
H        1.83898093      -1.63604914       0.55436359
14
Frame=11 idx=007012 GeodesicLength=0.9854435027411113 rxn_smarts="[C:1]([C@@:2]1([H:11])[C:3]([H:12])=[C:4]([H:13])[N:5]([H:14])[C:6]1=[O:7])([H:8])([H:9])[H:10]>>[C:1]([C:6](/[C:2](=[C:3]([C:4](=[N:5]\[H:14])\[H:13])/[H:12])[H:11])=[O:7])([H:8])([H:9])[H:10]"
C       -1.61893820      -0.34352875       0.41548744
C       -0.31615537       0.64866561      -0.73208511
C        0.75216518       1.30872153      -0.10577015
C        1.67930349       0.40693111       0.43290143
N        1.29008998      -0.85819964       0.28773681
C       -0.16937736      -0.84077590      -0.64984394
O       -0.41509644      -1.67974667      -1.49549417
H       -2.47505981       0.28682603       0.17000768
H       -1.25480270      -0.07496202       1.40659810
H       -2.05318698      -1.34162456       0.46983161
H       -0.77080768       1.05169811      -1.62966881
H        0.82842385       2.37937229       0.00661889
H        2.63927651       0.68199051       0.85773259
H        1.88416553      -1.62536767       0.56594763
14
Frame=12 idx=007012 GeodesicLength=1.073957699071759 rxn_smarts="[C:1]([C@@:2]1([H:11])[C:3]([H:12])=[C:4]([H:13])[N:5]([H:14])[C:6]1=[O:7])([H:8])([H:9])[H:10]>>[C:1]([C:6](/[C:2](=[C:3]([C:4](=[N:5]\[H:14])\[H:13])/[H:12])[H:11])=[O:7])([H:8])([H:9])[H:10]"
C       -1.63783364      -0.33551351       0.40683523
C       -0.32576237       0.63755955      -0.71936240
C        0.74609894       1.30010701      -0.09677300
C        1.69077385       0.40978871       0.43159587
N        1.31878530      -0.86248061       0.29311228
C       -0.17515064      -0.85444655      -0.64179629
O       -0.41575360      -1.68324798      -1.49563429
H       -2.48141560       0.32404859       0.19475087
H       -1.26582227      -0.11000844       1.40598922
H       -2.10460649      -1.32019554       0.43368411
H       -0.75249722       1.03578506      -1.63358799
H        0.81495473       2.37152259       0.01457486
H        2.65838521       0.70079980       0.82856048
H        1.92984377      -1.61371868       0.57805106
14
Frame=13 idx=007012 GeodesicLength=1.1622293678307445 rxn_smarts="[C:1]([C@@:2]1([H:11])[C:3]([H:12])=[C:4]([H:13])[N:5]([H:14])[C:6]1=[O:7])([H:8])([H:9])[H:10]>>[C:1]([C:6](/[C:2](=[C:3]([C:4](=[N:5]\[H:14])\[H:13])/[H:12])[H:11])=[O:7])([H:8])([H:9])[H:10]"
C       -1.65655863      -0.32694316       0.39828188
C       -0.33513224       0.62596834      -0.70716436
C        0.74006231       1.29097883      -0.08793174
C        1.70218169       0.41261879       0.43004454
N        1.34875183      -0.86665985       0.29705043
C       -0.18135977      -0.86863680      -0.63353268
O       -0.41713017      -1.68742863      -1.49514155
H       -2.48594403       0.36126444       0.22135696
H       -1.27752706      -0.14630791       1.40418983
H       -2.15593553      -1.29609249       0.39633138
H       -0.73439198       1.01929659      -1.63677963
H        0.80141036       2.36312549       0.02227191
H        2.67531805       0.72000714       0.80101419
H        1.97625517      -1.60119078       0.59000886
14
Frame=14 idx=007012 GeodesicLength=1.250362333401863 rxn_smarts="[C:1]([C@@:2]1([H:11])[C:3]([H:12])=[C:4]([H:13])[N:5]([H:14])[C:6]1=[O:7])([H:8])([H:9])[H:10]>>[C:1]([C:6](/[C:2](=[C:3]([C:4](=[N:5]\[H:14])\[H:13])/[H:12])[H:11])=[O:7])([H:8])([H:9])[H:10]"
C       -1.67516869      -0.31785570       0.38974148
C       -0.34427307       0.61391336      -0.69540776
C        0.73401823       1.28132612      -0.07905197
C        1.71342403       0.41539768       0.42852877
N        1.37989694      -0.87079926       0.29971498
C       -0.18801617      -0.88332275      -0.62504748
O       -0.41916432      -1.69224907      -1.49404756
H       -2.48859114       0.39817814       0.24971282
H       -1.29032025      -0.18373245       1.40100285
H       -2.20697973      -1.26926539       0.35773350
H       -0.71642962       1.00227384      -1.63922861
H        0.78764553       2.35416132       0.03011586
H        2.69086057       0.73966871       0.77394844
H        2.02309766      -1.58769454       0.60228468
14
Frame=15 idx=007012 GeodesicLength=1.3383619524635573 rxn_smarts="[C:1]([C@@:2]1([H:11])[C:3]([H:12])=[C:4]([H:13])[N:5]([H:14])[C:6]1=[O:7])([H:8])([H:9])[H:10]>>[C:1]([C:6](/[C:2](=[C:3]([C:4](=[N:5]\[H:14])\[H:13])/[H:12])[H:11])=[O:7])([H:8])([H:9])[H:10]"
C       -1.69355177      -0.30822194       0.38132310
C       -0.35322158       0.60142521      -0.68412346
C        0.72805446       1.27113263      -0.07033370
C        1.72455774       0.41808773       0.42684168
N        1.41228218      -0.87487771       0.30080219
C       -0.19516701      -0.89848505      -0.61642147
O       -0.42201673      -1.69772144      -1.49239325
H       -2.48935030       0.43445304       0.27977358
H       -1.30419905      -0.22200463       1.39638026
H       -2.25741330      -1.23960882       0.31821776
H       -0.69872903       0.98472416      -1.64102258
H        0.77374241       2.34460127       0.03797667
H        2.70467084       0.75974679       0.74823762
H        2.07034114      -1.57325124       0.61474162
14
Frame=16 idx=007012 GeodesicLength=1.4262732909567355 rxn_smarts="[C:1]([C@@:2]1([H:11])[C:3]([H:12])=[C:4]([H:13])[N:5]([H:14])[C:6]1=[O:7])([H:8])([H:9])[H:10]>>[C:1]([C:6](/[C:2](=[C:3]([C:4](=[N:5]\[H:14])\[H:13])/[H:12])[H:11])=[O:7])([H:8])([H:9])[H:10]"
C       -1.71169428      -0.29804650       0.37306229
C       -0.36200744       0.58855390      -0.67325191
C        0.72219681       1.26039991      -0.06175550
C        1.73558391       0.42067000       0.42500896
N        1.44589527      -0.87885870       0.30022736
C       -0.20284521      -0.91408664      -0.60766682
O       -0.42573330      -1.70382133      -1.49020202
H       -2.48833466       0.46970708       0.31132621
H       -1.31935578      -0.26088551       1.39027109
H       -2.30699329      -1.20707573       0.27799485
H       -0.68130043       0.96668704      -1.64219614
H        0.75974520       2.33444364       0.04591512
H        2.71691645       0.78018914       0.72380631
H        2.11792674      -1.55787630       0.62746021
