17
Frame=0 idx=006894 GeodesicLength=0.0 rxn_smarts="[C:1]([C@@:2]1([H:11])[O:3][C:4]([H:12])([H:13])[C@@:5]2([H:14])[C:6]([H:15])([H:16])[C@@:7]12[H:17])([H:8])([H:9])[H:10]>>[C:1]([C@@:2]1([H:11])[O+:3]=[C-:4][C@@:5]2([H:14])[C:6]([H:15])([H:16])[C@@:7]12[H:17])([H:8])([H:9])[H:10].[H:12][H:13]"
C       -2.06457054      -0.55087084       0.25334909
C       -0.83934228      -0.02037637      -0.45030131
O       -0.50976591       1.28802333       0.10521642
C        0.79682548       1.52522833       0.12765435
C        1.50002876       0.21675441      -0.02313601
C        1.08992961      -0.77398289       1.03118214
C        0.43707941      -0.80966862      -0.31307369
H       -2.89106545       0.15474662       0.16542977
H       -1.86041397      -0.71898371       1.31140947
H       -2.37175514      -1.49744765      -0.19395390
H       -1.04885734       0.14794422      -1.51497692
H        1.14886203       2.03690222      -1.52322397
H        1.17775575       2.42610079      -0.68956738
H        2.49586773       0.18377303      -0.43976608
H        0.52858869      -0.41381292       1.88562756
H        1.80091038      -1.55742999       1.25542337
H        0.60992276      -1.63689990      -0.98729290
17
Frame=1 idx=006894 GeodesicLength=0.05518420818933654 rxn_smarts="[C:1]([C@@:2]1([H:11])[O:3][C:4]([H:12])([H:13])[C@@:5]2([H:14])[C:6]([H:15])([H:16])[C@@:7]12[H:17])([H:8])([H:9])[H:10]>>[C:1]([C@@:2]1([H:11])[O+:3]=[C-:4][C@@:5]2([H:14])[C:6]([H:15])([H:16])[C@@:7]12[H:17])([H:8])([H:9])[H:10].[H:12][H:13]"
C       -2.06607130      -0.55389917       0.25605570
C       -0.84218283      -0.02721934      -0.45308408
O       -0.51220384       1.28405554       0.09419778
C        0.79590040       1.52071682       0.11284092
C        1.49845671       0.21120139      -0.02965348
C        1.08836019      -0.77353245       1.03051900
C        0.43447931      -0.81587284      -0.31291947
H       -2.89289405       0.15096607       0.16521912
H       -1.86018673      -0.71543196       1.31481170
H       -2.37390502      -1.50331195      -0.18479063
H       -1.05412866       0.13321194      -1.51842549
H        1.16151466       2.06981193      -1.51455148
H        1.19630438       2.45762525      -0.67345199
H        2.49396266       0.17362728      -0.44684906
H        0.52766848      -0.40809675       1.88314510
H        1.79861767      -1.55641140       1.25900692
H        0.60630797      -1.64744036      -0.98207059
17
Frame=2 idx=006894 GeodesicLength=0.11033004849044903 rxn_smarts="[C:1]([C@@:2]1([H:11])[O:3][C:4]([H:12])([H:13])[C@@:5]2([H:14])[C:6]([H:15])([H:16])[C@@:7]12[H:17])([H:8])([H:9])[H:10]>>[C:1]([C@@:2]1([H:11])[O+:3]=[C-:4][C@@:5]2([H:14])[C:6]([H:15])([H:16])[C@@:7]12[H:17])([H:8])([H:9])[H:10].[H:12][H:13]"
C       -2.06761905      -0.55693383       0.25882710
C       -0.84513326      -0.03438142      -0.45606995
O       -0.51469424       1.27990379       0.08247465
C        0.79492388       1.51608099       0.09697937
C        1.49679250       0.20547021      -0.03668838
C        1.08682444      -0.77281149       1.02972848
C        0.43177646      -0.82233764      -0.31277224
H       -2.89476380       0.14715265       0.16492193
H       -1.85990935      -0.71153808       1.31826664
H       -2.37615923      -1.50927500      -0.17520478
H       -1.05958237       0.11779554      -1.52205062
H        1.17476741       2.10390142      -1.50482901
H        1.21506662       2.48899240      -0.65558447
H        2.49188904       0.16318829      -0.45456769
H        0.52687332      -0.40176929       1.88040969
H        1.79640380      -1.55498791       1.26269445
H        0.60254383      -1.65845061      -0.97653517
17
Frame=3 idx=006894 GeodesicLength=0.16540313422428196 rxn_smarts="[C:1]([C@@:2]1([H:11])[O:3][C:4]([H:12])([H:13])[C@@:5]2([H:14])[C:6]([H:15])([H:16])[C@@:7]12[H:17])([H:8])([H:9])[H:10]>>[C:1]([C@@:2]1([H:11])[O+:3]=[C-:4][C@@:5]2([H:14])[C:6]([H:15])([H:16])[C@@:7]12[H:17])([H:8])([H:9])[H:10].[H:12][H:13]"
C       -2.06920832      -0.55995953       0.26166257
C       -0.84818976      -0.04186589      -0.45926088
O       -0.51722887       1.27556068       0.07002478
C        0.79390266       1.51131584       0.07998243
C        1.49504113       0.19955861      -0.04426052
C        1.08533083      -0.77179330       1.02880104
C        0.42897679      -0.82906058      -0.31262858
H       -2.89666110       0.14333188       0.16455447
H       -1.85956880      -0.70730316       1.32176154
H       -2.37852716      -1.51530197      -0.16520909
H       -1.06522114       0.10168108      -1.52584484
H        1.18860744       2.13912304      -1.49398408
H        1.23395269       2.52009955      -0.63588571
H        2.48965929       0.15244939      -0.46291931
H        0.52621543      -0.39478642       1.87739854
H        1.79427551      -1.55312783       1.26648468
H        0.59864337      -1.66992138      -0.97067705
17
Frame=4 idx=006894 GeodesicLength=0.22039977318164425 rxn_smarts="[C:1]([C@@:2]1([H:11])[O:3][C:4]([H:12])([H:13])[C@@:5]2([H:14])[C:6]([H:15])([H:16])[C@@:7]12[H:17])([H:8])([H:9])[H:10]>>[C:1]([C@@:2]1([H:11])[O+:3]=[C-:4][C@@:5]2([H:14])[C:6]([H:15])([H:16])[C@@:7]12[H:17])([H:8])([H:9])[H:10].[H:12][H:13]"
C       -2.07083528      -0.56296323       0.26456670
C       -0.85135608      -0.04969012      -0.46267450
O       -0.51980556       1.27101687       0.05677854
C        0.79283797       1.50640791       0.06174605
C        1.49320174       0.19345907      -0.05241490
C        1.08388750      -0.77044261       1.02771821
C        0.42607896      -0.83604944      -0.31249135
H       -2.89858205       0.13951322       0.16411000
H       -1.85915100      -0.70268425       1.32529636
H       -2.38101072      -1.52138463      -0.15476620
H       -1.07105984       0.08481495      -1.52981934
H        1.20305693       2.17549881      -1.48188890
H        1.25290890       2.55085436      -0.61420166
H        2.48727264       0.14138997      -0.47194265
H        0.52571033      -0.38708421       1.87407617
H        1.79224250      -1.55078386       1.27037827
H        0.59460306      -1.68187280      -0.96447081
17
Frame=5 idx=006894 GeodesicLength=0.27530952693132893 rxn_smarts="[C:1]([C@@:2]1([H:11])[O:3][C:4]([H:12])([H:13])[C@@:5]2([H:14])[C:6]([H:15])([H:16])[C@@:7]12[H:17])([H:8])([H:9])[H:10]>>[C:1]([C@@:2]1([H:11])[O+:3]=[C-:4][C@@:5]2([H:14])[C:6]([H:15])([H:16])[C@@:7]12[H:17])([H:8])([H:9])[H:10].[H:12][H:13]"
C       -2.07249336      -0.56592577       0.26754313
C       -0.85463316      -0.05787192      -0.46632938
O       -0.52241895       1.26626009       0.04266202
C        0.79173316       1.50133904       0.04214960
C        1.49127526       0.18716029      -0.06120255
C        1.08250486      -0.76871944       1.02645817
C        0.42308404      -0.84331293      -0.31236248
H       -2.90051908       0.13571308       0.16357876
H       -1.85863946      -0.69763000       1.32886806
H       -2.38360948      -1.52750704      -0.14383672
H       -1.07711018       0.06714041      -1.53398371
H        1.21813217       2.21304616      -1.46839287
H        1.27185019       2.58114626      -0.59036176
H        2.48472971       0.12998142      -0.48168194
H        0.52537687      -0.37858848       1.87040036
H        1.79031611      -1.54790281       1.27437558
H        0.59042128      -1.69432836      -0.95788426
17
Frame=6 idx=006894 GeodesicLength=0.3301205892062772 rxn_smarts="[C:1]([C@@:2]1([H:11])[O:3][C:4]([H:12])([H:13])[C@@:5]2([H:14])[C:6]([H:15])([H:16])[C@@:7]12[H:17])([H:8])([H:9])[H:10]>>[C:1]([C@@:2]1([H:11])[O+:3]=[C-:4][C@@:5]2([H:14])[C:6]([H:15])([H:16])[C@@:7]12[H:17])([H:8])([H:9])[H:10].[H:12][H:13]"
C       -2.07417442      -0.56882466       0.27059572
C       -0.85802175      -0.06643054      -0.47024656
O       -0.52506148       1.26127665       0.02759161
C        0.79059346       1.49608878       0.02105169
C        1.48926327       0.18065005      -0.07068143
C        1.08119489      -0.76657669       1.02499589
C        0.41999319      -0.85085979      -0.31224400
H       -2.90246271       0.13195078       0.16295029
H       -1.85801446      -0.69208228       1.33247256
H       -2.38632292      -1.53364987      -0.13237661
H       -1.08338535       0.04859408      -1.53834837
H        1.23384619       2.25178118      -1.45331936
H        1.29067747       2.61083845      -0.56417322
H        2.48203173       0.11819083      -0.49218678
H        0.52523800      -0.36921178       1.86632201
H        1.78850909      -1.54442206       1.27847725
H        0.58609580      -1.70731313      -0.95088069
17
Frame=7 idx=006894 GeodesicLength=0.38481924718300153 rxn_smarts="[C:1]([C@@:2]1([H:11])[O:3][C:4]([H:12])([H:13])[C@@:5]2([H:14])[C:6]([H:15])([H:16])[C@@:7]12[H:17])([H:8])([H:9])[H:10]>>[C:1]([C@@:2]1([H:11])[O+:3]=[C-:4][C@@:5]2([H:14])[C:6]([H:15])([H:16])[C@@:7]12[H:17])([H:8])([H:9])[H:10].[H:12][H:13]"
C       -2.07586787      -0.57163112       0.27372801
C       -0.86152065      -0.07538655      -0.47444980
O       -0.52772132       1.25605029       0.01147372
C        0.78942762       1.49063210      -0.00171337
C        1.48716942       0.17391327      -0.08091828
C        1.07997247      -0.76395954       1.02330224
C        0.41680917      -0.85869951      -0.31213753
H       -2.90439994       0.12825249       0.16221175
H       -1.85725255      -0.68597254       1.33610387
H       -2.38915002      -1.53978677      -0.12033702
H       -1.08989753       0.02910601      -1.54292428
H        1.25020610       2.29171572      -1.43645858
H        1.30926030       2.63976482      -0.53541786
H        2.47918157       0.10597733      -0.50351484
H        0.52532196      -0.35885127       1.86178344
H        1.78683665      -1.54026880       1.28268434
H        0.58162459      -1.72085592      -0.94341584
17
Frame=8 idx=006894 GeodesicLength=0.4393910250679644 rxn_smarts="[C:1]([C@@:2]1([H:11])[O:3][C:4]([H:12])([H:13])[C@@:5]2([H:14])[C:6]([H:15])([H:16])[C@@:7]12[H:17])([H:8])([H:9])[H:10]>>[C:1]([C@@:2]1([H:11])[O+:3]=[C-:4][C@@:5]2([H:14])[C:6]([H:15])([H:16])[C@@:7]12[H:17])([H:8])([H:9])[H:10].[H:12][H:13]"
C       -2.07756091      -0.57430859       0.27694447
C       -0.86512857      -0.08476512      -0.47896912
O       -0.53038444       1.25056169      -0.00580776
C        0.78824603       1.48493827      -0.02634122
C        1.48499782       0.16693199      -0.09199389
C        1.07885637      -0.76080267       1.02134117
C        0.41353515      -0.86684362      -0.31204567
H       -2.90631584       0.12464989       0.16134251
H       -1.85632554      -0.67920891       1.33975596
H       -2.39208809      -1.54588718      -0.10765249
H       -1.09666187       0.00858934      -1.54772624
H        1.26721721       2.33286352      -1.41755045
H        1.32744166       2.66771879      -0.50383378
H        2.47618156       0.09329279      -0.51573771
H        0.52566399      -0.34738427       1.85671369
H        1.78532089      -1.53535360       1.28699642
H        0.57700457      -1.73499233      -0.93543589
17
Frame=9 idx=006894 GeodesicLength=0.4938197441963339 rxn_smarts="[C:1]([C@@:2]1([H:11])[O:3][C:4]([H:12])([H:13])[C@@:5]2([H:14])[C:6]([H:15])([H:16])[C@@:7]12[H:17])([H:8])([H:9])[H:10]>>[C:1]([C@@:2]1([H:11])[O+:3]=[C-:4][C@@:5]2([H:14])[C:6]([H:15])([H:16])[C@@:7]12[H:17])([H:8])([H:9])[H:10].[H:12][H:13]"
C       -2.07923630      -0.57680912       0.28024944
C       -0.86884052      -0.09459308      -0.48383912
O       -0.53302946       1.24478824      -0.02438631
C        0.78706499       1.47896977      -0.05306303
C        1.48275590       0.15968416      -0.10400292
C        1.07786998      -0.75702904       1.01906950
C        0.41017730      -0.87530448      -0.31197085
H       -2.90818966       0.12118627       0.16031699
H       -1.85519916      -0.67167935       1.34342010
H       -2.39513246      -1.55190883      -0.09424739
H       -1.10369130      -0.01305338      -1.55277005
H        1.28487318       2.37522671      -1.39628025
H        1.34501107       2.69444389      -0.46912026
H        2.47303677       0.08007730      -0.52893993
H        0.52630732      -0.33466477       1.85102752
H        1.78398845      -1.52957112       1.29141233
H        0.57223390      -1.74976317      -0.92687577
17
Frame=10 idx=006894 GeodesicLength=0.548083342268574 rxn_smarts="[C:1]([C@@:2]1([H:11])[O:3][C:4]([H:12])([H:13])[C@@:5]2([H:14])[C:6]([H:15])([H:16])[C@@:7]12[H:17])([H:8])([H:9])[H:10]>>[C:1]([C@@:2]1([H:11])[O+:3]=[C-:4][C@@:5]2([H:14])[C:6]([H:15])([H:16])[C@@:7]12[H:17])([H:8])([H:9])[H:10].[H:12][H:13]"
C       -2.08087122      -0.57907209       0.28364646
C       -0.87264924      -0.10489816      -0.48909981
O       -0.53562769       1.23870427      -0.04441799
C        0.78590687       1.47268270      -0.08215115
C        1.48045340       0.15214648      -0.11705464
C        1.07704307      -0.75254474       1.01643536
C        0.40674393      -0.88409198      -0.31191516
H       -2.90999382       0.11791671       0.15910538
H       -1.85382943      -0.66325055       1.34708281
H       -2.39827660      -1.55779504      -0.08003586
H       -1.11100072      -0.03593214      -1.55807194
H        1.30314855       2.41878442      -1.37226638
H        1.36170728       2.71960709      -0.43093193
H        2.46975368       0.06626219      -0.54321690
H        0.52730735      -0.32051789       1.84462119
H        1.78287359      -1.52279214       1.29592917
H        0.56731099      -1.76520914      -0.91765861
17
Frame=11 idx=006894 GeodesicLength=0.6021642784949688 rxn_smarts="[C:1]([C@@:2]1([H:11])[O:3][C:4]([H:12])([H:13])[C@@:5]2([H:14])[C:6]([H:15])([H:16])[C@@:7]12[H:17])([H:8])([H:9])[H:10]>>[C:1]([C@@:2]1([H:11])[O+:3]=[C-:4][C@@:5]2([H:14])[C:6]([H:15])([H:16])[C@@:7]12[H:17])([H:8])([H:9])[H:10].[H:12][H:13]"
C       -2.08243520      -0.58101640       0.28713886
C       -0.87653991      -0.11570739      -0.49479758
O       -0.53813691       1.23228210      -0.06608307
C        0.78480586       1.46602558      -0.11392242
C        1.47810690       0.14429142      -0.13127603
C        1.07641302      -0.74724028       1.01337623
C        0.40325012      -0.89321506      -0.31188125
H       -2.91169137       0.11491758       0.15767012
H       -1.85216317      -0.65375550       1.35072688
H       -2.40150945      -1.56346875      -0.06491654
H       -1.11859895      -0.06016797      -1.56364918
H        1.32198737       2.46347950      -1.34504549
H        1.37717700       2.74279064      -0.38887738
H        2.46634562       0.05176347      -0.55868006
H        0.52873088      -0.30473767       1.83736988
H        1.78201880      -1.51486607       1.30054085
H        0.56223937      -1.78137521      -0.90769380
17
Frame=12 idx=006894 GeodesicLength=0.6560608805115997 rxn_smarts="[C:1]([C@@:2]1([H:11])[O:3][C:4]([H:12])([H:13])[C@@:5]2([H:14])[C:6]([H:15])([H:16])[C@@:7]12[H:17])([H:8])([H:9])[H:10]>>[C:1]([C@@:2]1([H:11])[O+:3]=[C-:4][C@@:5]2([H:14])[C:6]([H:15])([H:16])[C@@:7]12[H:17])([H:8])([H:9])[H:10].[H:12][H:13]"
C       -2.08389220      -0.58253859       0.29073133
C       -0.88049143      -0.12704345      -0.50098771
O       -0.54050481       1.22549893      -0.08959661
C        0.78380720       1.45894680      -0.14874131
C        1.47574087       0.13609223      -0.14681424
C        1.07602769      -0.74098964       1.00981986
C        0.39972017      -0.90267919      -0.31187225
H       -2.91324070       0.11228971       0.15596646
H       -1.85014097      -0.64299227       1.35433462
H       -2.40481590      -1.56883179      -0.04876769
H       -1.12649022      -0.08589129      -1.56952405
H        1.34128448       2.50920969      -1.31406194
H        1.39098535       2.76345458      -0.34252005
H        2.46283654       0.03648814      -0.57545785
H        0.53065688      -0.28708763       1.82912782
H        1.78148287      -1.50561893       1.30524116
H        0.55703419      -1.79830732      -0.89687757
17
Frame=13 idx=006894 GeodesicLength=0.7097372109907442 rxn_smarts="[C:1]([C@@:2]1([H:11])[O:3][C:4]([H:12])([H:13])[C@@:5]2([H:14])[C:6]([H:15])([H:16])[C@@:7]12[H:17])([H:8])([H:9])[H:10]>>[C:1]([C@@:2]1([H:11])[O+:3]=[C-:4][C@@:5]2([H:14])[C:6]([H:15])([H:16])[C@@:7]12[H:17])([H:8])([H:9])[H:10].[H:12][H:13]"
C       -2.08516902      -0.58348705       0.29441154
C       -0.88446049      -0.13892643      -0.50772994
O       -0.54262919       1.21830725      -0.11519687
C        0.78299151       1.45136418      -0.18699552
C        1.47338472       0.12751543      -0.16382337
C        1.07594975      -0.73363361       1.00566840
C        0.39618092      -0.91247287      -0.31188944
H       -2.91454441       0.11017287       0.15392152
H       -1.84765108      -0.63068584       1.35784957
H       -2.40816471      -1.57372104      -0.03146295
H       -1.13467020      -0.11324708      -1.57570031
H        1.36080493       2.55573662      -1.27861907
H        1.40251363       2.78088933      -0.29137943
H        2.45923827       0.02032157      -0.59367543
H        0.53320659      -0.26728098       1.81969781
H        1.78132948      -1.49482155       1.31000097
H        0.55168931      -1.81603082      -0.88507748
17
Frame=14 idx=006894 GeodesicLength=0.7632269551461587 rxn_smarts="[C:1]([C@@:2]1([H:11])[O:3][C:4]([H:12])([H:13])[C@@:5]2([H:14])[C:6]([H:15])([H:16])[C@@:7]12[H:17])([H:8])([H:9])[H:10]>>[C:1]([C@@:2]1([H:11])[O+:3]=[C-:4][C@@:5]2([H:14])[C:6]([H:15])([H:16])[C@@:7]12[H:17])([H:8])([H:9])[H:10].[H:12][H:13]"
C       -2.08619390      -0.58368321       0.29817858
C       -0.88839903      -0.15134145      -0.51509233
O       -0.54442433       1.21070296      -0.14315344
C        0.78243760       1.44324060      -0.22903172
C        1.47107667       0.11856221      -0.18245754
C        1.07625286      -0.72501473       1.00082014
C        0.39268588      -0.92255760      -0.31194581
H       -2.91553368       0.10872723       0.15145362
H       -1.84460132      -0.61650475       1.36124150
H       -2.41149181      -1.57796728      -0.01283005
H       -1.14311948      -0.14235243      -1.58219707
H        1.38027104       2.60263006      -1.23796304
H        1.41105308       2.79420314      -0.23502002
H        2.45558420       0.00318798      -0.61346885
H        0.53648225      -0.24505632       1.80888243
H        1.78166348      -1.48224438       1.31477664
H        0.54625648      -1.83453202      -0.87219303
17
Frame=15 idx=006894 GeodesicLength=0.816701070334865 rxn_smarts="[C:1]([C@@:2]1([H:11])[O:3][C:4]([H:12])([H:13])[C@@:5]2([H:14])[C:6]([H:15])([H:16])[C@@:7]12[H:17])([H:8])([H:9])[H:10]>>[C:1]([C@@:2]1([H:11])[O+:3]=[C-:4][C@@:5]2([H:14])[C:6]([H:15])([H:16])[C@@:7]12[H:17])([H:8])([H:9])[H:10].[H:12][H:13]"
C       -2.08688127      -0.58291319       0.30200432
C       -0.89220045      -0.16419376      -0.52310009
O       -0.54570194       1.20272898      -0.17354786
C        0.78233727       1.43460921      -0.27494777
C        1.46891499       0.10926966      -0.20274194
C        1.07701324      -0.71505784       0.99521847
C        0.38932134      -0.93285086      -0.31205350
H       -2.91609326       0.10818515       0.14849797
H       -1.84090763      -0.60019610       1.36445418
H       -2.41475561      -1.58133288       0.00716535
H       -1.15173529      -0.17313474      -1.58899793
H        1.39899494       2.64913347      -1.19158270
H        1.41575442       2.80247721      -0.17342622
H        2.45198445      -0.01493452      -0.63482199
H        0.54058734      -0.22028930       1.79656487
H        1.78256100      -1.46778288       1.31951644
H        0.54080645      -1.85371760      -0.85820160
17
Frame=16 idx=006894 GeodesicLength=0.8699287348875125 rxn_smarts="[C:1]([C@@:2]1([H:11])[O:3][C:4]([H:12])([H:13])[C@@:5]2([H:14])[C:6]([H:15])([H:16])[C@@:7]12[H:17])([H:8])([H:9])[H:10]>>[C:1]([C@@:2]1([H:11])[O+:3]=[C-:4][C@@:5]2([H:14])[C:6]([H:15])([H:16])[C@@:7]12[H:17])([H:8])([H:9])[H:10].[H:12][H:13]"
C       -2.08705077      -0.58086870       0.30576623
C       -0.89569361      -0.17719563      -0.53163643
O       -0.54630048       1.19441138      -0.20608960
C        0.78282985       1.42547417      -0.32419929
C        1.46698579       0.09973807      -0.22438671
C        1.07832246      -0.70380323       0.98880023
C        0.38624897      -0.94306736      -0.31218187
H       -2.91603616       0.10884236       0.14498169
H       -1.83642817      -0.58160148       1.36723982
H       -2.41773861      -1.58333201       0.02830752
H       -1.16031718      -0.20511627      -1.59584994
H        1.41570417       2.69358638      -1.13948529
H        1.41566467       2.80461035      -0.10738807
H        2.44853255      -0.03392919      -0.65732395
H        0.54558639      -0.19321157       1.78260736
H        1.78413494      -1.45145635       1.32400845
H        0.53555518      -1.87308093      -0.84317015
