10
Frame=0 idx=005544 GeodesicLength=0.0 rxn_smarts="[O:1]([c:2]1[n:3][n:4]([H:8])[c:5]([H:9])[c:6]1[H:10])[H:7]>>[O:1]([c:2]1[n:3]([H:8])[n:4][c:5]([H:9])[c:6]1[H:10])[H:7]"
O        2.09369529       0.03469079      -0.34477862
C        0.78713507      -0.02741216      -0.05926128
N        0.19482691      -1.18720904       0.23995108
N       -1.21175539      -0.87458549       0.44956560
C       -1.32283135       0.44330070       0.25055872
C       -0.10070919       1.03616800      -0.00782581
H        2.46763942      -0.84575283      -0.24023765
H       -0.73507432      -1.56757062      -0.45986173
H       -2.29594726       0.90810632       0.32236499
H        0.12302083       2.08026434      -0.15047531
10
Frame=1 idx=005544 GeodesicLength=0.052536024798332366 rxn_smarts="[O:1]([c:2]1[n:3][n:4]([H:8])[c:5]([H:9])[c:6]1[H:10])[H:7]>>[O:1]([c:2]1[n:3]([H:8])[n:4][c:5]([H:9])[c:6]1[H:10])[H:7]"
O        2.10345708       0.04404251      -0.29540054
C        0.78668823      -0.02421119      -0.06353886
N        0.19061695      -1.17835130       0.24379761
N       -1.21044331      -0.86664611       0.44123717
C       -1.32565873       0.44765545       0.22938116
C       -0.10174094       1.03986409      -0.02504632
H        2.46302781      -0.84813017      -0.29328930
H       -0.73877668      -1.61647073      -0.43155715
H       -2.29594504       0.91484598       0.31995613
H        0.12877463       2.08740147      -0.12553991
10
Frame=2 idx=005544 GeodesicLength=0.10525068145501437 rxn_smarts="[O:1]([c:2]1[n:3][n:4]([H:8])[c:5]([H:9])[c:6]1[H:10])[H:7]>>[O:1]([c:2]1[n:3]([H:8])[n:4][c:5]([H:9])[c:6]1[H:10])[H:7]"
O        2.11144841       0.04881469      -0.24568723
C        0.78620985      -0.02218919      -0.06859500
N        0.18515914      -1.17095278       0.24340673
N       -1.20980279      -0.85895895       0.43096698
C       -1.32766739       0.45235708       0.20968264
C       -0.10133082       1.04334594      -0.03935722
H        2.46046500      -0.84182278      -0.34423945
H       -0.74490079      -1.66555040      -0.40081796
H       -2.29461577       0.92245662       0.31819815
H        0.13503517       2.09249977      -0.10355764
10
Frame=3 idx=005544 GeodesicLength=0.15835830861535133 rxn_smarts="[O:1]([c:2]1[n:3][n:4]([H:8])[c:5]([H:9])[c:6]1[H:10])[H:7]>>[O:1]([c:2]1[n:3]([H:8])[n:4][c:5]([H:9])[c:6]1[H:10])[H:7]"
O        2.11735742       0.04924528      -0.19905762
C        0.78604714      -0.02093898      -0.07224217
N        0.17858352      -1.16500592       0.23905096
N       -1.20985840      -0.85168799       0.41842616
C       -1.32889335       0.45745637       0.19189363
C       -0.09945788       1.04683729      -0.04925857
H        2.45986053      -0.82804377      -0.39252584
H       -0.75298512      -1.71464721      -0.36733343
H       -2.29255818       0.93046624       0.31533564
H        0.14190431       2.09631868      -0.08428874
10
Frame=4 idx=005544 GeodesicLength=0.2118083849539162 rxn_smarts="[O:1]([c:2]1[n:3][n:4]([H:8])[c:5]([H:9])[c:6]1[H:10])[H:7]>>[O:1]([c:2]1[n:3]([H:8])[n:4][c:5]([H:9])[c:6]1[H:10])[H:7]"
O        2.12159429       0.04601211      -0.15650701
C        0.78625323      -0.02018413      -0.07411676
N        0.17106832      -1.16032886       0.23079005
N       -1.21049906      -0.84481313       0.40353754
C       -1.32941795       0.46297599       0.17575013
C       -0.09637000       1.05041384      -0.05533359
H        2.46078721      -0.80808491      -0.43852128
H       -0.76273666      -1.76402514      -0.32983235
H       -2.29025312       0.93858897       0.31023569
H        0.14957373       2.09944528      -0.06600242
10
Frame=5 idx=005544 GeodesicLength=0.26545585168881763 rxn_smarts="[O:1]([c:2]1[n:3][n:4]([H:8])[c:5]([H:9])[c:6]1[H:10])[H:7]>>[O:1]([c:2]1[n:3]([H:8])[n:4][c:5]([H:9])[c:6]1[H:10])[H:7]"
O        2.12462764       0.03963712      -0.11762571
C        0.78676586      -0.01983568      -0.07458402
N        0.16267076      -1.15683456       0.21804415
N       -1.21166404      -0.83833129       0.38594709
C       -1.32932516       0.46891414       0.16080018
C       -0.09228500       1.05406145      -0.05839844
H        2.46297955      -0.78262869      -0.48260271
H       -0.77402558      -1.81387498      -0.28686146
H       -2.28787166       0.94679284       0.30285900
H        0.15812763       2.10209966      -0.04757807
10
Frame=6 idx=005544 GeodesicLength=0.31911512609121195 rxn_smarts="[O:1]([c:2]1[n:3][n:4]([H:8])[c:5]([H:9])[c:6]1[H:10])[H:7]>>[O:1]([c:2]1[n:3]([H:8])[n:4][c:5]([H:9])[c:6]1[H:10])[H:7]"
O        2.12677395       0.03036385      -0.08172414
C        0.78751559      -0.01990357      -0.07409246
N        0.15331029      -1.15455501       0.19939120
N       -1.21333251      -0.83230133       0.36513977
C       -1.32861673       0.47526543       0.14704533
C       -0.08729503       1.05772511      -0.05877960
H        2.46636364      -0.75185169      -0.52489630
H       -0.78685734      -1.86407948      -0.23676819
H       -2.28550968       0.95500104       0.29327891
H        0.16764783       2.10433565      -0.02859452
10
Frame=7 idx=005544 GeodesicLength=0.37229516436335014 rxn_smarts="[O:1]([c:2]1[n:3][n:4]([H:8])[c:5]([H:9])[c:6]1[H:10])[H:7]>>[O:1]([c:2]1[n:3]([H:8])[n:4][c:5]([H:9])[c:6]1[H:10])[H:7]"
O        2.12797813       0.01850427      -0.04425088
C        0.78830249      -0.02067479      -0.07300392
N        0.14236176      -1.15422873       0.16977144
N       -1.21589534      -0.82760827       0.33796225
C       -1.32733124       0.48216720       0.13747613
C       -0.08210520       1.06080750      -0.05919550
H        2.47274258      -0.71556872      -0.55968063
H       -0.80149505      -1.91339934      -0.18284408
H       -2.28172866       0.96402399       0.29225059
H        0.17717054       2.10597689      -0.01848541
10
Frame=8 idx=005544 GeodesicLength=0.4243775903076591 rxn_smarts="[O:1]([c:2]1[n:3][n:4]([H:8])[c:5]([H:9])[c:6]1[H:10])[H:7]>>[O:1]([c:2]1[n:3]([H:8])[n:4][c:5]([H:9])[c:6]1[H:10])[H:7]"
O        2.12799770       0.00340658      -0.00516958
C        0.78898614      -0.02221826      -0.07077341
N        0.12941273      -1.15533863       0.12661404
N       -1.21957312      -0.82409906       0.30361559
C       -1.32531176       0.48950848       0.13320534
C       -0.07652122       1.06318268      -0.05882998
H        2.48163024      -0.67351449      -0.58821024
H       -0.81684885      -1.96103963      -0.12166005
H       -2.27711492       0.97317171       0.29731969
H        0.18734307       2.10694061      -0.01611141
10
Frame=9 idx=005544 GeodesicLength=0.47358204815369875 rxn_smarts="[O:1]([c:2]1[n:3][n:4]([H:8])[c:5]([H:9])[c:6]1[H:10])[H:7]>>[O:1]([c:2]1[n:3]([H:8])[n:4][c:5]([H:9])[c:6]1[H:10])[H:7]"
O        2.12537018      -0.01502446       0.03613114
C        0.78867315      -0.02476577      -0.07105520
N        0.11411637      -1.15687671       0.06603618
N       -1.22512271      -0.82180481       0.25601430
C       -1.32298803       0.49723378       0.13505512
C       -0.07156622       1.06516884      -0.06083417
H        2.49401395      -0.62891925      -0.60433692
H       -0.82910757      -2.00482067      -0.05046840
H       -2.27081413       0.98206082       0.31653385
H        0.19742502       2.10774823      -0.02307591
10
Frame=10 idx=005544 GeodesicLength=0.5174258311139219 rxn_smarts="[O:1]([c:2]1[n:3][n:4]([H:8])[c:5]([H:9])[c:6]1[H:10])[H:7]>>[O:1]([c:2]1[n:3]([H:8])[n:4][c:5]([H:9])[c:6]1[H:10])[H:7]"
O        2.12074002      -0.03865345       0.07172737
C        0.78725476      -0.02921464      -0.07121729
N        0.09715411      -1.15752800      -0.00295689
N       -1.23310156      -0.81989009       0.19551544
C       -1.32060893       0.50372783       0.13872843
C       -0.06615116       1.06631572      -0.05732295
H        2.50504719      -0.58303760      -0.62021298
H       -0.83283255      -2.03747143       0.03927136
H       -2.26625911       0.98843271       0.33021481
H        0.20875723       2.10731896      -0.02374729
10
Frame=11 idx=005544 GeodesicLength=0.5575977557291906 rxn_smarts="[O:1]([c:2]1[n:3][n:4]([H:8])[c:5]([H:9])[c:6]1[H:10])[H:7]>>[O:1]([c:2]1[n:3]([H:8])[n:4][c:5]([H:9])[c:6]1[H:10])[H:7]"
O        2.11375822      -0.06697016       0.10226081
C        0.78456398      -0.03643886      -0.07402658
N        0.08007123      -1.15756894      -0.07345731
N       -1.24183779      -0.81810997       0.12841143
C       -1.31833599       0.50681041       0.14679661
C       -0.06150560       1.06514483      -0.05109606
H        2.51566597      -0.53876577      -0.63147092
H       -0.82833986      -2.04926038       0.13382433
H       -2.26338137       0.99064610       0.34258528
H        0.21934121       2.10451273      -0.02382760
10
Frame=12 idx=005544 GeodesicLength=0.600947925499096 rxn_smarts="[O:1]([c:2]1[n:3][n:4]([H:8])[c:5]([H:9])[c:6]1[H:10])[H:7]>>[O:1]([c:2]1[n:3]([H:8])[n:4][c:5]([H:9])[c:6]1[H:10])[H:7]"
O        2.10761354      -0.09858713       0.12422328
C        0.78189678      -0.04695805      -0.07283885
N        0.06484180      -1.15902113      -0.12655497
N       -1.24958625      -0.81648330       0.06942530
C       -1.31596795       0.50564763       0.15708584
C       -0.05639729       1.06060842      -0.03880657
H        2.52335672      -0.49077482      -0.64751168
H       -0.82316544      -2.04379087       0.21589815
H       -2.26238309       0.99071320       0.34180318
H        0.22979118       2.09864607      -0.02272368
10
Frame=13 idx=005544 GeodesicLength=0.6466293005277737 rxn_smarts="[O:1]([c:2]1[n:3][n:4]([H:8])[c:5]([H:9])[c:6]1[H:10])[H:7]>>[O:1]([c:2]1[n:3]([H:8])[n:4][c:5]([H:9])[c:6]1[H:10])[H:7]"
O        2.10114252      -0.13121381       0.14327142
C        0.77889558      -0.05927798      -0.07120740
N        0.05067831      -1.16185247      -0.16701563
N       -1.25567827      -0.81554119       0.02542212
C       -1.31523582       0.50371873       0.15573851
C       -0.05168387       1.05450003      -0.03222641
H        2.53118851      -0.43914055      -0.65814032
H       -0.82058110      -2.03215470       0.27920943
H       -2.25890521       0.99001064       0.35000612
H        0.24017935       2.09095131      -0.02505783
10
Frame=14 idx=005544 GeodesicLength=0.6933675945759541 rxn_smarts="[O:1]([c:2]1[n:3][n:4]([H:8])[c:5]([H:9])[c:6]1[H:10])[H:7]>>[O:1]([c:2]1[n:3]([H:8])[n:4][c:5]([H:9])[c:6]1[H:10])[H:7]"
O        2.09427688      -0.16458040       0.15838243
C        0.77555785      -0.07260481      -0.07093853
N        0.03685777      -1.16546435      -0.20032867
N       -1.26101126      -0.81500525      -0.00928900
C       -1.31503862       0.50188539       0.14968061
C       -0.04711310       1.04755592      -0.02960197
H        2.53906978      -0.38470989      -0.66353308
H       -0.81937926      -2.01802005       0.33213513
H       -2.25430869       0.98893530       0.36155744
H        0.25108865       2.08200814      -0.02806435
10
Frame=15 idx=005544 GeodesicLength=0.7407549793745783 rxn_smarts="[O:1]([c:2]1[n:3][n:4]([H:8])[c:5]([H:9])[c:6]1[H:10])[H:7]>>[O:1]([c:2]1[n:3]([H:8])[n:4][c:5]([H:9])[c:6]1[H:10])[H:7]"
O        2.08698432      -0.19829277       0.16957925
C        0.77193071      -0.08644502      -0.07293953
N        0.02305692      -1.16949066      -0.22968601
N       -1.26602863      -0.81463769      -0.03840829
C       -1.31488895       0.50013686       0.14264912
C       -0.04270468       1.04012094      -0.02975990
H        2.54709284      -0.32877314      -0.66285062
H       -0.81884304      -2.00246877       0.37824008
H       -2.24882974       0.98750778       0.37546641
H        0.26223024       2.07234247      -0.03229052
10
Frame=16 idx=005544 GeodesicLength=0.7886256592090843 rxn_smarts="[O:1]([c:2]1[n:3][n:4]([H:8])[c:5]([H:9])[c:6]1[H:10])[H:7]>>[O:1]([c:2]1[n:3]([H:8])[n:4][c:5]([H:9])[c:6]1[H:10])[H:7]"
O        2.07936244      -0.23210607       0.17688429
C        0.76808383      -0.10052197      -0.07739673
N        0.00908638      -1.17376327      -0.25661094
N       -1.27093931      -0.81435288      -0.06343083
C       -1.31458630       0.49843324       0.13630144
C       -0.03843757       1.03242195      -0.03195783
H        2.55513638      -0.27205490      -0.65589813
H       -0.81855388      -1.98628820       0.41917054
H       -2.24259702       0.98587558       0.39099737
H        0.27344506       2.06235651      -0.03805917
