12
Frame=0 idx=001071 GeodesicLength=0.0 rxn_smarts="[N:1]([c:2]1[c:3]([H:9])[c:4]([H:10])[c:5]([H:11])[n:6]1[H:12])([H:7])[H:8]>>[N:1]([C:2][N:6]([C:5]1([H:11])[C:3]([H:9])=[C:4]1[H:10])[H:12])([H:7])[H:8]"
N        2.11990766      -0.23337812       0.06934313
C        0.94062810       0.03403923       0.67224912
C       -0.72248735       1.32422617       0.02128461
C       -1.50417479       0.63550253      -0.75193210
C       -1.25254571      -0.50890465       0.12407088
N        0.00372572      -0.94251409       0.43156167
H        2.22494282      -0.83844552      -0.73379918
H        2.90629273       0.34797886       0.29043248
H       -0.60049345       2.34212783       0.35766336
H       -2.26791419       0.79294669      -1.50707175
H       -2.08678144      -1.02979877       0.59427697
H        0.23889994      -1.92378014       0.43192085
12
Frame=1 idx=001071 GeodesicLength=0.04190723239548269 rxn_smarts="[N:1]([c:2]1[c:3]([H:9])[c:4]([H:10])[c:5]([H:11])[n:6]1[H:12])([H:7])[H:8]>>[N:1]([C:2][N:6]([C:5]1([H:11])[C:3]([H:9])=[C:4]1[H:10])[H:12])([H:7])[H:8]"
N        2.12602455      -0.24011197       0.07822968
C        0.93376993       0.04003521       0.65165416
C       -0.71808574       1.31676054       0.02217567
C       -1.50607118       0.63081725      -0.75268488
C       -1.25991039      -0.50550094       0.13082986
N        0.00111466      -0.94200462       0.42655399
H        2.23669341      -0.83176786      -0.73415100
H        2.90521021       0.35015612       0.30169942
H       -0.59489364       2.33650372       0.35246395
H       -2.27152133       0.79386228      -1.50403931
H       -2.09046602      -1.02604858       0.60659948
H        0.23813555      -1.92270114       0.42066897
12
Frame=2 idx=001071 GeodesicLength=0.08387262596110476 rxn_smarts="[N:1]([c:2]1[c:3]([H:9])[c:4]([H:10])[c:5]([H:11])[n:6]1[H:12])([H:7])[H:8]>>[N:1]([C:2][N:6]([C:5]1([H:11])[C:3]([H:9])=[C:4]1[H:10])[H:12])([H:7])[H:8]"
N        2.13206376      -0.24616604       0.08660961
C        0.92714161       0.04612774       0.62938146
C       -0.71422142       1.30961058       0.02270333
C       -1.50905123       0.62625993      -0.75304770
C       -1.26724410      -0.50182636       0.13772651
N       -0.00130912      -0.94121748       0.42049547
H        2.25032241      -0.82633371      -0.73301916
H        2.90457956       0.35120619       0.31483083
H       -0.58953759       2.33118109       0.34669541
H       -2.27659419       0.79471999      -1.50020284
H       -2.09360098      -1.02222666       0.61965478
H        0.23745128      -1.92133527       0.40817231
12
Frame=3 idx=001071 GeodesicLength=0.1258833785958436 rxn_smarts="[N:1]([c:2]1[c:3]([H:9])[c:4]([H:10])[c:5]([H:11])[n:6]1[H:12])([H:7])[H:8]>>[N:1]([C:2][N:6]([C:5]1([H:11])[C:3]([H:9])=[C:4]1[H:10])[H:12])([H:7])[H:8]"
N        2.13798661      -0.25175700       0.09473470
C        0.92074032       0.05213476       0.60559471
C       -0.71070937       1.30271506       0.02296453
C       -1.51286147       0.62184392      -0.75304626
C       -1.27449617      -0.49791189       0.14475114
N       -0.00361337      -0.94026159       0.41361764
H        2.26555299      -0.82214287      -0.73041935
H        2.90393994       0.35186842       0.32906466
H       -0.58430825       2.32605590       0.34060456
H       -2.28270739       0.79558504      -1.49574667
H       -2.09624261      -1.01833375       0.63325045
H        0.23671877      -1.91979601       0.39462991
12
Frame=4 idx=001071 GeodesicLength=0.1679224046126287 rxn_smarts="[N:1]([c:2]1[c:3]([H:9])[c:4]([H:10])[c:5]([H:11])[n:6]1[H:12])([H:7])[H:8]>>[N:1]([C:2][N:6]([C:5]1([H:11])[C:3]([H:9])=[C:4]1[H:10])[H:12])([H:7])[H:8]"
N        2.14373102      -0.25696892       0.10275562
C        0.91455742       0.05792010       0.58041599
C       -0.70739475       1.29601844       0.02300433
C       -1.51731117       0.61755820      -0.75270200
C       -1.28161945      -0.49378295       0.15191565
N       -0.00583922      -0.93922001       0.40610742
H        2.28211873      -0.81909755      -0.72641876
H        2.90298473       0.35257179       0.34396399
H       -0.57908169       2.32105080       0.33432642
H       -2.28956811       0.79647648      -1.49079206
H       -2.09842403      -1.01436578       0.64727372
H        0.23584651      -1.91816060       0.38014969
12
Frame=5 idx=001071 GeodesicLength=0.2099223383645257 rxn_smarts="[N:1]([c:2]1[c:3]([H:9])[c:4]([H:10])[c:5]([H:11])[n:6]1[H:12])([H:7])[H:8]>>[N:1]([C:2][N:6]([C:5]1([H:11])[C:3]([H:9])=[C:4]1[H:10])[H:12])([H:7])[H:8]"
N        2.14905700      -0.26174662       0.11042853
C        0.90855430       0.06329502       0.55453265
C       -0.70405687       1.28941980       0.02305158
C       -1.52192504       0.61335464      -0.75211061
C       -1.28857423      -0.48950941       0.15922014
N       -0.00808300      -0.93821051       0.39856739
H        2.29920148      -0.81668668      -0.72156243
H        2.90142659       0.35362046       0.35880299
H       -0.57376495       2.31603343       0.32820284
H       -2.29630513       0.79736028      -1.48583849
H       -2.10033213      -1.01037707       0.66134035
H        0.23480196      -1.91655334       0.36536505
12
Frame=6 idx=001071 GeodesicLength=0.25191628328404303 rxn_smarts="[N:1]([c:2]1[c:3]([H:9])[c:4]([H:10])[c:5]([H:11])[n:6]1[H:12])([H:7])[H:8]>>[N:1]([C:2][N:6]([C:5]1([H:11])[C:3]([H:9])=[C:4]1[H:10])[H:12])([H:7])[H:8]"
N        2.15419654      -0.26623944       0.11834272
C        0.90277827       0.06829573       0.52691357
C       -0.70077788       1.28297150       0.02279771
C       -1.52718959       0.60931758      -0.75111153
C       -1.29534941      -0.48502034       0.16667587
N       -0.01025797      -0.93719881       0.39028382
H        2.31765581      -0.81556575      -0.71492600
H        2.89920278       0.35521947       0.37410300
H       -0.56825366       2.31107350       0.32185336
H       -2.30386870       0.79834901      -1.48023316
H       -2.10168704      -1.00625360       0.67593930
H        0.23355084      -1.91494886       0.34936133
12
Frame=7 idx=001071 GeodesicLength=0.29390464574931235 rxn_smarts="[N:1]([c:2]1[c:3]([H:9])[c:4]([H:10])[c:5]([H:11])[n:6]1[H:12])([H:7])[H:8]>>[N:1]([C:2][N:6]([C:5]1([H:11])[C:3]([H:9])=[C:4]1[H:10])[H:12])([H:7])[H:8]"
N        2.15894625      -0.27033632       0.12629734
C        0.89715405       0.07275002       0.49820329
C       -0.69734571       1.27656826       0.02241170
C       -1.53269869       0.60536858      -0.74979615
C       -1.30191193      -0.48038606       0.17431022
N       -0.01245366      -0.93630393       0.38177706
H        2.33679807      -0.81521417      -0.70705379
H        2.89612625       0.35757361       0.38933259
H       -0.56238466       2.30604865       0.31551908
H       -2.31156177       0.79938006      -1.47438187
H       -2.10266557      -1.00203561       0.69077530
H        0.23199739      -1.91341311       0.33260524
12
Frame=8 idx=001071 GeodesicLength=0.3357695622862995 rxn_smarts="[N:1]([c:2]1[c:3]([H:9])[c:4]([H:10])[c:5]([H:11])[n:6]1[H:12])([H:7])[H:8]>>[N:1]([C:2][N:6]([C:5]1([H:11])[C:3]([H:9])=[C:4]1[H:10])[H:12])([H:7])[H:8]"
N        2.16287990      -0.27383994       0.13361532
C        0.89157489       0.07644659       0.47003256
C       -0.69348607       1.27004835       0.02234651
C       -1.53757972       0.60139525      -0.74839894
C       -1.30823904      -0.47573182       0.18208296
N       -0.01480871      -0.93566734       0.37420932
H        2.35516629      -0.81455544      -0.69933539
H        2.89201575       0.36075989       0.40342357
H       -0.55612850       2.30077769       0.30976159
H       -2.31782598       0.80034396      -1.46924601
H       -2.10370747      -0.99785062       0.70509688
H        0.23013868      -1.91212657       0.31641163
12
Frame=9 idx=001071 GeodesicLength=0.37752733612825384 rxn_smarts="[N:1]([c:2]1[c:3]([H:9])[c:4]([H:10])[c:5]([H:11])[n:6]1[H:12])([H:7])[H:8]>>[N:1]([C:2][N:6]([C:5]1([H:11])[C:3]([H:9])=[C:4]1[H:10])[H:12])([H:7])[H:8]"
N        2.16618733      -0.27682622       0.14080842
C        0.88609190       0.07932778       0.44159352
C       -0.68922364       1.26341686       0.02230240
C       -1.54223782       0.59742884      -0.74682691
C       -1.31432141      -0.47100214       0.19003573
N       -0.01724167      -0.93531801       0.36700302
H        2.37334594      -0.81385258      -0.69116101
H        2.88686012       0.36486655       0.41700123
H       -0.54925267       2.29530385       0.30413844
H       -2.32353285       0.80132259      -1.46425881
H       -2.10460925      -0.99357115       0.71936324
H        0.22793402      -1.91109637       0.30000072
12
Frame=10 idx=001071 GeodesicLength=0.4191549578198436 rxn_smarts="[N:1]([c:2]1[c:3]([H:9])[c:4]([H:10])[c:5]([H:11])[n:6]1[H:12])([H:7])[H:8]>>[N:1]([C:2][N:6]([C:5]1([H:11])[C:3]([H:9])=[C:4]1[H:10])[H:12])([H:7])[H:8]"
N        2.16896749      -0.27933728       0.14799306
C        0.88070762       0.08143944       0.41263584
C       -0.68460004       1.25669211       0.02216909
C       -1.54688216       0.59352884      -0.74503689
C       -1.32017340      -0.46620076       0.19813380
N       -0.01969297      -0.93525520       0.35980839
H        2.39164571      -0.81331741      -0.68217664
H        2.88067219       0.36987839       0.43030697
H       -0.54171174       2.28964996       0.29843742
H       -2.32910874       0.80243367      -1.45915223
H       -2.10527001      -0.98920373       0.73375496
H        0.22544605      -1.91030802       0.28312623
12
Frame=11 idx=001071 GeodesicLength=0.4611365292664732 rxn_smarts="[N:1]([c:2]1[c:3]([H:9])[c:4]([H:10])[c:5]([H:11])[n:6]1[H:12])([H:7])[H:8]>>[N:1]([C:2][N:6]([C:5]1([H:11])[C:3]([H:9])=[C:4]1[H:10])[H:12])([H:7])[H:8]"
N        2.17142333      -0.28149244       0.15573553
C        0.87533677       0.08293097       0.38165814
C       -0.67967670       1.24993661       0.02156784
C       -1.55211525       0.58971349      -0.74266142
C       -1.32573409      -0.46125427       0.20639456
N       -0.02218053      -0.93537514       0.35154517
H        2.41135615      -0.81384264      -0.67082376
H        2.87320425       0.37599634       0.44401515
H       -0.53326533       2.28389848       0.29207921
H       -2.33568574       0.80370070      -1.45282551
H       -2.10513691      -0.98462402       0.74884812
H        0.22247407      -1.90958808       0.26446696
12
Frame=12 idx=001071 GeodesicLength=0.5028607300979377 rxn_smarts="[N:1]([c:2]1[c:3]([H:9])[c:4]([H:10])[c:5]([H:11])[n:6]1[H:12])([H:7])[H:8]>>[N:1]([C:2][N:6]([C:5]1([H:11])[C:3]([H:9])=[C:4]1[H:10])[H:12])([H:7])[H:8]"
N        2.17302474      -0.28291000       0.16331828
C        0.87005308       0.08323106       0.35061554
C       -0.67412158       1.24289770       0.02101137
C       -1.55692224       0.58599374      -0.74015835
C       -1.33098374      -0.45629323       0.21474319
N       -0.02471395      -0.93601314       0.34365099
H        2.43034521      -0.81404724      -0.65878579
H        2.86441219       0.38347280       0.45671703
H       -0.52392164       2.27771417       0.28593100
H       -2.34147887       0.80525471      -1.44670038
H       -2.10486852      -0.97991611       0.76379638
H        0.21917533      -1.90938447       0.24586074
12
Frame=13 idx=001071 GeodesicLength=0.5447522253354162 rxn_smarts="[N:1]([c:2]1[c:3]([H:9])[c:4]([H:10])[c:5]([H:11])[n:6]1[H:12])([H:7])[H:8]>>[N:1]([C:2][N:6]([C:5]1([H:11])[C:3]([H:9])=[C:4]1[H:10])[H:12])([H:7])[H:8]"
N        2.17400208      -0.28373801       0.17107293
C        0.86474762       0.08258484       0.31872615
C       -0.66802613       1.23565781       0.02027206
C       -1.56173064       0.58234875      -0.73731289
C       -1.33593361      -0.45129139       0.22319461
N       -0.02732413      -0.93706247       0.33541805
H        2.44961886      -0.81441645      -0.64530308
H        2.85425020       0.39220201       0.46897580
H       -0.51356051       2.27123128       0.27955409
H       -2.34727770       0.80704678      -1.44008054
H       -2.10417829      -0.97504804       0.77898298
H        0.21541224      -1.90951510       0.22649984
12
Frame=14 idx=001071 GeodesicLength=0.5867101303617352 rxn_smarts="[N:1]([c:2]1[c:3]([H:9])[c:4]([H:10])[c:5]([H:11])[n:6]1[H:12])([H:7])[H:8]>>[N:1]([C:2][N:6]([C:5]1([H:11])[C:3]([H:9])=[C:4]1[H:10])[H:12])([H:7])[H:8]"
N        2.17427320      -0.28394872       0.17876331
C        0.85938913       0.08093911       0.28683535
C       -0.66133194       1.22814360       0.01947001
C       -1.56624191       0.57873787      -0.73428468
C       -1.34058691      -0.44629386       0.23173285
N       -0.03002416      -0.93858559       0.32725078
H        2.46855171      -0.81433804      -0.63127953
H        2.84280712       0.40199402       0.48070251
H       -0.50219373       2.26437753       0.27303577
H       -2.35261400       0.80904742      -1.43336171
H       -2.10325231      -0.97003776       0.79421016
H        0.21122381      -1.91003557       0.20692518
12
Frame=15 idx=001071 GeodesicLength=0.6288441435416012 rxn_smarts="[N:1]([c:2]1[c:3]([H:9])[c:4]([H:10])[c:5]([H:11])[n:6]1[H:12])([H:7])[H:8]>>[N:1]([C:2][N:6]([C:5]1([H:11])[C:3]([H:9])=[C:4]1[H:10])[H:12])([H:7])[H:8]"
N        2.17376470      -0.28352888       0.18610987
C        0.85391136       0.07826139       0.25582583
C       -0.65398285       1.22028594       0.01877944
C       -1.57012005       0.57506048      -0.73122474
C       -1.34497051      -0.44134065       0.24031805
N       -0.03287768      -0.94062962       0.31957551
H        2.48657232      -0.81306878      -0.61765365
H        2.83018609       0.41257290       0.49175189
H       -0.48983105       2.25710760       0.26649474
H       -2.35693376       0.81114799      -1.42692877
H       -2.10231602      -0.96485407       0.80921763
H        0.20659744      -1.91101431       0.18773421
12
Frame=16 idx=001071 GeodesicLength=0.6711774132011061 rxn_smarts="[N:1]([c:2]1[c:3]([H:9])[c:4]([H:10])[c:5]([H:11])[n:6]1[H:12])([H:7])[H:8]>>[N:1]([C:2][N:6]([C:5]1([H:11])[C:3]([H:9])=[C:4]1[H:10])[H:12])([H:7])[H:8]"
N        2.17251538      -0.28241405       0.19362699
C        0.84841485       0.07448957       0.22419540
C       -0.64598440       1.21210967       0.01794854
C       -1.57386116       0.57152501      -0.72788214
C       -1.34900329      -0.43640131       0.24890576
N       -0.03579005      -0.94321112       0.31150652
H        2.50450984      -0.81177830      -0.60254825
H        2.81604105       0.42461132       0.50200649
H       -0.47631800       2.24936998       0.25982597
H       -2.36111489       0.81369383      -1.42004542
H       -2.10095017      -0.95951563       0.82437783
H        0.20154083      -1.91247896       0.16808232
