15
Frame=0 idx=008028 GeodesicLength=0.0 rxn_smarts="[C:1]([C@@:2]1([H:11])[C:3]([H:12])([H:13])[N:4]([H:14])[C@:5]1([C:6]#[N:7])[H:15])([H:8])([H:9])[H:10]>>[C:1]([C@@:2]1([H:11])[C:3]([H:12])([H:13])[N+:4]([C:6]#[N:7])([H:14])[C-:5]1[H:15])([H:8])([H:9])[H:10]"
C        1.82119792      -0.37501173      -0.45742881
C        0.73278873       0.28639569       0.36528637
C       -0.39158290       0.99305195      -0.41200465
N       -1.46603795       0.23370883       0.32399944
C       -0.31280413      -0.64793528       0.97838146
C       -1.82969784      -0.97600647      -0.23580734
N       -2.46755569      -1.75266908      -0.82614053
H        1.38091685      -1.04616745      -1.19740555
H        2.44527733       0.36103680      -0.97113388
H        2.46852828      -0.97331242       0.18594625
H        1.18643939       0.98290080       1.08124473
H       -0.45089738       0.78888475      -1.47965393
H       -0.50959206       2.05869698      -0.22922379
H       -2.17896796       0.76830672       0.81538989
H       -0.42801263      -0.70188015       2.05855038
15
Frame=1 idx=008028 GeodesicLength=0.06658089075471339 rxn_smarts="[C:1]([C@@:2]1([H:11])[C:3]([H:12])([H:13])[N:4]([H:14])[C@:5]1([C:6]#[N:7])[H:15])([H:8])([H:9])[H:10]>>[C:1]([C@@:2]1([H:11])[C:3]([H:12])([H:13])[N+:4]([C:6]#[N:7])([H:14])[C-:5]1[H:15])([H:8])([H:9])[H:10]"
C        1.82108910      -0.37429409      -0.45815222
C        0.73178681       0.28622949       0.36356968
C       -0.38988244       0.99819827      -0.41159838
N       -1.46242983       0.24480936       0.32969740
C       -0.31739463      -0.64696791       0.97349825
C       -1.83012757      -0.98591335      -0.23086889
N       -2.46620214      -1.76339192      -0.82014016
H        1.38204241      -1.04211188      -1.20185844
H        2.44696191       0.36306678      -0.96774129
H        2.46692454      -0.97513382       0.18438481
H        1.18294314       0.97845521       1.08515149
H       -0.45040310       0.78713661      -1.47801410
H       -0.50168048       2.06585195      -0.23612705
H       -2.18262642       0.77361761       0.81473830
H       -0.43100129      -0.70955231       2.05346060
15
Frame=2 idx=008028 GeodesicLength=0.13315104556991492 rxn_smarts="[C:1]([C@@:2]1([H:11])[C:3]([H:12])([H:13])[N:4]([H:14])[C@:5]1([C:6]#[N:7])[H:15])([H:8])([H:9])[H:10]>>[C:1]([C@@:2]1([H:11])[C:3]([H:12])([H:13])[N+:4]([C:6]#[N:7])([H:14])[C-:5]1[H:15])([H:8])([H:9])[H:10]"
C        1.82086117      -0.37366107      -0.45891619
C        0.73080496       0.28611519       0.36188916
C       -0.38815196       1.00346659      -0.41106917
N       -1.45871760       0.25607405       0.33558422
C       -0.32201746      -0.64581870       0.96873857
C       -1.83027656      -0.99610859      -0.22599438
N       -2.46455788      -1.77426121      -0.81438296
H        1.38293337      -1.03810093      -1.20628414
H        2.44855007       0.36491872      -0.96445448
H        2.46519579      -0.97708100       0.18273534
H        1.17958068       0.97401856       1.08898919
H       -0.45000433       0.78559209      -1.47621496
H       -0.49367331       2.07304706      -0.24290435
H       -2.18651648       0.77876882       0.81385341
H       -0.43401048      -0.71696959       2.04843073
15
Frame=3 idx=008028 GeodesicLength=0.19970046366035 rxn_smarts="[C:1]([C@@:2]1([H:11])[C:3]([H:12])([H:13])[N:4]([H:14])[C@:5]1([C:6]#[N:7])[H:15])([H:8])([H:9])[H:10]>>[C:1]([C@@:2]1([H:11])[C:3]([H:12])([H:13])[N+:4]([C:6]#[N:7])([H:14])[C-:5]1[H:15])([H:8])([H:9])[H:10]"
C        1.82051474      -0.37311261      -0.45971978
C        0.72984174       0.28605134       0.36024586
C       -0.38639162       1.00885444      -0.41041641
N       -1.45489946       0.26751369       0.34167577
C       -0.32667566      -0.64449000       0.96410115
C       -1.83013997      -1.00659874      -0.22118145
N       -2.46263295      -1.78525902      -0.80888535
H        1.38359211      -1.03414679      -1.21067323
H        2.45003584       0.36659230      -0.96128383
H        2.46335056      -0.97913993       0.18100346
H        1.17635158       0.96959271       1.09275840
H       -0.44970679       0.78424322      -1.47425559
H       -0.48557015       2.08028017      -0.24956015
H       -2.19063523       0.78375516       0.81272900
H       -0.43703475      -0.72413593       2.04346213
15
Frame=4 idx=008028 GeodesicLength=0.266205889646691 rxn_smarts="[C:1]([C@@:2]1([H:11])[C:3]([H:12])([H:13])[N:4]([H:14])[C@:5]1([C:6]#[N:7])[H:15])([H:8])([H:9])[H:10]>>[C:1]([C@@:2]1([H:11])[C:3]([H:12])([H:13])[N+:4]([C:6]#[N:7])([H:14])[C-:5]1[H:15])([H:8])([H:9])[H:10]"
C        1.82005494      -0.37264969      -0.46056370
C        0.72889567       0.28603677       0.35864167
C       -0.38460455       1.01435974      -0.40963957
N       -1.45098065       0.27913928       0.34798770
C       -0.33137641      -0.64298381       0.95958360
C       -1.82971528      -1.01738892      -0.21642380
N       -2.46043662      -1.79636687      -0.80366175
H        1.38402421      -1.03026392      -1.21502180
H        2.45142044       0.36808651      -0.95824022
H        2.46140372      -0.98129753       0.17919413
H        1.17325708       0.96518057       1.09646459
H       -0.44951918       0.78308166      -1.47213922
H       -0.47737342       2.08754969      -0.25609632
H       -2.19497696       0.78857083       0.81135819
H       -0.44007298      -0.73105431       2.03855649
15
Frame=5 idx=008028 GeodesicLength=0.3327621390223403 rxn_smarts="[C:1]([C@@:2]1([H:11])[C:3]([H:12])([H:13])[N:4]([H:14])[C@:5]1([C:6]#[N:7])[H:15])([H:8])([H:9])[H:10]>>[C:1]([C@@:2]1([H:11])[C:3]([H:12])([H:13])[N+:4]([C:6]#[N:7])([H:14])[C-:5]1[H:15])([H:8])([H:9])[H:10]"
C        1.81946336      -0.37226949      -0.46144059
C        0.72796379       0.28606985       0.35707603
C       -0.38278349       1.01998015      -0.40873864
N       -1.44693475       0.29098094       0.35455421
C       -0.33611301      -0.64129981       0.95518704
C       -1.82897558      -1.02849903      -0.21173114
N       -2.45797369      -1.80755583      -0.79874093
H        1.38421664      -1.02645813      -1.21930093
H        2.45266861       0.36940236      -0.95533403
H        2.45933957      -0.98353772       0.17731814
H        1.17028938       0.96077849       1.10009445
H       -0.44944752       0.78209262      -1.46984746
H       -0.46907254       2.09485396      -0.26253443
H       -2.19953839       0.79320067       0.80972510
H       -0.44310237      -0.73773904       2.03371320
15
Frame=6 idx=008028 GeodesicLength=0.39925103672955814 rxn_smarts="[C:1]([C@@:2]1([H:11])[C:3]([H:12])([H:13])[N:4]([H:14])[C@:5]1([C:6]#[N:7])[H:15])([H:8])([H:9])[H:10]>>[C:1]([C@@:2]1([H:11])[C:3]([H:12])([H:13])[N+:4]([C:6]#[N:7])([H:14])[C-:5]1[H:15])([H:8])([H:9])[H:10]"
C        1.81875294      -0.37197679      -0.46236010
C        0.72704585       0.28615235       0.35555269
C       -0.38093535       1.02572309      -0.40770865
N       -1.44278572       0.30303989       0.36136762
C       -0.34090417      -0.63942974       0.95090620
C       -1.82793965      -1.03992155      -0.20707932
N       -2.45522537      -1.81886512      -0.79410252
H        1.38417253      -1.02272997      -1.22354202
H        2.45381192       0.37053599      -0.95255887
H        2.45717168      -0.98587382       0.17536461
H        1.16746226       0.95638726       1.10367077
H       -0.44949840       0.78129237      -1.46739692
H       -0.46066423       2.10219845      -0.26885869
H       -2.20431746       0.79764986       0.80781491
H       -0.44614682      -0.74418226       2.02893028
15
Frame=7 idx=008028 GeodesicLength=0.46577629241467633 rxn_smarts="[C:1]([C@@:2]1([H:11])[C:3]([H:12])([H:13])[N:4]([H:14])[C@:5]1([C:6]#[N:7])[H:15])([H:8])([H:9])[H:10]>>[C:1]([C@@:2]1([H:11])[C:3]([H:12])([H:13])[N+:4]([C:6]#[N:7])([H:14])[C-:5]1[H:15])([H:8])([H:9])[H:10]"
C        1.81790159      -0.37177156      -0.46331772
C        0.72613748       0.28628418       0.35407332
C       -0.37905698       1.03158548      -0.40654502
N       -1.43851128       0.31534997       0.36847845
C       -0.34574860      -0.63737246       0.94675260
C       -1.82655462      -1.05167873      -0.20249063
N       -2.45217948      -1.83024972      -0.78977926
H        1.38387046      -1.01908589      -1.22772037
H        2.45481697       0.37148549      -0.94993023
H        2.45487764      -0.98829863       0.17333760
H        1.16476927       0.95200872       1.10717975
H       -0.44968802       0.78065677      -1.46476060
H       -0.45214082       2.10958371      -0.27508980
H       -2.20930656       0.80189573       0.80559207
H       -0.44918706      -0.75039305       2.02421985
15
Frame=8 idx=008028 GeodesicLength=0.5322668544684979 rxn_smarts="[C:1]([C@@:2]1([H:11])[C:3]([H:12])([H:13])[N:4]([H:14])[C@:5]1([C:6]#[N:7])[H:15])([H:8])([H:9])[H:10]>>[C:1]([C@@:2]1([H:11])[C:3]([H:12])([H:13])[N+:4]([C:6]#[N:7])([H:14])[C-:5]1[H:15])([H:8])([H:9])[H:10]"
C        1.81691301      -0.37165847      -0.46431930
C        0.72523816       0.28646661       0.35264024
C       -0.37715082       1.03757337      -0.40524286
N       -1.43411763       0.32791654       0.37589246
C       -0.35065470      -0.63511775       0.94273069
C       -1.82483299      -1.06377212      -0.19794642
N       -2.44881155      -1.84174062      -0.78577648
H        1.38330808      -1.01551983      -1.23185723
H        2.45569850       0.37224422      -0.94744708
H        2.45245746      -0.99082759       0.17122935
H        1.16221819       0.94763930       1.11063412
H       -0.45002328       0.78019724      -1.46194392
H       -0.44349859       2.11701374      -0.28122218
H       -2.21451378       0.80594735       0.80303988
H       -0.45223006      -0.75636199       2.01958872
15
Frame=9 idx=008028 GeodesicLength=0.5987377918730652 rxn_smarts="[C:1]([C@@:2]1([H:11])[C:3]([H:12])([H:13])[N:4]([H:14])[C@:5]1([C:6]#[N:7])[H:15])([H:8])([H:9])[H:10]>>[C:1]([C@@:2]1([H:11])[C:3]([H:12])([H:13])[N+:4]([C:6]#[N:7])([H:14])[C-:5]1[H:15])([H:8])([H:9])[H:10]"
C        1.81576616      -0.37164681      -0.46536893
C        0.72434528       0.28670380       0.35125632
C       -0.37521527       1.04370067      -0.40379130
N       -1.42959824       0.34076851       0.38362771
C       -0.35562979      -0.63264552       0.93885041
C       -1.82275041      -1.07621402      -0.19344023
N       -2.44505596      -1.85336680      -0.78211019
H        1.38245018      -1.01203189      -1.23595688
H        2.45644080       0.37279576      -0.94511525
H        2.44988335      -0.99348122       0.16903040
H        1.15982184       0.94327591       1.11403574
H       -0.45051658       0.77993082      -1.45893360
H       -0.43472223       2.12449930      -0.28724592
H       -2.21994167       0.80978666       0.80011625
H       -0.45527745      -0.76207516       2.01504546
15
Frame=10 idx=008028 GeodesicLength=0.6652083548197594 rxn_smarts="[C:1]([C@@:2]1([H:11])[C:3]([H:12])([H:13])[N:4]([H:14])[C@:5]1([C:6]#[N:7])[H:15])([H:8])([H:9])[H:10]>>[C:1]([C@@:2]1([H:11])[C:3]([H:12])([H:13])[N+:4]([C:6]#[N:7])([H:14])[C-:5]1[H:15])([H:8])([H:9])[H:10]"
C        1.81444275      -0.37174543      -0.46647114
C        0.72345439       0.28699934       0.34992514
C       -0.37325413       1.04997615      -0.40217921
N       -1.42495240       0.35393316       0.39171547
C       -0.36068356      -0.62994199       0.93512466
C       -1.82025028      -1.08902481      -0.18897610
N       -2.44086993      -1.86512329      -0.77879487
H        1.38126566      -1.00861947      -1.24002472
H        2.45703965       0.37312486      -0.94293504
H        2.44712750      -0.99628519       0.16672865
H        1.15758741       0.93892307       1.11737985
H       -0.45118496       0.77986296      -1.45571476
H       -0.42581030       2.13204977      -0.29315619
H       -2.22558058       0.81338459       0.79677259
H       -0.45833123      -0.76751373       2.01060568
15
Frame=11 idx=008028 GeodesicLength=0.7316635416636624 rxn_smarts="[C:1]([C@@:2]1([H:11])[C:3]([H:12])([H:13])[N:4]([H:14])[C@:5]1([C:6]#[N:7])[H:15])([H:8])([H:9])[H:10]>>[C:1]([C@@:2]1([H:11])[C:3]([H:12])([H:13])[N+:4]([C:6]#[N:7])([H:14])[C-:5]1[H:15])([H:8])([H:9])[H:10]"
C        1.81293223      -0.37195635      -0.46763029
C        0.72256375       0.28735463       0.34865186
C       -0.37126568       1.05640577      -0.40039800
N       -1.42017421       0.36742753       0.40017616
C       -0.36582374      -0.62699559       0.93156211
C       -1.81732079      -1.10221508      -0.18455250
N       -2.43622677      -1.87703042      -0.77583015
H        1.37973701      -1.00527507      -1.24407100
H        2.45749053       0.37322869      -0.94090686
H        2.44417388      -0.99925281       0.16431303
H        1.15552123       0.93457802       1.12067421
H       -0.45203645       0.77999996      -1.45227836
H       -0.41674943       2.13966882      -0.29895375
H       -2.23142534       0.81673673       0.79296589
H       -0.46139624      -0.77267484       2.00627764
15
Frame=12 idx=008028 GeodesicLength=0.7981179102940275 rxn_smarts="[C:1]([C@@:2]1([H:11])[C:3]([H:12])([H:13])[N:4]([H:14])[C@:5]1([C:6]#[N:7])[H:15])([H:8])([H:9])[H:10]>>[C:1]([C@@:2]1([H:11])[C:3]([H:12])([H:13])[N+:4]([C:6]#[N:7])([H:14])[C-:5]1[H:15])([H:8])([H:9])[H:10]"
C        1.81120897      -0.37229046      -0.46885438
C        0.72166983       0.28777552       0.34744327
C       -0.36924925       1.06300648      -0.39843119
N       -1.41526013       0.38128409       0.40903697
C       -0.37106195      -0.62378257       0.92817917
C       -1.81391898      -1.11580135      -0.18016852
N       -2.43104781      -1.88911918      -0.77323012
H        1.37781952      -1.00199645      -1.24810354
H        2.45778083       0.37308553      -0.93903909
H        2.44098811      -1.00241343       0.16176447
H        1.15363620       0.93023794       1.12392434
H       -0.45308588       0.78036126      -1.44860588
H       -0.40752624       2.14737145      -0.30463013
H       -2.23747003       0.81982120       0.78863752
H       -0.46448321      -0.77754004       2.00207710
15
Frame=13 idx=008028 GeodesicLength=0.864577957384175 rxn_smarts="[C:1]([C@@:2]1([H:11])[C:3]([H:12])([H:13])[N:4]([H:14])[C@:5]1([C:6]#[N:7])[H:15])([H:8])([H:9])[H:10]>>[C:1]([C@@:2]1([H:11])[C:3]([H:12])([H:13])[N+:4]([C:6]#[N:7])([H:14])[C-:5]1[H:15])([H:8])([H:9])[H:10]"
C        1.80924515      -0.37276108      -0.47015021
C        0.72076758       0.28826869       0.34630594
C       -0.36720756       1.06979384      -0.39626285
N       -1.41020787       0.39553656       0.41832867
C       -0.37641028      -0.62027627       0.92499595
C       -1.81000428      -1.12980104      -0.17581287
N       -2.42523798      -1.90141145      -0.77103074
H        1.37546568      -0.99878121      -1.25213161
H        2.45789611       0.37266950      -0.93734007
H        2.43753117      -1.00580241       0.15906419
H        1.15194437       0.92590392       1.12713378
H       -0.45435335       0.78096089      -1.44467877
H       -0.39813104       2.15517045      -0.31017649
H       -2.24370165       0.82261318       0.78373042
H       -0.46759604      -0.78208356       1.99802465
15
Frame=14 idx=008028 GeodesicLength=0.9310396620484317 rxn_smarts="[C:1]([C@@:2]1([H:11])[C:3]([H:12])([H:13])[N:4]([H:14])[C@:5]1([C:6]#[N:7])[H:15])([H:8])([H:9])[H:10]>>[C:1]([C@@:2]1([H:11])[C:3]([H:12])([H:13])[N+:4]([C:6]#[N:7])([H:14])[C-:5]1[H:15])([H:8])([H:9])[H:10]"
C        1.80701693      -0.37337657      -0.47152049
C        0.71984817       0.28883591       0.34524451
C       -0.36514233       1.07677540      -0.39388294
N       -1.40501359       0.41021301       0.42808016
C       -0.38188483      -0.61646204       0.92202238
C       -1.80553391      -1.14423092      -0.17148211
N       -2.41873971      -1.91389708      -0.76926703
H        1.37264104      -0.99564773      -1.25614130
H        2.45780815       0.37196410      -0.93583410
H        2.43378511      -1.00941457       0.15621348
H        1.15044872       0.92157401       1.13030263
H       -0.45585655       0.78180730      -1.44048287
H       -0.38855557       2.16306938      -0.31559428
H       -2.25007617       0.82508674       0.77821234
H       -0.47074545      -0.78629694       1.99412960
15
Frame=15 idx=008028 GeodesicLength=0.9975178961464075 rxn_smarts="[C:1]([C@@:2]1([H:11])[C:3]([H:12])([H:13])[N:4]([H:14])[C@:5]1([C:6]#[N:7])[H:15])([H:8])([H:9])[H:10]>>[C:1]([C@@:2]1([H:11])[C:3]([H:12])([H:13])[N+:4]([C:6]#[N:7])([H:14])[C-:5]1[H:15])([H:8])([H:9])[H:10]"
C        1.80449559      -0.37415076      -0.47297357
C        0.71890659       0.28948374       0.34426685
C       -0.36305684       1.08396887      -0.39127234
N       -1.39967528       0.42535163       0.43832707
C       -0.38749908      -0.61231096       0.91928050
C       -1.80046098      -1.15911431      -0.16716860
N       -2.41146298      -1.92660327      -0.76796703
H        1.36929575      -0.99258999      -1.26014694
H        2.45750505       0.37094404      -0.93452512
H        2.42970751      -1.01329121       0.15318989
H        1.14916439       0.91724831       1.13343580
H       -0.45761925       0.78291811      -1.43599644
H       -0.37878921       2.17108315      -0.32087117
H       -2.25657572       0.82721388       0.77200596
H       -0.47393555      -0.79015123       1.99041513
15
Frame=16 idx=008028 GeodesicLength=1.0640099788212005 rxn_smarts="[C:1]([C@@:2]1([H:11])[C:3]([H:12])([H:13])[N:4]([H:14])[C@:5]1([C:6]#[N:7])[H:15])([H:8])([H:9])[H:10]>>[C:1]([C@@:2]1([H:11])[C:3]([H:12])([H:13])[N+:4]([C:6]#[N:7])([H:14])[C-:5]1[H:15])([H:8])([H:9])[H:10]"
C        1.80165697      -0.37508932      -0.47450759
C        0.71793076       0.29021361       0.34337749
C       -0.36095584       1.09137769      -0.38842532
N       -1.39418869       0.44098410       0.44910007
C       -0.39327234      -0.60780924       0.91677533
C       -1.79474315      -1.17447209      -0.16286334
N       -2.40335809      -1.93950248      -0.76717471
H        1.36539998      -0.98962441      -1.26413176
H        2.45695551       0.36959586      -0.93343393
H        2.42528146      -1.01742392       0.14999842
H        1.14808577       0.91292511       1.13653517
H       -0.45966175       0.78428967      -1.43120641
H       -0.36882855       2.17920998      -0.32601934
H       -2.26312836       0.82896567       0.76509059
H       -0.47717369      -0.79364024       1.98688534
