13
Frame=0 idx=002748 GeodesicLength=0.0 rxn_smarts="[C:1]1([H:7])([H:8])[N:2]([H:9])[C@:3]1([C@@:4]1([H:11])[C:5]([H:12])([H:13])[O:6]1)[H:10]>>[C:1]([N:2]([C:3]([C@@:4]1([H:11])[C:5]([H:12])([H:13])[O:6]1)([H:7])[H:10])[H:9])[H:8]"
C       -2.19392989      -0.13972377       0.31275651
N       -1.16618673       0.83761514       0.46355794
C       -0.57479423      -0.00558616      -0.57092717
C        0.79028399      -0.55716611      -0.24874318
C        1.81098366       0.28372348       0.36895180
O        1.12220967      -0.71454768       1.11171271
H       -1.24912585      -0.97953471      -0.55769852
H       -2.77276074       0.18786158      -0.57283610
H       -0.67432346       0.62523831       1.32856418
H       -0.62931511       0.45030173      -1.55626730
H        1.11096401      -1.37388534      -0.89061922
H        2.85925588       0.07707663       0.17911001
H        1.56673877       1.30862695       0.63243828
13
Frame=1 idx=002748 GeodesicLength=0.05383099105671229 rxn_smarts="[C:1]1([H:7])([H:8])[N:2]([H:9])[C@:3]1([C@@:4]1([H:11])[C:5]([H:12])([H:13])[O:6]1)[H:10]>>[C:1]([N:2]([C:3]([C@@:4]1([H:11])[C:5]([H:12])([H:13])[O:6]1)([H:7])[H:10])[H:9])[H:8]"
C       -2.20317321      -0.12264743       0.30076916
N       -1.16145488       0.83104200       0.46712931
C       -0.57411832      -0.01382810      -0.56772566
C        0.79493643      -0.55679729      -0.25105674
C        1.81269593       0.28694540       0.36737978
O        1.13046750      -0.71721864       1.10845085
H       -1.25560136      -1.00001194      -0.53679990
H       -2.77565785       0.21312464      -0.58475998
H       -0.68318099       0.61323297       1.33804602
H       -0.63122388       0.43899860      -1.55457369
H        1.11941958      -1.36949752      -0.89628811
H        2.86168303       0.08664669       0.17457895
H        1.56520803       1.31001062       0.63485002
13
Frame=2 idx=002748 GeodesicLength=0.10756194491942858 rxn_smarts="[C:1]1([H:7])([H:8])[N:2]([H:9])[C@:3]1([C@@:4]1([H:11])[C:5]([H:12])([H:13])[O:6]1)[H:10]>>[C:1]([N:2]([C:3]([C@@:4]1([H:11])[C:5]([H:12])([H:13])[O:6]1)([H:7])[H:10])[H:9])[H:8]"
C       -2.21172611      -0.10581472       0.28850899
N       -1.15693172       0.82423116       0.47070854
C       -0.57338577      -0.02196142      -0.56467250
C        0.79952417      -0.55640297      -0.25348429
C        1.81430642       0.29014817       0.36578557
O        1.13858843      -0.71986718       1.10508142
H       -1.26226910      -1.02027963      -0.51497666
H       -2.77803965       0.23841724      -0.59662522
H       -0.69227266       0.60118811       1.34732036
H       -0.63303485       0.42790818      -1.55296030
H        1.12768614      -1.36510407      -0.90203699
H        2.86397293       0.09619335       0.17009250
H        1.56358176       1.31134377       0.63725857
13
Frame=3 idx=002748 GeodesicLength=0.16120292072331066 rxn_smarts="[C:1]1([H:7])([H:8])[N:2]([H:9])[C@:3]1([C@@:4]1([H:11])[C:5]([H:12])([H:13])[O:6]1)[H:10]>>[C:1]([N:2]([C:3]([C@@:4]1([H:11])[C:5]([H:12])([H:13])[O:6]1)([H:7])[H:10])[H:9])[H:8]"
C       -2.21957771      -0.08927808       0.27600166
N       -1.15262751       0.81719187       0.47427340
C       -0.57258946      -0.02997310      -0.56178785
C        0.80404578      -0.55598654      -0.25602515
C        1.81581451       0.29332396       0.36417503
O        1.14655691      -0.72249479       1.10160950
H       -1.26912707      -1.04029581      -0.49226348
H       -2.77993005       0.26369878      -0.60837704
H       -0.70159252       0.58913830       1.35636967
H       -0.63472966       0.41706570      -1.55144098
H        1.13576806      -1.36071358      -0.90786054
H        2.86612668       0.10570084       0.16566519
H        1.56186203       1.31262244       0.63966059
13
Frame=4 idx=002748 GeodesicLength=0.21480071222094613 rxn_smarts="[C:1]1([H:7])([H:8])[N:2]([H:9])[C@:3]1([C@@:4]1([H:11])[C:5]([H:12])([H:13])[O:6]1)[H:10]>>[C:1]([N:2]([C:3]([C@@:4]1([H:11])[C:5]([H:12])([H:13])[O:6]1)([H:7])[H:10])[H:9])[H:8]"
C       -2.22675119      -0.07308317       0.26328059
N       -1.14856875       0.80994153       0.47780220
C       -0.57172301      -0.03785012      -0.55909316
C        0.80851507      -0.55555694      -0.25867903
C        1.81723375       0.29646418       0.36255201
O        1.15436797      -0.72511720       1.09804909
H       -1.27617333      -1.06003024      -0.46869059
H       -2.78138528       0.28894376      -0.61996369
H       -0.71115231       0.57711642       1.36518578
H       -0.63628858       0.40651240      -1.55004224
H        1.14369999      -1.35634324      -0.91375642
H        2.86817234       0.11515278       0.16130588
H        1.56005333       1.31384983       0.64204956
13
Frame=5 idx=002748 GeodesicLength=0.2682100183193596 rxn_smarts="[C:1]1([H:7])([H:8])[N:2]([H:9])[C@:3]1([C@@:4]1([H:11])[C:5]([H:12])([H:13])[O:6]1)[H:10]>>[C:1]([N:2]([C:3]([C@@:4]1([H:11])[C:5]([H:12])([H:13])[O:6]1)([H:7])[H:10])[H:9])[H:8]"
C       -2.23313247      -0.05729464       0.25034176
N       -1.14469529       0.80246605       0.48126654
C       -0.57078296      -0.04558399      -0.55659488
C        0.81288045      -0.55509302      -0.26144296
C        1.81852079       0.29956166       0.36093346
O        1.16197748      -0.72769049       1.09437108
H       -1.28341844      -1.07939946      -0.44432524
H       -2.78232141       0.31404777      -0.63133007
H       -0.72087373       0.56517498       1.37372201
H       -0.63772165       0.39623871      -1.54872660
H        1.15138530      -1.35195415      -0.91971129
H        2.87002520       0.12453670       0.15705482
H        1.55815674       1.31498987       0.64444137
13
Frame=6 idx=002748 GeodesicLength=0.3216094461430968 rxn_smarts="[C:1]1([H:7])([H:8])[N:2]([H:9])[C@:3]1([C@@:4]1([H:11])[C:5]([H:12])([H:13])[O:6]1)[H:10]>>[C:1]([N:2]([C:3]([C@@:4]1([H:11])[C:5]([H:12])([H:13])[O:6]1)([H:7])[H:10])[H:9])[H:8]"
C       -2.23885697      -0.04191793       0.23722979
N       -1.14107220       0.79479779       0.48465866
C       -0.56976013      -0.05317684      -0.55431410
C        0.81719872      -0.55462822      -0.26431705
C        1.81972102       0.30261340       0.35931440
O        1.16941447      -0.73026922       1.09061334
H       -1.29085181      -1.09842983      -0.41915492
H       -2.78287728       0.33907956      -0.64244808
H       -0.73082554       0.55330862       1.38200593
H       -0.63899036       0.38628459      -1.54755751
H        1.15895064      -1.34759266      -0.92574071
H        2.87177664       0.13385576       0.15288821
H        1.55617282       1.31607498       0.64682204
13
Frame=7 idx=002748 GeodesicLength=0.37499301428025056 rxn_smarts="[C:1]1([H:7])([H:8])[N:2]([H:9])[C@:3]1([C@@:4]1([H:11])[C:5]([H:12])([H:13])[O:6]1)[H:10]>>[C:1]([N:2]([C:3]([C@@:4]1([H:11])[C:5]([H:12])([H:13])[O:6]1)([H:7])[H:10])[H:9])[H:8]"
C       -2.24389907      -0.02696461       0.22394493
N       -1.13766600       0.78692488       0.48795292
C       -0.56865076      -0.06064233      -0.55225629
C        0.82145610      -0.55416142      -0.26729410
C        1.82081407       0.30561745       0.35770315
O        1.17667706      -0.73284167       1.08677096
H       -1.29849376      -1.11709174      -0.39319816
H       -2.78303153       0.36403349      -0.65328357
H       -0.74097655       0.54151802       1.39001234
H       -0.64009426       0.37662988      -1.54652745
H        1.16638540      -1.34323266      -0.93184315
H        2.87339092       0.14312676       0.14881373
H        1.55408840       1.31708395       0.64920469
13
Frame=8 idx=002748 GeodesicLength=0.42829244279300693 rxn_smarts="[C:1]1([H:7])([H:8])[N:2]([H:9])[C@:3]1([C@@:4]1([H:11])[C:5]([H:12])([H:13])[O:6]1)[H:10]>>[C:1]([N:2]([C:3]([C@@:4]1([H:11])[C:5]([H:12])([H:13])[O:6]1)([H:7])[H:10])[H:9])[H:8]"
C       -2.24824907      -0.01250704       0.21051718
N       -1.13448986       0.77887400       0.49113025
C       -0.56745194      -0.06795042      -0.55043588
C        0.82565323      -0.55368556      -0.27038032
C        1.82181065       0.30856005       0.35610782
O        1.18374197      -0.73541349       1.08284009
H       -1.30633856      -1.13531818      -0.36651931
H       -2.78281396       0.38880587      -0.66378920
H       -0.75131414       0.52988168       1.39773219
H       -0.64103505       0.36731648      -1.54564179
H        1.17367928      -1.33888244      -0.93801031
H        2.87488336       0.15230832       0.14485931
H        1.55192408       1.31801072       0.65158998
13
Frame=9 idx=002748 GeodesicLength=0.48157708403461585 rxn_smarts="[C:1]1([H:7])([H:8])[N:2]([H:9])[C@:3]1([C@@:4]1([H:11])[C:5]([H:12])([H:13])[O:6]1)[H:10]>>[C:1]([N:2]([C:3]([C@@:4]1([H:11])[C:5]([H:12])([H:13])[O:6]1)([H:7])[H:10])[H:9])[H:8]"
C       -2.25194437       0.00145235       0.19696072
N       -1.13153509       0.77064853       0.49417728
C       -0.56615621      -0.07511035      -0.54886441
C        0.82979713      -0.55320989      -0.27357372
C        1.82271260       0.31144215       0.35453295
O        1.19061273      -0.73798999       1.07882824
H       -1.31438943      -1.15311598      -0.33913304
H       -2.78225929       0.41341812      -0.67393033
H       -0.76183490       0.51839896       1.40516213
H       -0.64179843       0.35833924      -1.54492137
H        1.18086003      -1.33454306      -0.94425108
H        2.87625877       0.16141204       0.14103104
H        1.54967644       1.31885787       0.65398158
13
Frame=10 idx=002748 GeodesicLength=0.5348288075983705 rxn_smarts="[C:1]1([H:7])([H:8])[N:2]([H:9])[C@:3]1([C@@:4]1([H:11])[C:5]([H:12])([H:13])[O:6]1)[H:10]>>[C:1]([N:2]([C:3]([C@@:4]1([H:11])[C:5]([H:12])([H:13])[O:6]1)([H:7])[H:10])[H:9])[H:8]"
C       -2.25499739       0.01490762       0.18329608
N       -1.12878826       0.76225909       0.49707219
C       -0.56475919      -0.08213398      -0.54754028
C        0.83389306      -0.55274028      -0.27686945
C        1.82351805       0.31425949       0.35298253
O        1.19729403      -0.74058098       1.07473593
H       -1.32267317      -1.17045067      -0.31107587
H       -2.78138135       0.43784599      -0.68368211
H       -0.77253068       0.50708299       1.41229006
H       -0.64237662       0.34969124      -1.54435771
H        1.18794804      -1.33020523      -0.95056732
H        2.87751422       0.17044633       0.13733144
H        1.54733925       1.31961839       0.65638451
13
Frame=11 idx=002748 GeodesicLength=0.5880850231863148 rxn_smarts="[C:1]1([H:7])([H:8])[N:2]([H:9])[C@:3]1([C@@:4]1([H:11])[C:5]([H:12])([H:13])[O:6]1)[H:10]>>[C:1]([N:2]([C:3]([C@@:4]1([H:11])[C:5]([H:12])([H:13])[O:6]1)([H:7])[H:10])[H:9])[H:8]"
C       -2.25741976       0.02781453       0.16955254
N       -1.12625693       0.75372542       0.49979010
C       -0.56325664      -0.08899114      -0.54648730
C        0.83794543      -0.55226595      -0.28027529
C        1.82424171       0.31699980       0.35147162
O        1.20376591      -0.74319051       1.07056464
H       -1.33118436      -1.18730877      -0.28239725
H       -2.78023290       0.46201183      -0.69298409
H       -0.78338135       0.49600665       1.41909913
H       -0.64277670       0.34140485      -1.54397882
H        1.19494639      -1.32586325      -0.95696167
H        2.87867171       0.17937331       0.13380101
H        1.54493750       1.32028322       0.65880538
13
Frame=12 idx=002748 GeodesicLength=0.641312233852149 rxn_smarts="[C:1]1([H:7])([H:8])[N:2]([H:9])[C@:3]1([C@@:4]1([H:11])[C:5]([H:12])([H:13])[O:6]1)[H:10]>>[C:1]([N:2]([C:3]([C@@:4]1([H:11])[C:5]([H:12])([H:13])[O:6]1)([H:7])[H:10])[H:9])[H:8]"
C       -2.25924100       0.04013387       0.15577587
N       -1.12395263       0.74508658       0.50231646
C       -0.56163742      -0.09566141      -0.54571451
C        0.84196865      -0.55178757      -0.28379678
C        1.82489531       0.31964969       0.35000594
O        1.21001386      -0.74583866       1.06631834
H       -1.33991758      -1.20365545      -0.25315663
H       -2.77887627       0.48583303      -0.70180779
H       -0.79437958       0.48523888       1.42559415
H       -0.64298810       0.33351695      -1.54379610
H        1.20188146      -1.32152774      -0.96344034
H        2.87975150       0.18815589       0.13045628
H        1.54248181       1.32085593       0.66124512
13
Frame=13 idx=002748 GeodesicLength=0.6944998127691668 rxn_smarts="[C:1]1([H:7])([H:8])[N:2]([H:9])[C@:3]1([C@@:4]1([H:11])[C:5]([H:12])([H:13])[O:6]1)[H:10]>>[C:1]([N:2]([C:3]([C@@:4]1([H:11])[C:5]([H:12])([H:13])[O:6]1)([H:7])[H:10])[H:9])[H:8]"
C       -2.26044334       0.05189152       0.14194576
N       -1.12180224       0.73631896       0.50462687
C       -0.55990206      -0.10215908      -0.54521837
C        0.84593492      -0.55128970      -0.28742805
C        1.82545595       0.32221117       0.34860120
O        1.21603476      -0.74849638       1.06197566
H       -1.34888491      -1.21948833      -0.22336989
H       -2.77728809       0.50928453      -0.71013801
H       -0.80545724       0.47477185       1.43174273
H       -0.64302826       0.32598483      -1.54378655
H        1.20870326      -1.31715125      -0.97000077
H        2.88070129       0.19681839       0.12732008
H        1.53997596       1.32130349       0.66372935
13
Frame=14 idx=002748 GeodesicLength=0.7477109870926473 rxn_smarts="[C:1]1([H:7])([H:8])[N:2]([H:9])[C@:3]1([C@@:4]1([H:11])[C:5]([H:12])([H:13])[O:6]1)[H:10]>>[C:1]([N:2]([C:3]([C@@:4]1([H:11])[C:5]([H:12])([H:13])[O:6]1)([H:7])[H:10])[H:9])[H:8]"
C       -2.26110632       0.06306465       0.12810406
N       -1.11986074       0.72746711       0.50671672
C       -0.55804645      -0.10846672      -0.54501203
C        0.84989058      -0.55078565      -0.29117817
C        1.82596820       0.32467400       0.34725635
O        1.22184363      -0.75121763       1.05755839
H       -1.35811237      -1.23479713      -0.19305014
H       -2.77556391       0.53233605      -0.71795796
H       -0.81666724       0.46465344       1.43757027
H       -0.64288662       0.31884690      -1.54399095
H        1.21550086      -1.31275842      -0.97666185
H        2.88160579       0.20533612       0.12439138
H        1.53743460       1.32164728       0.66625392
13
Frame=15 idx=002748 GeodesicLength=0.8008982172685274 rxn_smarts="[C:1]1([H:7])([H:8])[N:2]([H:9])[C@:3]1([C@@:4]1([H:11])[C:5]([H:12])([H:13])[O:6]1)[H:10]>>[C:1]([N:2]([C:3]([C@@:4]1([H:11])[C:5]([H:12])([H:13])[O:6]1)([H:7])[H:10])[H:9])[H:8]"
C       -2.26122114       0.07364652       0.11426506
N       -1.11809202       0.71854243       0.50856822
C       -0.55605949      -0.11457921      -0.54509794
C        0.85382483      -0.55026400      -0.29505265
C        1.82641554       0.32703016       0.34598338
O        1.22742195      -0.75399564       1.05304727
H       -1.36759609      -1.24955867      -0.16222737
H       -2.77370878       0.55492044      -0.72524504
H       -0.82796513       0.45492651       1.44305931
H       -0.64256185       0.31209125      -1.54440023
H        1.22225382      -1.30832393      -0.98343497
H        2.88243141       0.21369725       0.12169374
H        1.53485696       1.32186688       0.66884122
13
Frame=16 idx=002748 GeodesicLength=0.8540813922989907 rxn_smarts="[C:1]1([H:7])([H:8])[N:2]([H:9])[C@:3]1([C@@:4]1([H:11])[C:5]([H:12])([H:13])[O:6]1)[H:10]>>[C:1]([N:2]([C:3]([C@@:4]1([H:11])[C:5]([H:12])([H:13])[O:6]1)([H:7])[H:10])[H:9])[H:8]"
C       -2.26082394       0.08362317       0.10045290
N       -1.11649486       0.70956779       0.51016294
C       -0.55394007      -0.12047027      -0.54548867
C        0.85774838      -0.54971392      -0.29905788
C        1.82682230       0.32926827       0.34479323
O        1.23276490      -0.75684706       1.04844282
H       -1.37734513      -1.26376765      -0.13092901
H       -2.77179785       0.57695094      -0.73198481
H       -0.83933215       0.44564631       1.44820535
H       -0.64206406       0.30575491      -1.54502906
H        1.22897429      -1.30383883      -0.99032480
H        2.88321401       0.22187046       0.11925897
H        1.53227417       1.32195587       0.67149799
