16
Frame=0 idx=004906 GeodesicLength=0.0 rxn_smarts="[C:1]([C:2]([C@@:3]1([C:4]([H:12])([H:13])[H:14])[C:5]([H:15])([H:16])[O:6]1)([H:10])[H:11])([H:7])([H:8])[H:9]>>[C:1]([C:2]([C:5]([O+:6]=[C-:3][C:4]([H:12])([H:13])[H:14])([H:15])[H:16])([H:10])[H:11])([H:7])([H:8])[H:9]"
C        1.55453819       0.76095375       0.69706104
C        0.78614602       0.36520407      -0.57436182
C       -0.86159671      -0.45396148      -1.05568303
C       -1.10329627      -1.67025510      -0.18424391
C       -0.86873128       0.93399154       0.06623848
O       -1.85413504       0.53426086      -0.77518430
H        1.36105717       0.05710681       1.50945963
H        1.31343052       1.76594462       1.05046098
H        2.62478538       0.72609924       0.48302334
H        1.18792459      -0.60521848      -0.85511803
H        0.98366966       1.04493602      -1.39851432
H       -1.92815063      -2.19467926      -0.67340546
H       -0.23857670      -2.33579142      -0.19360765
H       -1.40790566      -1.48523609       0.85305313
H       -0.61431372       1.98452374      -0.03918892
H       -0.93484556       0.57212124       1.09001080
16
Frame=1 idx=004906 GeodesicLength=0.07259799105378256 rxn_smarts="[C:1]([C:2]([C@@:3]1([C:4]([H:12])([H:13])[H:14])[C:5]([H:15])([H:16])[O:6]1)([H:10])[H:11])([H:7])([H:8])[H:9]>>[C:1]([C:2]([C:5]([O+:6]=[C-:3][C:4]([H:12])([H:13])[H:14])([H:15])[H:16])([H:10])[H:11])([H:7])([H:8])[H:9]"
C        1.57268692       0.77017771       0.69595634
C        0.79070566       0.36497459      -0.56362687
C       -0.86568466      -0.45564780      -1.04218859
C       -1.11929769      -1.68450162      -0.19404650
C       -0.86728279       0.93827130       0.07454549
O       -1.85686753       0.52497202      -0.76065768
H        1.38722500       0.07386801       1.51667330
H        1.33535620       1.77882837       1.04143612
H        2.64135146       0.73594118       0.47429070
H        1.19857785      -0.60412784      -0.84310202
H        0.98049535       1.03984987      -1.39393875
H       -1.92912404      -2.21021883      -0.70656595
H       -0.25168078      -2.34644228      -0.19205997
H       -1.44568973      -1.51057523       0.83826249
H       -0.62329406       1.98930271      -0.04894745
H       -0.94747718       0.59532782       1.10396935
16
Frame=2 idx=004906 GeodesicLength=0.14506766952924066 rxn_smarts="[C:1]([C:2]([C@@:3]1([C:4]([H:12])([H:13])[H:14])[C:5]([H:15])([H:16])[O:6]1)([H:10])[H:11])([H:7])([H:8])[H:9]>>[C:1]([C:2]([C:5]([O+:6]=[C-:3][C:4]([H:12])([H:13])[H:14])([H:15])[H:16])([H:10])[H:11])([H:7])([H:8])[H:9]"
C        1.59119562       0.77959916       0.69470391
C        0.79527825       0.36461588      -0.55239834
C       -0.86987653      -0.45753855      -1.02788454
C       -1.13553749      -1.69902136      -0.20422035
C       -0.86579444       0.94259330       0.08326100
O       -1.85970317       0.51547244      -0.74520773
H        1.41409893       0.09117688       1.52387508
H        1.35766327       1.79192963       1.03195361
H        2.65814143       0.74586155       0.46506053
H        1.20932847      -0.60308642      -0.83065317
H        0.97716918       1.03430879      -1.38903535
H       -1.92923656      -2.22548857      -0.74082315
H       -0.26517001      -2.35734275      -0.19014842
H       -1.48460358      -1.53671476       0.82228057
H       -0.63252473       1.99371032      -0.05893447
H       -0.96042864       0.61992446       1.11817080
16
Frame=3 idx=004906 GeodesicLength=0.21740352776801344 rxn_smarts="[C:1]([C:2]([C@@:3]1([C:4]([H:12])([H:13])[H:14])[C:5]([H:15])([H:16])[O:6]1)([H:10])[H:11])([H:7])([H:8])[H:9]>>[C:1]([C:2]([C:5]([O+:6]=[C-:3][C:4]([H:12])([H:13])[H:14])([H:15])[H:16])([H:10])[H:11])([H:7])([H:8])[H:9]"
C        1.61006716       0.78922006       0.69329105
C        0.79986200       0.36412100      -0.54064454
C       -0.87417867      -0.45965061      -1.01270403
C       -1.15201081      -1.71381731      -0.21478757
C       -0.86426776       0.94696431       0.09241464
O       -1.86264849       0.50573627      -0.72875420
H        1.44169911       0.10906205       1.53105241
H        1.38035714       1.80524982       1.02197615
H        2.67514658       0.75584669       0.45530782
H        1.22017012      -0.60210065      -0.81773896
H        0.97367513       1.02828345      -1.38377887
H       -1.92840179      -2.24042207      -0.77620031
H       -0.27909593      -2.36852122      -0.18785506
H       -1.52465444      -1.56369130       0.80499194
H       -0.64201694       1.99770829      -0.06915440
H       -0.97370241       0.64601123       1.13258392
16
Frame=4 idx=004906 GeodesicLength=0.28960718631364946 rxn_smarts="[C:1]([C:2]([C@@:3]1([C:4]([H:12])([H:13])[H:14])[C:5]([H:15])([H:16])[O:6]1)([H:10])[H:11])([H:7])([H:8])[H:9]>>[C:1]([C:2]([C:5]([O+:6]=[C-:3][C:4]([H:12])([H:13])[H:14])([H:15])[H:16])([H:10])[H:11])([H:7])([H:8])[H:9]"
C        1.62930794       0.79904648       0.69170329
C        0.80445483       0.36348070      -0.52832823
C       -0.87859897      -0.46200415      -0.99656875
C       -1.16871734      -1.72889351      -0.22577301
C       -0.86270396       0.95139095       0.10204144
O       -1.86571253       0.49573591      -0.71120488
H        1.47005174       0.12755995       1.53819353
H        1.40344484       1.81879494       1.01146064
H        2.69236064       0.76588471       0.44500195
H        1.23109856      -0.60117987      -0.80432601
H        0.96999542       1.02173749      -1.37814167
H       -1.92652040      -2.25494459      -0.81272706
H       -0.29351341      -2.38001115      -0.18516191
H       -1.56586426      -1.59154205       0.78626843
H       -0.65178187       2.00125264      -0.07960878
H       -0.98730122       0.67369154       1.14717103
16
Frame=5 idx=004906 GeodesicLength=0.36165386982926373 rxn_smarts="[C:1]([C:2]([C@@:3]1([C:4]([H:12])([H:13])[H:14])[C:5]([H:15])([H:16])[O:6]1)([H:10])[H:11])([H:7])([H:8])[H:9]>>[C:1]([C:2]([C:5]([O+:6]=[C-:3][C:4]([H:12])([H:13])[H:14])([H:15])[H:16])([H:10])[H:11])([H:7])([H:8])[H:9]"
C        1.64891591       0.80908284       0.68992802
C        0.80905578       0.36268633      -0.51540804
C       -0.88313974      -0.46462317      -0.97939287
C       -1.18563999      -1.74425354      -0.23721409
C       -0.86110563       0.95587833       0.11217693
O       -1.86889769       0.48543905      -0.69245719
H        1.49917525       0.14670535       1.54528336
H        1.42691979       1.83256625       1.00036627
H        2.70976888       0.77596658       0.43412116
H        1.24210534      -0.60033231      -0.79036830
H        0.96611413       1.01463570      -1.37209092
H       -1.92352215      -2.26897310      -0.85038334
H       -0.30850647      -2.39185144      -0.18207599
H       -1.60819562      -1.62029002       0.76595027
H       -0.66183002       2.00430069      -0.09031484
H       -1.00121778       0.70306247       1.16187959
16
Frame=6 idx=004906 GeodesicLength=0.43355453084720275 rxn_smarts="[C:1]([C:2]([C@@:3]1([C:4]([H:12])([H:13])[H:14])[C:5]([H:15])([H:16])[O:6]1)([H:10])[H:11])([H:7])([H:8])[H:9]>>[C:1]([C:2]([C:5]([O+:6]=[C-:3][C:4]([H:12])([H:13])[H:14])([H:15])[H:16])([H:10])[H:11])([H:7])([H:8])[H:9]"
C        1.66889918       0.81933221       0.68794567
C        0.81365976       0.36172796      -0.50184303
C       -0.88781482      -0.46753296      -0.96107707
C       -1.20278200      -1.75989718      -0.24913326
C       -0.85947555       0.96043753       0.12286395
O       -1.87221753       0.47480969      -0.67239446
H        1.52910195       0.16653749       1.55230428
H        1.45079400       1.84656791       0.98863917
H        2.72736354       0.78607011       0.42262608
H        1.25317917      -0.59957026      -0.77582700
H        0.96200296       1.00693619      -1.36559293
H       -1.91926486      -2.28241457      -0.88923174
H       -0.32413184      -2.40407967      -0.17856221
H       -1.65168471      -1.64996851       0.74389870
H       -0.67218038       2.00679529      -0.10127138
H       -1.01544884       0.73424879       1.17665521
16
Frame=7 idx=004906 GeodesicLength=0.5053000912861803 rxn_smarts="[C:1]([C:2]([C@@:3]1([C:4]([H:12])([H:13])[H:14])[C:5]([H:15])([H:16])[O:6]1)([H:10])[H:11])([H:7])([H:8])[H:9]>>[C:1]([C:2]([C:5]([O+:6]=[C-:3][C:4]([H:12])([H:13])[H:14])([H:15])[H:16])([H:10])[H:11])([H:7])([H:8])[H:9]"
C        1.68925683       0.82979598       0.68573810
C        0.81826055       0.36059642      -0.48758757
C       -0.89263396      -0.47076361      -0.94150776
C       -1.22013173      -1.77582401      -0.26156214
C       -0.85781798       0.96508103       0.13414781
O       -1.87567772       0.46380725      -0.65088191
H        1.55985258       0.18709348       1.55923471
H        1.47506969       1.86079808       0.97622400
H        2.74512545       0.79617336       0.41048333
H        1.26430713      -0.59890502      -0.76065894
H        0.95763281       0.99859554      -1.35861118
H       -1.91361138      -2.29515516      -0.92927641
H       -0.34046602      -2.41674412      -0.17460843
H       -1.69633546      -1.68060374       0.71992925
H       -0.68285178       2.00868104      -0.11249219
H       -1.02997899       0.76737348       1.19142933
16
Frame=8 idx=004906 GeodesicLength=0.5768896997333376 rxn_smarts="[C:1]([C:2]([C@@:3]1([C:4]([H:12])([H:13])[H:14])[C:5]([H:15])([H:16])[O:6]1)([H:10])[H:11])([H:7])([H:8])[H:9]>>[C:1]([C:2]([C:5]([O+:6]=[C-:3][C:4]([H:12])([H:13])[H:14])([H:15])[H:16])([H:10])[H:11])([H:7])([H:8])[H:9]"
C        1.70999351       0.84048212       0.68328200
C        0.82285456       0.35927912      -0.47258896
C       -0.89760261      -0.47435465      -0.92055110
C       -1.23768607      -1.79203732      -0.27454440
C       -0.85613641       0.96981930       0.14608093
O       -1.87928176       0.45238241      -0.62776502
H        1.59146138       0.20842355       1.56605122
H        1.49974783       1.87526376       0.96305083
H        2.76303860       0.80625450       0.39765106
H        1.27547273      -0.59834994      -0.74481162
H        0.95297266       0.98956279      -1.35109662
H       -1.90640972      -2.30706703      -0.97051405
H       -0.35758996      -2.42990010      -0.17020735
H       -1.74217576      -1.71220944       0.69382228
H       -0.69387095       2.00988590      -0.12398257
H       -1.04478804       0.80256502       1.20612337
16
Frame=9 idx=004906 GeodesicLength=0.6483659237710866 rxn_smarts="[C:1]([C:2]([C@@:3]1([C:4]([H:12])([H:13])[H:14])[C:5]([H:15])([H:16])[O:6]1)([H:10])[H:11])([H:7])([H:8])[H:9]>>[C:1]([C:2]([C:5]([O+:6]=[C-:3][C:4]([H:12])([H:13])[H:14])([H:15])[H:16])([H:10])[H:11])([H:7])([H:8])[H:9]"
C        1.73115253       0.85148155       0.68055233
C        0.82745293       0.35773739      -0.45670366
C       -0.90271882      -0.47835066      -0.89794511
C       -1.25550093      -1.80855814      -0.28820763
C       -0.85441519       0.97466481       0.15878777
O       -1.88304509       0.44044529      -0.60267454
H        1.62408357       0.23073965       1.57276735
H        1.52482648       1.89005529       0.94898159
H        2.78111163       0.81637861       0.38404134
H        1.28667315      -0.59798426      -0.72807776
H        0.94797747       0.97969316      -1.34296156
H       -1.89752547      -2.31802933      -1.01295664
H       -0.37565443      -2.44366219      -0.16550455
H       -1.78942099      -1.74483269       0.66514981
H       -0.70525123       2.01028044      -0.13581773
H       -1.05974560       0.83994107       1.22056899
16
Frame=10 idx=004906 GeodesicLength=0.7196710375190319 rxn_smarts="[C:1]([C:2]([C@@:3]1([C:4]([H:12])([H:13])[H:14])[C:5]([H:15])([H:16])[O:6]1)([H:10])[H:11])([H:7])([H:8])[H:9]>>[C:1]([C:2]([C:5]([O+:6]=[C-:3][C:4]([H:12])([H:13])[H:14])([H:15])[H:16])([H:10])[H:11])([H:7])([H:8])[H:9]"
C        1.75269678       0.86274019       0.67751365
C        0.83203999       0.35597285      -0.43992697
C       -0.90799922      -0.48280521      -0.87360583
C       -1.27350782      -1.82533562      -0.30253433
C       -0.85267554       0.97963255       0.17227120
O       -1.88696067       0.42794951      -0.57555110
H        1.65765630       0.25400455       1.57931631
H        1.55029346       1.90511311       0.93396105
H        2.79929109       0.82644620       0.36963279
H        1.29788319      -0.59779279      -0.71047251
H        0.94261608       0.96896246      -1.33418271
H       -1.88673797      -2.32781287      -1.05658700
H       -0.39476016      -2.45807519      -0.16040154
H       -1.83787118      -1.77840549       0.63378758
H       -0.71704989       2.00979119      -0.14794886
H       -1.07491445       0.87961455       1.23472828
16
Frame=11 idx=004906 GeodesicLength=0.7907769888573853 rxn_smarts="[C:1]([C:2]([C@@:3]1([C:4]([H:12])([H:13])[H:14])[C:5]([H:15])([H:16])[O:6]1)([H:10])[H:11])([H:7])([H:8])[H:9]>>[C:1]([C:2]([C:5]([O+:6]=[C-:3][C:4]([H:12])([H:13])[H:14])([H:15])[H:16])([H:10])[H:11])([H:7])([H:8])[H:9]"
C        1.77461863       0.87428136       0.67413539
C        0.83661101       0.35396122      -0.42216937
C       -0.91344164      -0.48777998      -0.84732532
C       -1.29168881      -1.84234325      -0.31759031
C       -0.85092098       0.98473782       0.18659516
O       -1.89102417       0.41481681      -0.54614615
H        1.69221345       0.27832519       1.58567122
H        1.57613343       1.92045761       0.91787167
H        2.81754220       0.83644021       0.35437942
H        1.30908161      -0.59781608      -0.69186790
H        0.93684693       0.95726698      -1.32469308
H       -1.87391568      -2.33620186      -1.10141069
H       -0.41505915      -2.47324920      -0.15497767
H       -1.88744509      -1.81290106       0.59947283
H       -0.72931146       2.00829752      -0.16041124
H       -1.09024029       0.92170670       1.24846603
16
Frame=12 idx=004906 GeodesicLength=0.861689123324529 rxn_smarts="[C:1]([C:2]([C@@:3]1([C:4]([H:12])([H:13])[H:14])[C:5]([H:15])([H:16])[O:6]1)([H:10])[H:11])([H:7])([H:8])[H:9]>>[C:1]([C:2]([C:5]([O+:6]=[C-:3][C:4]([H:12])([H:13])[H:14])([H:15])[H:16])([H:10])[H:11])([H:7])([H:8])[H:9]"
C        1.79692094       0.88614195       0.67036997
C        0.84116250       0.35167352      -0.40332600
C       -0.91905389      -0.49335327      -0.81884864
C       -1.31003606      -1.85955317      -0.33345885
C       -0.84915287       0.98999396       0.20184354
O       -1.89522695       0.40094247      -0.51414315
H        1.72781530       0.30384862       1.59179585
H        1.60233092       1.93612010       0.90055056
H        2.83583117       0.84633926       0.33820621
H        1.32024867      -0.59810783      -0.67211262
H        0.93061745       0.94446946      -1.31441339
H       -1.85881778      -2.34292197      -1.14739398
H       -0.43672947      -2.48929244      -0.14929098
H       -1.93815791      -1.84826398       0.56180345
H       -0.74208703       2.00565122      -0.17322542
H       -1.10566498       0.96631210       1.26164344
16
Frame=13 idx=004906 GeodesicLength=0.9324310304339887 rxn_smarts="[C:1]([C:2]([C@@:3]1([C:4]([H:12])([H:13])[H:14])[C:5]([H:15])([H:16])[O:6]1)([H:10])[H:11])([H:7])([H:8])[H:9]>>[C:1]([C:2]([C:5]([O+:6]=[C-:3][C:4]([H:12])([H:13])[H:14])([H:15])[H:16])([H:10])[H:11])([H:7])([H:8])[H:9]"
C        1.81964221       0.89844203       0.66614349
C        0.84571894       0.34904949      -0.38320643
C       -0.92479467      -0.49964713      -0.78775195
C       -1.32858899      -1.87692950      -0.35029030
C       -0.84735785       0.99540181       0.21816759
O       -1.89953353       0.38617027      -0.47899578
H        1.76463575       0.33090488       1.59767254
H        1.62885407       1.95221138       0.88172598
H        2.85414806       0.85619918       0.32096535
H        1.33140080      -0.59879148      -0.65087491
H        0.92385257       0.93031376      -1.30323934
H       -1.84118165      -2.34766413      -1.19460111
H       -0.46005024      -2.50637567      -0.14351155
H       -1.99023477      -1.88438818       0.52015887
H       -0.75547360       2.00160013      -0.18644119
H       -1.12103710       1.01350316       1.27407872
16
Frame=14 idx=004906 GeodesicLength=1.0029734602338085 rxn_smarts="[C:1]([C:2]([C@@:3]1([C:4]([H:12])([H:13])[H:14])[C:5]([H:15])([H:16])[O:6]1)([H:10])[H:11])([H:7])([H:8])[H:9]>>[C:1]([C:2]([C:5]([O+:6]=[C-:3][C:4]([H:12])([H:13])[H:14])([H:15])[H:16])([H:10])[H:11])([H:7])([H:8])[H:9]"
C        1.84274106       0.91116826       0.66138684
C        0.85025811       0.34605947      -0.36172553
C       -0.93068325      -0.50677558      -0.75375787
C       -1.34728375      -1.89438107      -0.36813430
C       -0.84554678       1.00097640       0.23561889
O       -1.90392985       0.37038146      -0.44041852
H        1.80265564       0.35959314       1.60320788
H        1.65567467       1.96870946       0.86120687
H        2.87241222       0.86592474       0.30258845
H        1.34248943      -0.59990654      -0.62802523
H        0.91648764       0.91465249      -1.29108776
H       -1.82066642      -2.35001008      -1.24298160
H       -0.48522634      -2.52463917      -0.13763861
H       -2.04347356      -1.92110823       0.47415645
H       -0.76955743       1.99595863      -0.20003887
H       -1.13635140       1.06339661       1.28564291
16
Frame=15 idx=004906 GeodesicLength=1.0732687141012944 rxn_smarts="[C:1]([C:2]([C@@:3]1([C:4]([H:12])([H:13])[H:14])[C:5]([H:15])([H:16])[O:6]1)([H:10])[H:11])([H:7])([H:8])[H:9]>>[C:1]([C:2]([C:5]([O+:6]=[C-:3][C:4]([H:12])([H:13])[H:14])([H:15])[H:16])([H:10])[H:11])([H:7])([H:8])[H:9]"
C        1.86619373       0.92438464       0.65602105
C        0.85477876       0.34265400      -0.33871254
C       -0.93669745      -0.51488993      -0.71641747
C       -1.36607789      -1.91179485      -0.38712006
C       -0.84371838       1.00672165       0.25428547
O       -1.90836746       0.35339909      -0.39787397
H        1.84192912       0.39017491       1.60832836
H        1.68273007       1.98565219       0.83870999
H        2.89054687       0.87549136       0.28298420
H        1.35349429      -0.60154712      -0.60325332
H        0.90843975       0.89722621      -1.27783083
H       -1.79701299      -2.34947833      -1.29247694
H       -0.51256092      -2.54428738      -0.13189142
H       -2.09773495      -1.95819784       0.42325481
H       -0.78444952       1.98843122      -0.21409316
H       -1.15149303       1.11606018       1.29608585
16
Frame=16 idx=004906 GeodesicLength=1.1433490334158394 rxn_smarts="[C:1]([C:2]([C@@:3]1([C:4]([H:12])([H:13])[H:14])[C:5]([H:15])([H:16])[O:6]1)([H:10])[H:11])([H:7])([H:8])[H:9]>>[C:1]([C:2]([C:5]([O+:6]=[C-:3][C:4]([H:12])([H:13])[H:14])([H:15])[H:16])([H:10])[H:11])([H:7])([H:8])[H:9]"
C        1.89001420       0.93820236       0.64990371
C        0.85929062       0.33875118      -0.31394253
C       -0.94280314      -0.52421790      -0.67509787
C       -1.38497203      -1.92902400      -0.40741060
C       -0.84188153       1.01261496       0.27433296
O       -1.91278431       0.33498523      -0.35062616
H        1.88261939       0.42305934       1.61293199
H        1.70995315       2.00311725       0.81380420
H        2.90851059       0.88489407       0.26193680
H        1.36442772      -0.60386438      -0.57613753
H        0.89958361       0.87765927      -1.26333986
H       -1.76961182      -2.34547360      -1.34310996
H       -0.54249167      -2.56554510      -0.12635897
H       -2.15318251      -1.99526963       0.36653913
H       -0.80033738       1.97860982      -0.22862121
H       -1.16633488       1.17150113       1.30519589
