14
Frame=0 idx=007135 GeodesicLength=0.0 rxn_smarts="[N:1](=[C:2]1\[O:3][C:4]([H:9])([H:10])[C@@:5]2([H:11])[C:6]([H:12])([H:13])[C@@:7]12[H:14])\[H:8]>>[N:1]([C:2]1=[C:7]2[C@@:5]([H:11])([C:4]([H:9])([H:10])[O:3]1)[C:6]2([H:12])[H:13])([H:8])[H:14]"
N        1.50607797      -1.63086123       0.73004479
C        0.91716381      -0.59331343       0.23644151
O        1.37757093       0.45087653      -0.41265924
C        0.31341353       1.45882094      -0.37848407
C       -0.91173747       0.77601382       0.21015655
C       -1.39046075      -0.40661898      -0.55212140
C       -0.46805772      -0.62192609       0.63084290
H        2.48091735      -1.86374102       0.60406249
H        0.18600981       1.81973141      -1.40035106
H        0.67663661       2.27060882       0.25226169
H       -1.58619544       1.38537996       0.79750519
H       -1.02787574      -0.54169820      -1.56861592
H       -2.41485074      -0.72429522      -0.40282821
H        0.34138790      -1.77897727       1.25374480
14
Frame=1 idx=007135 GeodesicLength=0.03956101014475971 rxn_smarts="[N:1](=[C:2]1\[O:3][C:4]([H:9])([H:10])[C@@:5]2([H:11])[C:6]([H:12])([H:13])[C@@:7]12[H:14])\[H:8]>>[N:1]([C:2]1=[C:7]2[C@@:5]([H:11])([C:4]([H:9])([H:10])[O:3]1)[C:6]2([H:12])[H:13])([H:8])[H:14]"
N        1.50902971      -1.62993135       0.73549419
C        0.91632996      -0.60137094       0.22582185
O        1.38062760       0.45183207      -0.40848539
C        0.31603098       1.45772208      -0.37822446
C       -0.90941546       0.77527414       0.20849195
C       -1.39412124      -0.40620995      -0.55264910
C       -0.46756980      -0.62273585       0.62602629
H        2.48679507      -1.84694464       0.60377216
H        0.19103057       1.81830581      -1.40058085
H        0.67581053       2.27090835       0.25282775
H       -1.58177571       1.38263154       0.80032775
H       -1.03441783      -0.54252753      -1.56988857
H       -2.41900019      -0.72100180      -0.40045890
H        0.33064581      -1.78595193       1.25752531
14
Frame=2 idx=007135 GeodesicLength=0.07910494595375506 rxn_smarts="[N:1](=[C:2]1\[O:3][C:4]([H:9])([H:10])[C@@:5]2([H:11])[C:6]([H:12])([H:13])[C@@:7]12[H:14])\[H:8]>>[N:1]([C:2]1=[C:7]2[C@@:5]([H:11])([C:4]([H:9])([H:10])[O:3]1)[C:6]2([H:12])[H:13])([H:8])[H:14]"
N        1.51197751      -1.62870336       0.74092357
C        0.91565891      -0.60909470       0.21561814
O        1.38372203       0.45298053      -0.40382849
C        0.31860432       1.45672829      -0.37791491
C       -0.90714406       0.77454939       0.20676513
C       -1.39755585      -0.40592456      -0.55314962
C       -0.46697252      -0.62341898       0.62134687
H        2.49193739      -1.83112532       0.60223080
H        0.19617478       1.81677389      -1.40084838
H        0.67470694       2.27146991       0.25334912
H       -1.57755521       1.37985075       0.80292158
H       -1.04057199      -0.54357458      -1.57105407
H       -2.42287329      -0.71798223      -0.39814601
H        0.31989103      -1.79252904       1.26178626
14
Frame=3 idx=007135 GeodesicLength=0.11864472846128815 rxn_smarts="[N:1](=[C:2]1\[O:3][C:4]([H:9])([H:10])[C@@:5]2([H:11])[C:6]([H:12])([H:13])[C@@:7]12[H:14])\[H:8]>>[N:1]([C:2]1=[C:7]2[C@@:5]([H:11])([C:4]([H:9])([H:10])[O:3]1)[C:6]2([H:12])[H:13])([H:8])[H:14]"
N        1.51481921      -1.62755617       0.74574307
C        0.91509558      -0.61666590       0.20552507
O        1.38679269       0.45414772      -0.39898654
C        0.32117361       1.45576295      -0.37759222
C       -0.90486501       0.77381481       0.20503775
C       -1.40091657      -0.40567033      -0.55361502
C       -0.46627704      -0.62408387       0.61666645
H        2.49680100      -1.81537790       0.60078600
H        0.20137309       1.81517788      -1.40113446
H        0.67353104       2.27211694       0.25382187
H       -1.57334078       1.37701572       0.80550149
H       -1.04663901      -0.54468240      -1.57216639
H       -2.42663272      -0.71506145      -0.39577404
H        0.30908489      -1.79893800       1.26618698
14
Frame=4 idx=007135 GeodesicLength=0.15816950818673997 rxn_smarts="[N:1](=[C:2]1\[O:3][C:4]([H:9])([H:10])[C@@:5]2([H:11])[C:6]([H:12])([H:13])[C@@:7]12[H:14])\[H:8]>>[N:1]([C:2]1=[C:7]2[C@@:5]([H:11])([C:4]([H:9])([H:10])[O:3]1)[C:6]2([H:12])[H:13])([H:8])[H:14]"
N        1.51761198      -1.62631035       0.75030280
C        0.91469229      -0.62389888       0.19584631
O        1.38988113       0.45548754      -0.39371805
C        0.32370070       1.45489933      -0.37722321
C       -0.90263374       0.77310073       0.20325903
C       -1.40407558      -0.40552465      -0.55405127
C       -0.46548280      -0.62463176       0.61211434
H        2.50108980      -1.80044718       0.59836988
H        0.20667694       1.81349396      -1.40144941
H        0.67210793       2.27300540       0.25424613
H       -1.56930999       1.37416238       0.80787648
H       -1.05235399      -0.54599444      -1.57317510
H       -2.43014690      -0.71238301      -0.39344855
H        0.29824223      -1.80495908       1.27105063
14
Frame=5 idx=007135 GeodesicLength=0.19767698502730158 rxn_smarts="[N:1](=[C:2]1\[O:3][C:4]([H:9])([H:10])[C@@:5]2([H:11])[C:6]([H:12])([H:13])[C@@:7]12[H:14])\[H:8]>>[N:1]([C:2]1=[C:7]2[C@@:5]([H:11])([C:4]([H:9])([H:10])[O:3]1)[C:6]2([H:12])[H:13])([H:8])[H:14]"
N        1.52031770      -1.62513728       0.75437401
C        0.91443365      -0.63083617       0.18650349
O        1.39296714       0.45695347      -0.38811433
C        0.32619596       1.45411811      -0.37681787
C       -0.90043521       0.77240308       0.20144777
C       -1.40707591      -0.40546062      -0.55445520
C       -0.46459574      -0.62509080       0.60765635
H        2.50496130      -1.78606147       0.59539825
H        0.21206061       1.81174013      -1.40178456
H        0.67049688       2.27408573       0.25461974
H       -1.56541378       1.37129173       0.81010184
H       -1.05779865      -0.54746772      -1.57409357
H       -2.43346252      -0.70989913      -0.39113946
H        0.28734858      -1.81063905       1.27630354
14
Frame=6 idx=007135 GeodesicLength=0.23716968544456007 rxn_smarts="[N:1](=[C:2]1\[O:3][C:4]([H:9])([H:10])[C@@:5]2([H:11])[C:6]([H:12])([H:13])[C@@:7]12[H:14])\[H:8]>>[N:1]([C:2]1=[C:7]2[C@@:5]([H:11])([C:4]([H:9])([H:10])[O:3]1)[C:6]2([H:12])[H:13])([H:8])[H:14]"
N        1.52297350      -1.62396555       0.75811172
C        0.91433693      -0.63740478       0.17761004
O        1.39606243       0.45861284      -0.38208065
C        0.32864126       1.45345076      -0.37636039
C       -0.89829309       0.77173385       0.19958301
C       -1.40986664      -0.40550810      -0.55483454
C       -0.46361791      -0.62542314       0.60334173
H        2.50831463      -1.77254688       0.59143237
H        0.21754356       1.80991242      -1.40213878
H        0.66862283       2.27541805       0.25494636
H       -1.56172395       1.36841659       0.81210487
H       -1.06286798      -0.54915451      -1.57490799
H       -2.43652768      -0.70766823      -0.38889824
H        0.27640210      -1.81587334       1.28209052
14
Frame=7 idx=007135 GeodesicLength=0.27664894981487254 rxn_smarts="[N:1](=[C:2]1\[O:3][C:4]([H:9])([H:10])[C@@:5]2([H:11])[C:6]([H:12])([H:13])[C@@:7]12[H:14])\[H:8]>>[N:1]([C:2]1=[C:7]2[C@@:5]([H:11])([C:4]([H:9])([H:10])[O:3]1)[C:6]2([H:12])[H:13])([H:8])[H:14]"
N        1.52554627      -1.62298522       0.76125486
C        0.91436478      -0.64372250       0.16897040
O        1.39913451       0.46035758      -0.37579571
C        0.33106351       1.45284716      -0.37587457
C       -0.89617187       0.77107583       0.19769970
C       -1.41254033      -0.40561440      -0.55518388
C       -0.46255797      -0.62569580       0.59908710
H        2.51141093      -1.75935912       0.58721806
H        0.22308666       1.80803346      -1.40250193
H        0.66661253       2.27689259       0.25522271
H       -1.55812487       1.36552388       0.81400822
H       -1.06774633      -0.55096096      -1.57565104
H       -2.43944272      -0.70558336      -0.38665430
H        0.26536489      -1.82080914       1.28820036
14
Frame=8 idx=007135 GeodesicLength=0.31611716815682356 rxn_smarts="[N:1](=[C:2]1\[O:3][C:4]([H:9])([H:10])[C@@:5]2([H:11])[C:6]([H:12])([H:13])[C@@:7]12[H:14])\[H:8]>>[N:1]([C:2]1=[C:7]2[C@@:5]([H:11])([C:4]([H:9])([H:10])[O:3]1)[C:6]2([H:12])[H:13])([H:8])[H:14]"
N        1.52806822      -1.62215242       0.76390055
C        0.91451478      -0.64978859       0.16058586
O        1.40218240       0.46219338      -0.36925484
C        0.33346103       1.45230843      -0.37535883
C       -0.89407395       0.77042859       0.19579464
C       -1.41509546      -0.40578276      -0.55550659
C       -0.46141938      -0.62590944       0.59489368
H        2.51425633      -1.74654109       0.58267202
H        0.22869541       1.80610233      -1.40287243
H        0.66445882       2.27850962       0.25545064
H       -1.55462155       1.36261227       0.81580802
H       -1.07243031      -0.55288892      -1.57632583
H       -2.44220981      -0.70363967      -0.38441479
H        0.25421346      -1.82545173       1.29462790
14
Frame=9 idx=007135 GeodesicLength=0.3555843505794167 rxn_smarts="[N:1](=[C:2]1\[O:3][C:4]([H:9])([H:10])[C@@:5]2([H:11])[C:6]([H:12])([H:13])[C@@:7]12[H:14])\[H:8]>>[N:1]([C:2]1=[C:7]2[C@@:5]([H:11])([C:4]([H:9])([H:10])[O:3]1)[C:6]2([H:12])[H:13])([H:8])[H:14]"
N        1.53050736      -1.62163493       0.76582140
C        0.91475107      -0.65571007       0.15228047
O        1.40517843       0.46401802      -0.36261898
C        0.33585916       1.45178645      -0.37483398
C       -0.89196590       0.76977302       0.19389777
C       -1.41761061      -0.40596696      -0.55579948
C       -0.46020910      -0.62612608       0.59068388
H        2.51706201      -1.73359076       0.57843560
H        0.23433678       1.80413494      -1.40324213
H        0.66227605       2.28016678       0.25563101
H       -1.55110590       1.35966278       0.81761418
H       -1.07708163      -0.55485272      -1.57696243
H       -2.44491155      -0.70174579      -0.38211887
H        0.24291383      -1.82991467       1.30121154
14
Frame=10 idx=007135 GeodesicLength=0.3950419961821914 rxn_smarts="[N:1](=[C:2]1\[O:3][C:4]([H:9])([H:10])[C@@:5]2([H:11])[C:6]([H:12])([H:13])[C@@:7]12[H:14])\[H:8]>>[N:1]([C:2]1=[C:7]2[C@@:5]([H:11])([C:4]([H:9])([H:10])[O:3]1)[C:6]2([H:12])[H:13])([H:8])[H:14]"
N        1.53292767      -1.62125813       0.76730955
C        0.91510301      -0.66139219       0.14420540
O        1.40814402       0.46592653      -0.35574987
C        0.33823402       1.45132567      -0.37427628
C       -0.88988077       0.76912454       0.19197963
C       -1.42001354      -0.40621211      -0.55607274
C       -0.45892566      -0.62629317       0.58652621
H        2.51965077      -1.72100204       0.57384991
H        0.24003855       1.80212868      -1.40360779
H        0.65996086       2.28195018       0.25577256
H       -1.54768269       1.35669259       0.81932079
H       -1.08155234      -0.55692739      -1.57754192
H       -2.44747426      -0.69998775      -0.37983610
H        0.23147035      -1.83407543       1.30812064
14
Frame=11 idx=007135 GeodesicLength=0.43448888835989175 rxn_smarts="[N:1](=[C:2]1\[O:3][C:4]([H:9])([H:10])[C@@:5]2([H:11])[C:6]([H:12])([H:13])[C@@:7]12[H:14])\[H:8]>>[N:1]([C:2]1=[C:7]2[C@@:5]([H:11])([C:4]([H:9])([H:10])[O:3]1)[C:6]2([H:12])[H:13])([H:8])[H:14]"
N        1.53534027      -1.62102263       0.76838368
C        0.91557049      -0.66683384       0.13635804
O        1.41107613       0.46792238      -0.34865243
C        0.34058509       1.45092751      -0.37368291
C       -0.88782006       0.76848298       0.19003915
C       -1.42230256      -0.40652031      -0.55632877
C       -0.45757077      -0.62641035       0.58242206
H        2.52202844      -1.70879551       0.56888872
H        0.24579821       1.80009257      -1.40396200
H        0.65751402       2.28385626       0.25587996
H       -1.54435752       1.35370320       0.82092227
H       -1.08583834      -0.55911373      -1.57806597
H       -2.44989649      -0.69837180      -0.37757337
H        0.21987310      -1.83791674       1.31537154
14
Frame=12 idx=007135 GeodesicLength=0.47392556730838653 rxn_smarts="[N:1](=[C:2]1\[O:3][C:4]([H:9])([H:10])[C@@:5]2([H:11])[C:6]([H:12])([H:13])[C@@:7]12[H:14])\[H:8]>>[N:1]([C:2]1=[C:7]2[C@@:5]([H:11])([C:4]([H:9])([H:10])[O:3]1)[C:6]2([H:12])[H:13])([H:8])[H:14]"
N        1.53776957      -1.62088467       0.76912036
C        0.91615554      -0.67202218       0.12875537
O        1.41397434       0.47001689      -0.34131821
C        0.34290849       1.45059806      -0.37304935
C       -0.88578817       0.76785092       0.18807417
C       -1.42446680      -0.40689795      -0.55656766
C       -0.45614420      -0.62646945       0.57838410
H        2.52418238      -1.69705644       0.56344503
H        0.25161402       1.79803268      -1.40429980
H        0.65492507       2.28589164       0.25595713
H       -1.54114856       1.35070143       0.82239895
H       -1.08991932      -0.56141854      -1.57853196
H       -2.45216708      -0.69691394      -0.37534284
H        0.20810472      -1.84142845       1.32297471
14
Frame=13 idx=007135 GeodesicLength=0.5133507102285516 rxn_smarts="[N:1](=[C:2]1\[O:3][C:4]([H:9])([H:10])[C@@:5]2([H:11])[C:6]([H:12])([H:13])[C@@:7]12[H:14])\[H:8]>>[N:1]([C:2]1=[C:7]2[C@@:5]([H:11])([C:4]([H:9])([H:10])[O:3]1)[C:6]2([H:12])[H:13])([H:8])[H:14]"
N        1.54023191      -1.62082531       0.76955436
C        0.91685394      -0.67697766       0.12136409
O        1.41683320       0.47219888      -0.33377033
C        0.34520705       1.45033120      -0.37237548
C       -0.88378245       0.76722317       0.18608500
C       -1.42651849      -0.40734212      -0.55679596
C       -0.45464868      -0.62648350       0.57439591
H        2.52613923      -1.68575455       0.55755215
H        0.25748521       1.79595671      -1.40461429
H        0.65220793       2.28803815       0.25601202
H       -1.53804229       1.34767883       0.82376835
H       -1.09381954      -0.56383086      -1.57895160
H       -2.45430115      -0.69560163      -0.37314490
H        0.19615413      -1.84461131       1.33092069
14
Frame=14 idx=007135 GeodesicLength=0.5527700434275515 rxn_smarts="[N:1](=[C:2]1\[O:3][C:4]([H:9])([H:10])[C@@:5]2([H:11])[C:6]([H:12])([H:13])[C@@:7]12[H:14])\[H:8]>>[N:1]([C:2]1=[C:7]2[C@@:5]([H:11])([C:4]([H:9])([H:10])[O:3]1)[C:6]2([H:12])[H:13])([H:8])[H:14]"
N        1.54272310      -1.62088665       0.76963409
C        0.91765423      -0.68173300       0.11412988
O        1.41964702       0.47444250      -0.32604442
C        0.34748800       1.45011307      -0.37166631
C       -0.88179356       0.76659266       0.18407885
C       -1.42847896      -0.40784146      -0.55701443
C       -0.45308712      -0.62647228       0.57043499
H        2.52795950      -1.67475364       0.55136721
H        0.26340815       1.79386636      -1.40490359
H        0.64938863       2.29026917       0.25604434
H       -1.53500744       1.34462655       0.82506295
H       -1.09758205      -0.56632974      -1.57933455
H       -2.45632226      -0.69440751      -0.37096285
H        0.18400275      -1.84748602       1.33917385
14
Frame=15 idx=007135 GeodesicLength=0.5921870300056494 rxn_smarts="[N:1](=[C:2]1\[O:3][C:4]([H:9])([H:10])[C@@:5]2([H:11])[C:6]([H:12])([H:13])[C@@:7]12[H:14])\[H:8]>>[N:1]([C:2]1=[C:7]2[C@@:5]([H:11])([C:4]([H:9])([H:10])[O:3]1)[C:6]2([H:12])[H:13])([H:8])[H:14]"
N        1.54524963      -1.62107017       0.76936214
C        0.91855008      -0.68630552       0.10702295
O        1.42241272       0.47673764      -0.31815323
C        0.34975412       1.44993644      -0.37092081
C       -0.87981851       0.76595342       0.18205605
C       -1.43035765      -0.40839220      -0.55722954
C       -0.45146199      -0.62644768       0.56648607
H        2.52966575      -1.66401251       0.54492464
H        0.26938541       1.79176319      -1.40516223
H        0.64647664       2.29256844       0.25606100
H       -1.53202981       1.34153357       0.82629910
H       -1.10122660      -0.56890344      -1.57969153
H       -2.45824016      -0.69332328      -0.36879645
H        0.17164035      -1.85003789       1.34774186
14
Frame=16 idx=007135 GeodesicLength=0.6316057323009888 rxn_smarts="[N:1](=[C:2]1\[O:3][C:4]([H:9])([H:10])[C@@:5]2([H:11])[C:6]([H:12])([H:13])[C@@:7]12[H:14])\[H:8]>>[N:1]([C:2]1=[C:7]2[C@@:5]([H:11])([C:4]([H:9])([H:10])[O:3]1)[C:6]2([H:12])[H:13])([H:8])[H:14]"
N        1.54781133      -1.62139824       0.76871311
C        0.91953490      -0.69071647       0.10000605
O        1.42512734       0.47906854      -0.31011539
C        0.35201003       1.44979266      -0.37014170
C       -0.87785158       0.76530083       0.18002050
C       -1.43216759      -0.40898794      -0.55744187
C       -0.44977477      -0.62642238       0.56253403
H        2.53129410      -1.65344765       0.53831315
H        0.27541827       1.78964611      -1.40538908
H        0.64348742       2.29491958       0.25606203
H       -1.52909002       1.33839219       0.82749854
H       -1.10478128      -0.57153757      -1.58002928
H       -2.46006840      -0.69233545      -0.36663516
H        0.15905026      -1.85227421       1.35660507
