13
Frame=0 idx=003380 GeodesicLength=0.0 rxn_smarts="[C:1]([C@@:2]1([H:10])[N:3]([H:11])[C@:4]1([C:5]#[C:6][H:13])[H:12])([H:7])([H:8])[H:9]>>[C:1]([C@@:2]1([H:10])[N+:3]([H:11])([H:12])[C-:4]1[C:5]#[C:6][H:13])([H:7])([H:8])[H:9]"
C       -1.18745924      -0.91318833       0.33026099
C       -0.89653782       0.25218920      -0.57582724
N       -0.54292548       1.51877999       0.08330397
C        0.48083114       0.58788448      -1.00020528
C        1.56342698       0.00060712      -0.29110553
C        2.53383126      -0.49522037       0.22058190
H       -0.41423411      -1.03304207       1.09100843
H       -2.15495447      -0.79291825       0.82043634
H       -1.21926168      -1.83292594      -0.25578801
H       -1.66674042       0.40989422      -1.32725316
H       -0.13205299       1.34889683       0.99674096
H        0.23359015       1.87862144      -0.74767163
H        3.40248663      -0.92957837       0.65551826
13
Frame=1 idx=003380 GeodesicLength=0.05162517590165493 rxn_smarts="[C:1]([C@@:2]1([H:10])[N:3]([H:11])[C@:4]1([C:5]#[C:6][H:13])[H:12])([H:7])([H:8])[H:9]>>[C:1]([C@@:2]1([H:10])[N+:3]([H:11])([H:12])[C-:4]1[C:5]#[C:6][H:13])([H:7])([H:8])[H:9]"
C       -1.18875825      -0.91595470       0.33080357
C       -0.89748885       0.24953487      -0.57474995
N       -0.53404761       1.51431992       0.08142540
C        0.47989620       0.59313983      -0.99141402
C        1.56525572       0.00293934      -0.28861430
C        2.53502726      -0.49497659       0.22204912
H       -0.41440898      -1.03800875       1.09005155
H       -2.15530838      -0.79472808       0.82276247
H       -1.22312633      -1.83508129      -0.25610985
H       -1.66632467       0.40973733      -1.32695456
H       -0.13372571       1.34866905       0.99994216
H        0.23072389       1.89404524      -0.76461498
H        3.40228570      -0.93363617       0.65542336
13
Frame=2 idx=003380 GeodesicLength=0.10323994830703365 rxn_smarts="[C:1]([C@@:2]1([H:10])[N:3]([H:11])[C@:4]1([C:5]#[C:6][H:13])[H:12])([H:7])([H:8])[H:9]>>[C:1]([C@@:2]1([H:10])[N+:3]([H:11])([H:12])[C-:4]1[C:5]#[C:6][H:13])([H:7])([H:8])[H:9]"
C       -1.19000827      -0.91867081       0.33134257
C       -0.89834425       0.24695759      -0.57362990
N       -0.52518298       1.50996318       0.07960101
C        0.47901039       0.59843443      -0.98269315
C        1.56707201       0.00516822      -0.28624725
C        2.53618426      -0.49504596       0.22322817
H       -0.41454574      -1.04291138       1.08909416
H       -2.15562254      -0.79650319       0.82505923
H       -1.22691369      -1.83716644      -0.25645476
H       -1.66582365       0.40965861      -1.32659711
H       -0.13563153       1.34852081       1.00313838
H        0.22773990       1.90903668      -0.78136847
H        3.40206610      -0.93744175       0.65552713
13
Frame=3 idx=003380 GeodesicLength=0.15484255767255412 rxn_smarts="[C:1]([C@@:2]1([H:10])[N:3]([H:11])[C@:4]1([C:5]#[C:6][H:13])[H:12])([H:7])([H:8])[H:9]>>[C:1]([C@@:2]1([H:10])[N+:3]([H:11])([H:12])[C-:4]1[C:5]#[C:6][H:13])([H:7])([H:8])[H:9]"
C       -1.19128577      -0.92134798       0.33183635
C       -0.89916300       0.24449896      -0.57243437
N       -0.51615741       1.50563457       0.07794368
C        0.47810345       0.60366822      -0.97416955
C        1.56882959       0.00700855      -0.28433377
C        2.53726434      -0.49586920       0.22361320
H       -0.41463226      -1.04793216       1.08797459
H       -2.15588965      -0.79818682       0.82743145
H       -1.23089870      -1.83912927      -0.25694884
H       -1.66538195       0.40986466      -1.32602468
H       -0.13744444       1.34824706       1.00635095
H        0.22477855       1.92353356      -0.79788746
H        3.40187725      -0.93999015       0.65664846
13
Frame=4 idx=003380 GeodesicLength=0.2064403491968952 rxn_smarts="[C:1]([C@@:2]1([H:10])[N:3]([H:11])[C@:4]1([C:5]#[C:6][H:13])[H:12])([H:7])([H:8])[H:9]>>[C:1]([C@@:2]1([H:10])[N+:3]([H:11])([H:12])[C-:4]1[C:5]#[C:6][H:13])([H:7])([H:8])[H:9]"
C       -1.19240724      -0.92396777       0.33237816
C       -0.89981834       0.24205826      -0.57124117
N       -0.50743430       1.50148931       0.07621814
C        0.47732569       0.60904546      -0.96556585
C        1.57063728       0.00916478      -0.28210597
C        2.53835101      -0.49632711       0.22442784
H       -0.41468340      -1.05266134       1.08705377
H       -2.15611477      -0.79993032       0.82964776
H       -1.23445180      -1.84109462      -0.25730430
H       -1.66468152       0.40985688      -1.32559555
H       -0.13983965       1.34833493       1.00948224
H        0.22155878       1.93773602      -0.81427916
H        3.40155826      -0.94370448       0.65688408
13
Frame=5 idx=003380 GeodesicLength=0.2580328695826909 rxn_smarts="[C:1]([C@@:2]1([H:10])[N:3]([H:11])[C@:4]1([C:5]#[C:6][H:13])[H:12])([H:7])([H:8])[H:9]>>[C:1]([C@@:2]1([H:10])[N+:3]([H:11])([H:12])[C-:4]1[C:5]#[C:6][H:13])([H:7])([H:8])[H:9]"
C       -1.19345673      -0.92654154       0.33292768
C       -0.90036701       0.23967381      -0.57002142
N       -0.49883932       1.49745841       0.07453267
C        0.47661091       0.61446588      -0.95699621
C        1.57244822       0.01135292      -0.27986084
C        2.53939865      -0.49685324       0.22522534
H       -0.41470055      -1.05727804       1.08618220
H       -2.15630385      -0.80167222       0.83180368
H       -1.23784862      -1.84301664      -0.25764230
H       -1.66385585       0.40983598      -1.32517003
H       -0.14251244       1.34858637       1.01255914
H        0.21822639       1.95157809      -0.83050576
H        3.40120020      -0.94758977       0.65696585
13
Frame=6 idx=003380 GeodesicLength=0.3096209838856328 rxn_smarts="[C:1]([C@@:2]1([H:10])[N:3]([H:11])[C@:4]1([C:5]#[C:6][H:13])[H:12])([H:7])([H:8])[H:9]>>[C:1]([C@@:2]1([H:10])[N+:3]([H:11])([H:12])[C-:4]1[C:5]#[C:6][H:13])([H:7])([H:8])[H:9]"
C       -1.19442940      -0.92907067       0.33348760
C       -0.90080723       0.23733954      -0.56877864
N       -0.49039883       1.49354266       0.07288675
C        0.47596016       0.61992940      -0.94845118
C        1.57426511       0.01360558      -0.27756316
C        2.54040821      -0.49738612       0.22607054
H       -0.41468627      -1.06177026       1.08537269
H       -2.15645962      -0.80342114       0.83389033
H       -1.24106899      -1.84490210      -0.25795319
H       -1.66289583       0.40977988      -1.32476226
H       -0.14546971       1.34901879       1.01557018
H        0.21478892       1.96507895      -0.84657748
H        3.40079350      -0.95174451       0.65680783
13
Frame=7 idx=003380 GeodesicLength=0.3612055121115642 rxn_smarts="[C:1]([C@@:2]1([H:10])[N:3]([H:11])[C@:4]1([C:5]#[C:6][H:13])[H:12])([H:7])([H:8])[H:9]>>[C:1]([C@@:2]1([H:10])[N+:3]([H:11])([H:12])[C-:4]1[C:5]#[C:6][H:13])([H:7])([H:8])[H:9]"
C       -1.19534908      -0.93156009       0.33404649
C       -0.90115775       0.23506411      -0.56750536
N       -0.48207163       1.48971876       0.07131320
C        0.47535310       0.62540412      -0.93996219
C        1.57607489       0.01585116      -0.27529146
C        2.54136676      -0.49802972       0.22684994
H       -0.41464126      -1.06618960       1.08458254
H       -2.15658391      -0.80516344       0.83593512
H       -1.24419034      -1.84673963      -0.25827048
H       -1.66184158       0.40974096      -1.32433363
H       -0.14861541       1.34957714       1.01851916
H        0.21129564       1.97823366      -0.86248991
H        3.40036056      -0.95590743       0.65660658
13
Frame=8 idx=003380 GeodesicLength=0.41278865801879877 rxn_smarts="[C:1]([C@@:2]1([H:10])[N:3]([H:11])[C@:4]1([C:5]#[C:6][H:13])[H:12])([H:7])([H:8])[H:9]>>[C:1]([C@@:2]1([H:10])[N+:3]([H:11])([H:12])[C-:4]1[C:5]#[C:6][H:13])([H:7])([H:8])[H:9]"
C       -1.19616501      -0.93400715       0.33463079
C       -0.90138412       0.23281771      -0.56622358
N       -0.47398657       1.48603063       0.06975523
C        0.47482456       0.63094589      -0.93145169
C        1.57790639       0.01829056      -0.27282308
C        2.54230096      -0.49846009       0.22791637
H       -0.41457070      -1.07042310       1.08391728
H       -2.15668143      -0.80694397       0.83787124
H       -1.24703514      -1.84856889      -0.25851446
H       -1.66060496       0.40957863      -1.32398628
H       -0.15212920       1.35039496       1.02137722
H        0.20768550       1.99110137      -0.87828570
H        3.39983972      -0.96075656       0.65581665
13
Frame=9 idx=003380 GeodesicLength=0.464363272361217 rxn_smarts="[C:1]([C@@:2]1([H:10])[N:3]([H:11])[C@:4]1([C:5]#[C:6][H:13])[H:12])([H:7])([H:8])[H:9]>>[C:1]([C@@:2]1([H:10])[N+:3]([H:11])([H:12])[C-:4]1[C:5]#[C:6][H:13])([H:7])([H:8])[H:9]"
C       -1.19713109      -0.93643964       0.33511442
C       -0.90167191       0.23072476      -0.56483754
N       -0.46558568       1.48224566       0.06850601
C        0.47419084       0.63625696      -0.92327980
C        1.57961752       0.02001568      -0.27116188
C        2.54309987      -0.50003573       0.22773176
H       -0.41446546      -1.07502347       1.08287947
H       -2.15674321      -0.80857011       0.84001827
H       -1.25045995      -1.85022126      -0.25905966
H       -1.65962078       0.40993049      -1.32325380
H       -0.15508175       1.35083648       1.02425473
H        0.20433786       2.00348987      -0.89381387
H        3.39951373      -0.96320967       0.65690189
13
Frame=10 idx=003380 GeodesicLength=0.5159368600516604 rxn_smarts="[C:1]([C@@:2]1([H:10])[N:3]([H:11])[C@:4]1([C:5]#[C:6][H:13])[H:12])([H:7])([H:8])[H:9]>>[C:1]([C@@:2]1([H:10])[N+:3]([H:11])([H:12])[C-:4]1[C:5]#[C:6][H:13])([H:7])([H:8])[H:9]"
C       -1.19804904      -0.93884088       0.33559597
C       -0.90188381       0.22868392      -0.56342360
N       -0.45731939       1.47853776       0.06733886
C        0.47359318       0.64156302      -0.91516331
C        1.58132160       0.02175482      -0.26951444
C        2.54384932      -0.50166676       0.22751717
H       -0.41433118      -1.07956430       1.08185492
H       -2.15677467      -0.81020195       0.84213031
H       -1.25379734      -1.85183279      -0.25961296
H       -1.65855841       0.41029220      -1.32250131
H       -0.15817381       1.35139878       1.02706199
H        0.20097180       2.01558480      -0.90921278
H        3.39915174      -0.96570860       0.65792919
13
Frame=11 idx=003380 GeodesicLength=0.5675120347751753 rxn_smarts="[C:1]([C@@:2]1([H:10])[N:3]([H:11])[C@:4]1([C:5]#[C:6][H:13])[H:12])([H:7])([H:8])[H:9]>>[C:1]([C@@:2]1([H:10])[N+:3]([H:11])([H:12])[C-:4]1[C:5]#[C:6][H:13])([H:7])([H:8])[H:9]"
C       -1.19875738      -0.94119760       0.33615809
C       -0.90190025       0.22660575      -0.56204508
N       -0.44955761       1.47505288       0.06607591
C        0.47314003       0.64705492      -0.90686433
C        1.58310981       0.02411811      -0.26720692
C        2.54465970      -0.50237866       0.22829130
H       -0.41416959      -1.08370206       1.08115983
H       -2.15678101      -0.81196004       0.84400952
H       -1.25651278      -1.85351685      -0.25993274
H       -1.65713271       0.41023547      -1.32203753
H       -0.16199888       1.35249023       1.02972171
H        0.19736314       2.02752019      -0.92460797
H        3.39853754      -0.97032234       0.65727822
13
Frame=12 idx=003380 GeodesicLength=0.6190849821022553 rxn_smarts="[C:1]([C@@:2]1([H:10])[N:3]([H:11])[C@:4]1([C:5]#[C:6][H:13])[H:12])([H:7])([H:8])[H:9]>>[C:1]([C@@:2]1([H:10])[N+:3]([H:11])([H:12])[C-:4]1[C:5]#[C:6][H:13])([H:7])([H:8])[H:9]"
C       -1.19957906      -0.94354535       0.33663645
C       -0.90196591       0.22465830      -0.56057607
N       -0.44157487       1.47149004       0.06508563
C        0.47260351       0.65234855      -0.89885032
C        1.58480223       0.02592535      -0.26555696
C        2.54534037      -0.50402849       0.22804103
H       -0.41396855      -1.08814230       1.08015227
H       -2.15674688      -0.81360927       0.84606302
H       -1.25969306      -1.85505309      -0.26050428
H       -1.65591746       0.41060042      -1.32124858
H       -0.16534768       1.35329023       1.03238754
H        0.19398426       2.03906473      -0.93979802
H        3.39806308      -0.97299912       0.65816829
13
Frame=13 idx=003380 GeodesicLength=0.6706587998995868 rxn_smarts="[C:1]([C@@:2]1([H:10])[N:3]([H:11])[C@:4]1([C:5]#[C:6][H:13])[H:12])([H:7])([H:8])[H:9]>>[C:1]([C@@:2]1([H:10])[N+:3]([H:11])([H:12])[C-:4]1[C:5]#[C:6][H:13])([H:7])([H:8])[H:9]"
C       -1.20039991      -0.94587720       0.33708531
C       -0.90200192       0.22278178      -0.55906025
N       -0.43362268       1.46794719       0.06424127
C        0.47206043       0.65757289      -0.89096261
C        1.58646552       0.02759545      -0.26411483
C        2.54594971      -0.50596565       0.22747193
H       -0.41371746      -1.09266214       1.07903399
H       -2.15666196      -0.81523281       0.84817099
H       -1.26298627      -1.85651548      -0.26116930
H       -1.65472587       0.41109740      -1.32034027
H       -0.16861551       1.35407619       1.03500817
H        0.19067775       2.05032148      -0.95487583
H        3.39757816      -0.97513910       0.65951144
13
Frame=14 idx=003380 GeodesicLength=0.7222339360382861 rxn_smarts="[C:1]([C@@:2]1([H:10])[N:3]([H:11])[C@:4]1([C:5]#[C:6][H:13])[H:12])([H:7])([H:8])[H:9]>>[C:1]([C@@:2]1([H:10])[N+:3]([H:11])([H:12])[C-:4]1[C:5]#[C:6][H:13])([H:7])([H:8])[H:9]"
C       -1.20093907      -0.94815701       0.33766004
C       -0.90178184       0.22081414      -0.55761890
N       -0.42638924       1.46471331       0.06321612
C        0.47171323       0.66307979      -0.88273345
C        1.58825567       0.03023466      -0.26156487
C        2.54663260      -0.50644113       0.22862145
H       -0.41347763      -1.09657410       1.07845332
H       -2.15659238      -0.81705270       0.84990567
H       -1.26534811      -1.85812486      -0.26146263
H       -1.65300287       0.41093206      -1.31991543
H       -0.17295863       1.35562121       1.03743744
H        0.18706052       2.06149393      -0.97006924
H        3.39682775      -0.98053931       0.65807048
13
Frame=15 idx=003380 GeodesicLength=0.7738074858805026 rxn_smarts="[C:1]([C@@:2]1([H:10])[N:3]([H:11])[C@:4]1([C:5]#[C:6][H:13])[H:12])([H:7])([H:8])[H:9]>>[C:1]([C@@:2]1([H:10])[N+:3]([H:11])([H:12])[C-:4]1[C:5]#[C:6][H:13])([H:7])([H:8])[H:9]"
C       -1.20141678      -0.95041755       0.33823736
C       -0.90148863       0.21888347      -0.55615255
N       -0.41932418       1.46155868       0.06228600
C        0.47138862       0.66859355      -0.87453102
C        1.59004719       0.03297784      -0.25894125
C        2.54727995      -0.50684003       0.22986283
H       -0.41319908      -1.10042459       1.07790144
H       -2.15648764      -0.81890260       0.85160275
H       -1.26759303      -1.85971298      -0.26175459
H       -1.65119257       0.41073858      -1.31949135
H       -0.17744724       1.35730110       1.03979639
H        0.18345899       2.07243040      -0.98523184
H        3.39597440      -0.98618586       0.65641582
13
Frame=16 idx=003380 GeodesicLength=0.8253815014668255 rxn_smarts="[C:1]([C@@:2]1([H:10])[N:3]([H:11])[C@:4]1([C:5]#[C:6][H:13])[H:12])([H:7])([H:8])[H:9]>>[C:1]([C@@:2]1([H:10])[N+:3]([H:11])([H:12])[C-:4]1[C:5]#[C:6][H:13])([H:7])([H:8])[H:9]"
C       -1.20186377      -0.95266161       0.33880740
C       -0.90114202       0.21699754      -0.55465429
N       -0.41238482       1.45846008       0.06147551
C        0.47107336       0.67408427      -0.86637441
C        1.59182530       0.03574652      -0.25630769
C        2.54787352      -0.50726892       0.23110775
H       -0.41289928      -1.10425373       1.07734780
H       -2.15636371      -0.82076864       0.85327582
H       -1.26978876      -1.86126907      -0.26207215
H       -1.64932982       0.41056788      -1.31903617
H       -0.18200377       1.35906230       1.04209918
H        0.17992135       2.08312317      -1.00036266
H        3.39508240      -0.99181979       0.65469390
