17
Frame=0 idx=010576 GeodesicLength=0.0 rxn_smarts="[C:1]([C@@:2]1([H:11])[C:3]([H:12])([H:13])[C@:4]1([C:5]([C:6]#[C:7][H:17])([H:15])[H:16])[H:14])([H:8])([H:9])[H:10]>>[C:1]([C@@:2]([C:4](=[C:3]([H:12])[H:13])[H:14])([C:7](=[C:6]=[C:5]([H:15])[H:16])[H:17])[H:11])([H:8])([H:9])[H:10]"
C       -1.01902398       1.25486183       0.57715811
C       -0.48000930      -0.15579514       0.71141998
C       -1.07260931      -0.92593121      -1.24476804
C        0.08774884      -0.91374343      -0.44455713
C        1.52478826      -0.22173977      -0.87775265
C        1.97103781       0.18651641       0.42459619
C        1.31883567       0.26039970       1.48836575
H       -2.08324722       1.28469648       0.34089530
H       -0.88859524       1.78287651       1.52301637
H       -0.47538016       1.81803569      -0.18307070
H       -1.01848958      -0.77151533       1.42904033
H       -1.51648059      -1.84115726      -1.61896016
H       -1.50548875       0.00142179      -1.59672692
H        0.36494779      -1.91695802      -0.12131732
H        1.37322662       0.61662785      -1.55996601
H        2.12274161      -0.98272002      -1.37581313
H        1.29599751       0.52412385       2.52844003
17
Frame=1 idx=010576 GeodesicLength=0.0925326893132966 rxn_smarts="[C:1]([C@@:2]1([H:11])[C:3]([H:12])([H:13])[C@:4]1([C:5]([C:6]#[C:7][H:17])([H:15])[H:16])[H:14])([H:8])([H:9])[H:10]>>[C:1]([C@@:2]([C:4](=[C:3]([H:12])[H:13])[H:14])([C:7](=[C:6]=[C:5]([H:15])[H:16])[H:17])[H:11])([H:8])([H:9])[H:10]"
C       -1.02974698       1.25317580       0.57678415
C       -0.48997225      -0.15762931       0.70421685
C       -1.08560348      -0.92186757      -1.23551661
C        0.08214859      -0.91849205      -0.44748014
C        1.54550617      -0.21997858      -0.87995015
C        1.97759586       0.18393962       0.42535950
C        1.32652228       0.25688614       1.49036512
H       -2.09587212       1.28222904       0.34866290
H       -0.89636255       1.78103946       1.52229923
H       -0.49224497       1.81733504      -0.18707114
H       -1.02483908      -0.77207515       1.42596234
H       -1.53673148      -1.83564929      -1.60433521
H       -1.50204637       0.00487299      -1.60835997
H        0.35847376      -1.92232602      -0.12561729
H        1.39843275       0.61946890      -1.56158648
H        2.14861345      -0.98076925      -1.37198890
H        1.31612642       0.52984022       2.52825581
17
Frame=2 idx=010576 GeodesicLength=0.18505539509242563 rxn_smarts="[C:1]([C@@:2]1([H:11])[C:3]([H:12])([H:13])[C@:4]1([C:5]([C:6]#[C:7][H:17])([H:15])[H:16])[H:14])([H:8])([H:9])[H:10]>>[C:1]([C@@:2]([C:4](=[C:3]([H:12])[H:13])[H:14])([C:7](=[C:6]=[C:5]([H:15])[H:16])[H:17])[H:11])([H:8])([H:9])[H:10]"
C       -1.04055232       1.25156646       0.57634565
C       -0.50012048      -0.15939482       0.69698637
C       -1.09872442      -0.91776439      -1.22641615
C        0.07616610      -0.92322269      -0.45045276
C        1.56658047      -0.21811861      -0.88209007
C        1.98417843       0.18113415       0.42620260
C        1.33432380       0.25321015       1.49248818
H       -2.10854378       1.27985767       0.35651759
H       -0.90402075       1.77934282       1.52144619
H       -0.50930364       1.81661415      -0.19121759
H       -1.03131825      -0.77250714       1.42290594
H       -1.55684941      -1.83011179      -1.58994279
H       -1.49914234       0.00763825      -1.61966952
H        0.35175996      -1.92765556      -0.13006175
H        1.42394979       0.62254067      -1.56293888
H        2.17487263      -0.97865113      -1.36804506
H        1.33674420       0.53552180       2.52794207
17
Frame=3 idx=010576 GeodesicLength=0.27757552804382357 rxn_smarts="[C:1]([C@@:2]1([H:11])[C:3]([H:12])([H:13])[C@:4]1([C:5]([C:6]#[C:7][H:17])([H:15])[H:16])[H:14])([H:8])([H:9])[H:10]>>[C:1]([C@@:2]([C:4](=[C:3]([H:12])[H:13])[H:14])([C:7](=[C:6]=[C:5]([H:15])[H:16])[H:17])[H:11])([H:8])([H:9])[H:10]"
C       -1.05144296       1.25003890       0.57583531
C       -0.51045922      -0.16108666       0.68973059
C       -1.11197782      -0.91363882      -1.21746200
C        0.06979597      -0.92793891      -0.45346716
C        1.58803204      -0.21614809      -0.88417199
C        1.99078210       0.17810648       0.42711960
C        1.34224552       0.24937523       1.49473443
H       -2.12126429       1.27758492       0.36446182
H       -0.91156533       1.77779939       1.52044255
H       -0.52656854       1.81587176      -0.19552462
H       -1.03793051      -0.77280306       1.41987509
H       -1.57685612      -1.82456902      -1.57575736
H       -1.49678526       0.00973958      -1.63067322
H        0.34481288      -1.93294540      -0.13463938
H        1.44978332       0.62585529      -1.56401806
H        2.20154499      -0.97634571      -1.36398299
H        1.35785323       0.54110411       2.52749737
17
Frame=4 idx=010576 GeodesicLength=0.37009731268017326 rxn_smarts="[C:1]([C@@:2]1([H:11])[C:3]([H:12])([H:13])[C@:4]1([C:5]([C:6]#[C:7][H:17])([H:15])[H:16])[H:14])([H:8])([H:9])[H:10]>>[C:1]([C@@:2]([C:4](=[C:3]([H:12])[H:13])[H:14])([C:7](=[C:6]=[C:5]([H:15])[H:16])[H:17])[H:11])([H:8])([H:9])[H:10]"
C       -1.06242249       1.24859860       0.57524473
C       -0.52099364      -0.16269950       0.68245133
C       -1.12537094      -0.90950733      -1.20864834
C        0.06303321      -0.93264414      -0.45651544
C        1.60988223      -0.21405436      -0.88619630
C        1.99740423       0.17486418       0.42810398
C        1.35029288       0.24538598       1.49710251
H       -2.13403562       1.27541366       0.37249662
H       -0.91899274       1.77642293       1.51927200
H       -0.54405265       1.81510652      -0.20000775
H       -1.04467887      -0.77295389       1.41687371
H       -1.59677462      -1.81904465      -1.56175111
H       -1.49498315       0.01119669      -1.64138818
H        0.33763904      -1.93819415      -0.13933821
H        1.47593877       0.62942547      -1.56481978
H        2.22865789      -0.97383232      -1.35980370
H        1.37945646       0.54651630       2.52692394
17
Frame=5 idx=010576 GeodesicLength=0.4626253238305264 rxn_smarts="[C:1]([C@@:2]1([H:11])[C:3]([H:12])([H:13])[C@:4]1([C:5]([C:6]#[C:7][H:17])([H:15])[H:16])[H:14])([H:8])([H:9])[H:10]>>[C:1]([C@@:2]([C:4](=[C:3]([H:12])[H:13])[H:14])([C:7](=[C:6]=[C:5]([H:15])[H:16])[H:17])[H:11])([H:8])([H:9])[H:10]"
C       -1.07349450       1.24725144       0.57456462
C       -0.53172923      -0.16422766       0.67515077
C       -1.13891287      -0.90538577      -1.19996788
C        0.05587124      -0.93734292      -0.45958848
C        1.63215308      -0.21182330      -0.88816341
C        2.00404126       0.17141513       0.42914688
C        1.35847211       0.24124846       1.49958910
H       -2.14685886       1.27334754       0.38062210
H       -0.92629864       1.77522811       1.51791649
H       -0.56176901       1.81431685      -0.20468361
H       -1.05156596      -0.77294915       1.41390771
H       -1.61662487      -1.81355986      -1.54789929
H       -1.49374575       0.01202442      -1.65182850
H        0.33024448      -1.94340101      -0.14414543
H        1.50242206       0.63326468      -1.56533991
H        2.25623935      -0.97108884      -1.35550635
H        1.40155612       0.55168188       2.52622517
17
Frame=6 idx=010576 GeodesicLength=0.5551644638863482 rxn_smarts="[C:1]([C@@:2]1([H:11])[C:3]([H:12])([H:13])[C@:4]1([C:5]([C:6]#[C:7][H:17])([H:15])[H:16])[H:14])([H:8])([H:9])[H:10]>>[C:1]([C@@:2]([C:4](=[C:3]([H:12])[H:13])[H:14])([C:7](=[C:6]=[C:5]([H:15])[H:16])[H:17])[H:11])([H:8])([H:9])[H:10]"
C       -1.08466305       1.24600373       0.57378446
C       -0.54267160      -0.16566566       0.66783071
C       -1.15261361      -0.90129058      -1.19141213
C        0.04830412      -0.94203983      -0.46267718
C        1.65486937      -0.20943962      -0.89007332
C        2.01069006       0.16776791       0.43023887
C        1.36678977       0.23696902       1.50219030
H       -2.15973558       1.27139068       0.38883658
H       -0.93347936       1.77423050       1.51635620
H       -0.57973121       1.81350033      -0.20957023
H       -1.05859440      -0.77277738       1.41098297
H       -1.63643244      -1.80813648      -1.53417322
H       -1.49308134       0.01223651      -1.66200945
H        0.32263416      -1.94856541      -0.14904692
H        1.52923823       0.63738853      -1.56557582
H        2.28432139      -0.96809057      -1.35109155
H        1.42415551       0.55651834       2.52540974
17
Frame=7 idx=010576 GeodesicLength=0.6477164687417994 rxn_smarts="[C:1]([C@@:2]1([H:11])[C:3]([H:12])([H:13])[C@:4]1([C:5]([C:6]#[C:7][H:17])([H:15])[H:16])[H:14])([H:8])([H:9])[H:10]>>[C:1]([C@@:2]([C:4](=[C:3]([H:12])[H:13])[H:14])([C:7](=[C:6]=[C:5]([H:15])[H:16])[H:17])[H:11])([H:8])([H:9])[H:10]"
C       -1.09593148       1.24486225       0.57289255
C       -0.55382681      -0.16700683       0.66049345
C       -1.16648479      -0.89723631      -1.18297253
C        0.04032389      -0.94673999      -0.46577179
C        1.67805491      -0.20688680      -0.89192705
C        2.01734724       0.16393063       0.43136806
C        1.37525305       0.23255494       1.50489976
H       -2.17266665       1.26954939       0.39713840
H       -0.94053057       1.77344727       1.51456949
H       -0.59795334       1.81265511      -0.21468653
H       -1.06576718      -0.77242559       1.40810630
H       -1.65621686      -1.80279563      -1.52054551
H       -1.49300251       0.01183953      -1.67194149
H        0.31481155      -1.95368676      -0.15402815
H        1.55639463       0.64181317      -1.56552326
H        2.31293824      -0.96481056      -1.34655825
H        1.44725668       0.56093617       2.52448653
17
Frame=8 idx=010576 GeodesicLength=0.7402865020662948 rxn_smarts="[C:1]([C@@:2]1([H:11])[C:3]([H:12])([H:13])[C@:4]1([C:5]([C:6]#[C:7][H:17])([H:15])[H:16])[H:14])([H:8])([H:9])[H:10]>>[C:1]([C@@:2]([C:4](=[C:3]([H:12])[H:13])[H:14])([C:7](=[C:6]=[C:5]([H:15])[H:16])[H:17])[H:11])([H:8])([H:9])[H:10]"
C       -1.10730413       1.24383398       0.57187616
C       -0.56520129      -0.16824565       0.65314031
C       -1.18053943      -0.89323831      -1.17463986
C        0.03192238      -0.95144958      -0.46886301
C        1.70173690      -0.20414535      -0.89372573
C        2.02400849       0.15991224       0.43252139
C        1.38386949       0.22801363       1.50771033
H       -2.18565320       1.26782990       0.40552411
H       -0.94744791       1.77289525       1.51253285
H       -0.61645014       1.81177817      -0.22005254
H       -1.07308655      -0.77188058       1.40528496
H       -1.67600734      -1.79755682      -1.50698528
H       -1.49351925       0.01084048      -1.68163704
H        0.30677982      -1.95876585      -0.15907451
H        1.58389432       0.64655594      -1.56518085
H        2.34213248      -0.96121931      -1.34189979
H        1.47086535       0.56484185       2.52346849
17
Frame=9 idx=010576 GeodesicLength=0.8328669317485763 rxn_smarts="[C:1]([C@@:2]1([H:11])[C:3]([H:12])([H:13])[C@:4]1([C:5]([C:6]#[C:7][H:17])([H:15])[H:16])[H:14])([H:8])([H:9])[H:10]>>[C:1]([C@@:2]([C:4](=[C:3]([H:12])[H:13])[H:14])([C:7](=[C:6]=[C:5]([H:15])[H:16])[H:17])[H:11])([H:8])([H:9])[H:10]"
C       -1.11878393       1.24292293       0.57072564
C       -0.57680093      -0.16937879       0.64577310
C       -1.19479416      -0.88930945      -1.16640364
C        0.02309044      -0.95617529      -0.47194266
C        1.72594076      -0.20120004      -0.89546888
C        2.03067111       0.15571531       0.43368764
C        1.39264637       0.22334472       1.51061557
H       -2.19869356       1.26623737       0.41399180
H       -0.95422728       1.77258667       1.51022657
H       -0.63523255       1.81086527      -0.22568368
H       -1.08055374      -0.77113235       1.40252544
H       -1.69582198      -1.79243470      -1.49347461
H       -1.49464226       0.00924506      -1.69110587
H        0.29853802      -1.96380474      -0.16417418
H        1.61174342       0.65163255      -1.56454502
H        2.37193531      -0.95729038      -1.33711634
H        1.49498497       0.56817588       2.52236912
17
Frame=10 idx=010576 GeodesicLength=0.9254643806166526 rxn_smarts="[C:1]([C@@:2]1([H:11])[C:3]([H:12])([H:13])[C@:4]1([C:5]([C:6]#[C:7][H:17])([H:15])[H:16])[H:14])([H:8])([H:9])[H:10]>>[C:1]([C@@:2]([C:4](=[C:3]([H:12])[H:13])[H:14])([C:7](=[C:6]=[C:5]([H:15])[H:16])[H:17])[H:11])([H:8])([H:9])[H:10]"
C       -1.13037541       1.24213764       0.56942496
C       -0.58863373      -0.17040054       0.63839307
C       -1.20926487      -0.88546564      -1.15825227
C        0.01381757      -0.96092455      -0.47500036
C        1.75069787      -0.19802758      -0.89715786
C        2.03732879       0.15135227       0.43484987
C        1.40159194       0.21855577       1.51360581
H       -2.21178873       1.26478205       0.42253619
H       -0.96086373       1.77254190       1.50762220
H       -0.65431684       1.80991225      -0.23160333
H       -1.08817288      -0.77016460       1.39983631
H       -1.71569147      -1.78745109      -1.47997720
H       -1.49638599       0.00705409      -1.70035789
H        0.29009011      -1.96880401      -0.16931167
H        1.63994971       0.65706400      -1.56361314
H        2.40239453      -0.95298789      -1.33219897
H        1.51962314       0.57082595       2.52120428
17
Frame=11 idx=010576 GeodesicLength=1.018076979239108 rxn_smarts="[C:1]([C@@:2]1([H:11])[C:3]([H:12])([H:13])[C@:4]1([C:5]([C:6]#[C:7][H:17])([H:15])[H:16])[H:14])([H:8])([H:9])[H:10]>>[C:1]([C@@:2]([C:4](=[C:3]([H:12])[H:13])[H:14])([C:7](=[C:6]=[C:5]([H:15])[H:16])[H:17])[H:11])([H:8])([H:9])[H:10]"
C       -1.14208261       1.24148527       0.56795906
C       -0.60070748      -0.17130543       0.63100205
C       -1.22397011      -0.88172264      -1.15017245
C        0.00409196      -0.96570598      -0.47802516
C        1.77603748      -0.19460470      -0.89879352
C        2.04397665       0.14683000       0.43599141
C        1.41071465       0.21365229       1.51667049
H       -2.22493740       1.26347383       0.43115161
H       -0.96735180       1.77277922       1.50469140
H       -0.67371692       1.80891429      -0.23783363
H       -1.09594672      -0.76896171       1.39722685
H       -1.73564022      -1.78262331      -1.46646612
H       -1.49876588       0.00426449      -1.70940022
H        0.28143312      -1.97376644      -0.17446864
H        1.66852077       0.66287243      -1.56238177
H        2.43355713      -0.94827326      -1.32714098
H        1.54478739       0.57269164       2.51998961
17
Frame=12 idx=010576 GeodesicLength=1.1107077819722655 rxn_smarts="[C:1]([C@@:2]1([H:11])[C:3]([H:12])([H:13])[C@:4]1([C:5]([C:6]#[C:7][H:17])([H:15])[H:16])[H:14])([H:8])([H:9])[H:10]>>[C:1]([C@@:2]([C:4](=[C:3]([H:12])[H:13])[H:14])([C:7](=[C:6]=[C:5]([H:15])[H:16])[H:17])[H:11])([H:8])([H:9])[H:10]"
C       -1.15390878       1.24097078       0.56631400
C       -0.61303198      -0.17209218       0.62360043
C       -1.23893016      -0.87809328      -1.14215407
C       -0.00610085      -0.97053006      -0.48100915
C        1.80199516      -0.19090744      -0.90037319
C        2.05060731       0.14215074       0.43709525
C        1.42002162       0.20862766       1.51979965
H       -2.23813742       1.26232351       0.43983315
H       -0.97368573       1.77331233       1.50140765
H       -0.69344506       1.80786423      -0.24439358
H       -1.10388040      -0.76751176       1.39470388
H       -1.75570010      -1.77796636      -1.45291254
H       -1.50179761       0.00087441      -1.71824006
H        0.27256367      -1.97869730      -0.17963467
H        1.69746392       0.66908076      -1.56084582
H        2.46547404      -0.94310740      -1.32193053
H        1.57049238       0.57370135       2.51873959
17
Frame=13 idx=010576 GeodesicLength=1.2033477149521243 rxn_smarts="[C:1]([C@@:2]1([H:11])[C:3]([H:12])([H:13])[C@:4]1([C:5]([C:6]#[C:7][H:17])([H:15])[H:16])[H:14])([H:8])([H:9])[H:10]>>[C:1]([C@@:2]([C:4](=[C:3]([H:12])[H:13])[H:14])([C:7](=[C:6]=[C:5]([H:15])[H:16])[H:17])[H:11])([H:8])([H:9])[H:10]"
C       -1.16585678       1.24060114       0.56447394
C       -0.62561650      -0.17275672       0.61618894
C       -1.25416540      -0.87459112      -1.13418496
C       -0.01677441      -0.97540648      -0.48394281
C        1.82860421      -0.18691035      -0.90189551
C        2.05721444       0.13732122       0.43814379
C        1.42952122       0.20348177       1.52298209
H       -2.25138632       1.26134297       0.44857393
H       -0.97985848       1.77415897       1.49774117
H       -0.71351504       1.80675628      -0.25130501
H       -1.11197828      -0.76579975       1.39227560
H       -1.77589684      -1.77349687      -1.43928700
H       -1.50550029      -0.00312381      -1.72688153
H        0.26347791      -1.98359996      -0.18479537
H        1.72678680       0.67571206      -1.55900187
H        2.49819434      -0.93744837      -1.31655567
H        1.59674941       0.57375902       2.51747027
17
Frame=14 idx=010576 GeodesicLength=1.2960007615183555 rxn_smarts="[C:1]([C@@:2]1([H:11])[C:3]([H:12])([H:13])[C@:4]1([C:5]([C:6]#[C:7][H:17])([H:15])[H:16])[H:14])([H:8])([H:9])[H:10]>>[C:1]([C@@:2]([C:4](=[C:3]([H:12])[H:13])[H:14])([C:7](=[C:6]=[C:5]([H:15])[H:16])[H:17])[H:11])([H:8])([H:9])[H:10]"
C       -1.17793091       1.24038352       0.56241973
C       -0.63847244      -0.17329667       0.60876767
C       -1.26970079      -0.87123178      -1.12625194
C       -0.02794675      -0.98034801      -0.48681626
C        1.85590369      -0.18258199      -0.90335660
C        2.06378725       0.13234657       0.43911469
C        1.43922130       0.19821083       1.52620402
H       -2.26468159       1.26054833       0.45736644
H       -0.98586308       1.77533738       1.49365656
H       -0.73394139       1.80558128      -0.25859388
H       -1.12024612      -0.76380890       1.38995100
H       -1.79626693      -1.76923132      -1.42555522
H       -1.50989485      -0.00774111      -1.73532945
H        0.25416929      -1.98848075      -0.18993589
H        1.75649897       0.68279603      -1.55684251
H        2.53178189      -0.93124448      -1.31099655
H        1.62358247       0.57276106       2.51619820
17
Frame=15 idx=010576 GeodesicLength=1.388659630966594 rxn_smarts="[C:1]([C@@:2]1([H:11])[C:3]([H:12])([H:13])[C@:4]1([C:5]([C:6]#[C:7][H:17])([H:15])[H:16])[H:14])([H:8])([H:9])[H:10]>>[C:1]([C@@:2]([C:4](=[C:3]([H:12])[H:13])[H:14])([C:7](=[C:6]=[C:5]([H:15])[H:16])[H:17])[H:11])([H:8])([H:9])[H:10]"
C       -1.19013463       1.24032521       0.56013185
C       -0.65161142      -0.17370916       0.60133634
C       -1.28556223      -0.86803035      -1.11834062
C       -0.03963578      -0.98536702      -0.48962015
C        1.88393209      -0.17789050      -0.90475189
C        2.07031584       0.12723170       0.43998611
C        1.44912977       0.19281053       1.52945129
H       -2.27801985       1.25995598       0.46620185
H       -0.99169094       1.77686635       1.48911762
H       -0.75473881       1.80433067      -0.26628561
H       -1.12868970      -0.76152188       1.38773881
H       -1.81684179      -1.76518646      -1.41168481
H       -1.51500508      -0.01299062      -1.74358662
H        0.24463060      -1.99334536      -0.19504152
H        1.78660898       0.69036117      -1.55436160
H        2.56629712      -0.92444230      -1.30523164
H        1.65101583       0.57060205       2.51494056
17
Frame=16 idx=010576 GeodesicLength=1.4813183729841795 rxn_smarts="[C:1]([C@@:2]1([H:11])[C:3]([H:12])([H:13])[C@:4]1([C:5]([C:6]#[C:7][H:17])([H:15])[H:16])[H:14])([H:8])([H:9])[H:10]>>[C:1]([C@@:2]([C:4](=[C:3]([H:12])[H:13])[H:14])([C:7](=[C:6]=[C:5]([H:15])[H:16])[H:17])[H:11])([H:8])([H:9])[H:10]"
C       -1.20247099       1.24043251       0.55759046
C       -0.66504653      -0.17399378       0.59389394
C       -1.30177715      -0.86500194      -1.11043798
C       -0.05186204      -0.99047811      -0.49234637
C        1.91273165      -0.17280158      -0.90607409
C        2.07678800       0.12197829       0.44073445
C        1.45925448       0.18726884       1.53270922
H       -2.29139577       1.25958444       0.47507147
H       -0.99733268       1.77876249       1.48408678
H       -0.77592057       1.80299395      -0.27440564
H       -1.13731627      -0.75892315       1.38564683
H       -1.83766013      -1.76137688      -1.39764004
H       -1.52085719      -0.01888658      -1.75165456
H        0.23485225      -1.99820211      -0.20010091
H        1.81712705       0.69843891      -1.55154990
H        2.60180782      -0.91698301      -1.29923396
H        1.67907806       0.56718772       2.51371030
