14
Frame=0 idx=002617 GeodesicLength=0.0 rxn_smarts="[C:1]([C@@:2]([O:3][H:11])([C@@:4]1([H:12])[C:5]([H:13])([H:14])[O:6]1)[H:10])([H:7])([H:8])[H:9]>>[C:1]([C@@:2]([O:3][H:13])([C@@:4]([C:5][H:14])([O:6][H:11])[H:12])[H:10])([H:7])([H:8])[H:9]"
C        1.62722135      -0.38602731       0.61880029
C        0.16180073      -0.01424205       0.74605415
O       -0.05340225       1.35586041       0.65957972
C       -0.70600415      -0.56991592      -0.39679886
C       -1.79577469       0.35699694      -0.65379157
O       -0.50198703       0.34049826      -1.55576475
H        2.04025753      -0.02885883      -0.32785624
H        2.19280976       0.07948175       1.42525492
H        1.76667137      -1.46871653       0.67383626
H       -0.24455263      -0.43844538       1.67866162
H       -0.00691738       1.08708839      -1.09979729
H       -0.66577017      -1.60831102      -0.70447558
H       -1.19603227       1.27511558       0.21143324
H       -2.61832012       0.01947567      -1.27513593
14
Frame=1 idx=002617 GeodesicLength=0.1109826515647324 rxn_smarts="[C:1]([C@@:2]([O:3][H:11])([C@@:4]1([H:12])[C:5]([H:13])([H:14])[O:6]1)[H:10])([H:7])([H:8])[H:9]>>[C:1]([C@@:2]([O:3][H:13])([C@@:4]([C:5][H:14])([O:6][H:11])[H:12])[H:10])([H:7])([H:8])[H:9]"
C        1.62877213      -0.39503750       0.62259090
C        0.16669055      -0.01060177       0.73761444
O       -0.03555784       1.36333340       0.64291952
C       -0.70036636      -0.56581230      -0.40504404
C       -1.80591871       0.34770295      -0.64938400
O       -0.51689832       0.35457134      -1.55745615
H        2.04910150      -0.05321162      -0.32641001
H        2.19439717       0.07576317       1.42597921
H        1.75795862      -1.47806658       0.69255224
H       -0.24894634      -0.41941429       1.67264796
H       -0.00635098       1.11039329      -1.08815093
H       -0.64392516      -1.60040454      -0.72297904
H       -1.21278474       1.27513222       0.22132422
H       -2.62617153      -0.00434777      -1.26620431
14
Frame=2 idx=002617 GeodesicLength=0.2218326955214146 rxn_smarts="[C:1]([C@@:2]([O:3][H:11])([C@@:4]1([H:12])[C:5]([H:13])([H:14])[O:6]1)[H:10])([H:7])([H:8])[H:9]>>[C:1]([C@@:2]([O:3][H:13])([C@@:4]([C:5][H:14])([O:6][H:11])[H:12])[H:10])([H:7])([H:8])[H:9]"
C        1.63017111      -0.40392675       0.62640297
C        0.17159289      -0.00697978       0.72910932
O       -0.01780288       1.37061298       0.62664251
C       -0.69478940      -0.56157772      -0.41333036
C       -1.81584712       0.33827379      -0.64491194
O       -0.53217552       0.36812834      -1.55919914
H        2.05770873      -0.07729325      -0.32461896
H        2.19587690       0.07192537       1.42678931
H        1.74892918      -1.48704070       0.71090171
H       -0.25304584      -0.40048920       1.66632905
H       -0.00538016       1.13358334      -1.07663385
H       -0.62240793      -1.59205776      -0.74140334
H       -1.22918107       1.27516050       0.23095516
H       -2.63364887      -0.02831917      -1.25703244
14
Frame=3 idx=002617 GeodesicLength=0.3326002251613575 rxn_smarts="[C:1]([C@@:2]([O:3][H:11])([C@@:4]1([H:12])[C:5]([H:13])([H:14])[O:6]1)[H:10])([H:7])([H:8])[H:9]>>[C:1]([C@@:2]([O:3][H:13])([C@@:4]([C:5][H:14])([O:6][H:11])[H:12])[H:10])([H:7])([H:8])[H:9]"
C        1.63141556      -0.41271725       0.63023531
C        0.17651550      -0.00334881       0.72052799
O       -0.00005339       1.37774180       0.61072891
C       -0.68925643      -0.55719435      -0.42166729
C       -1.82558029       0.32867686      -0.64037437
O       -0.54783598       0.38120273      -1.56099272
H        2.06609833      -0.10115510      -0.32249453
H        2.19725637       0.06793860       1.42768810
H        1.73955689      -1.49567279       0.72890779
H       -0.25685728      -0.38162871       1.65970729
H       -0.00398871       1.15673227      -1.06523712
H       -0.60118040      -1.58326128      -0.75976850
H       -1.24533792       1.27518824       0.24035401
H       -2.64075226      -0.05250219      -1.24761487
14
Frame=4 idx=002617 GeodesicLength=0.4433411638538743 rxn_smarts="[C:1]([C@@:2]([O:3][H:11])([C@@:4]1([H:12])[C:5]([H:13])([H:14])[O:6]1)[H:10])([H:7])([H:8])[H:9]>>[C:1]([C@@:2]([O:3][H:13])([C@@:4]([C:5][H:14])([O:6][H:11])[H:12])[H:10])([H:7])([H:8])[H:9]"
C        1.63250134      -0.42143013       0.63408687
C        0.18146758       0.00032080       0.71185945
O        0.01777592       1.38475896       0.59515916
C       -0.68375185      -0.55264100      -0.43006348
C       -1.83513839       0.31887669      -0.63576711
O       -0.56389987       0.39382846      -1.56283355
H        2.07428531      -0.12484691      -0.32004698
H        2.19854166       0.06377139       1.42867772
H        1.72981055      -1.50399390       0.74658892
H       -0.26038395      -0.36278605       1.65278449
H       -0.00215479       1.17990980      -1.05395168
H       -0.58020718      -1.57400107      -0.77809328
H       -1.26136897       1.27519720       0.24954908
H       -2.64747735      -0.07696424      -1.23794962
14
Frame=5 idx=002617 GeodesicLength=0.5540972160721778 rxn_smarts="[C:1]([C@@:2]([O:3][H:11])([C@@:4]1([H:12])[C:5]([H:13])([H:14])[O:6]1)[H:10])([H:7])([H:8])[H:9]>>[C:1]([C@@:2]([O:3][H:13])([C@@:4]([C:5][H:14])([O:6][H:11])[H:12])[H:10])([H:7])([H:8])[H:9]"
C        1.63342271      -0.43008204       0.63795667
C        0.18645633       0.00405316       0.70309291
O        0.03575311       1.39169642       0.57991451
C       -0.67826270      -0.54789998      -0.43852806
C       -1.84453512       0.30884348      -0.63108636
O       -0.58038991       0.40602612      -1.56472264
H        2.08227864      -0.14840999      -0.31728392
H        2.19973506       0.05940008       1.42976049
H        1.71966290      -1.51202764       0.76395944
H       -0.26362849      -0.34392496       1.64556023
H        0.00015210       1.20317891      -1.04276739
H       -0.55946095      -1.56426460      -0.79639478
H       -1.27736755       1.27517153       0.25856432
H       -2.65381613      -0.10176050      -1.22802542
14
Frame=6 idx=002617 GeodesicLength=0.6648541075000263 rxn_smarts="[C:1]([C@@:2]([O:3][H:11])([C@@:4]1([H:12])[C:5]([H:13])([H:14])[O:6]1)[H:10])([H:7])([H:8])[H:9]>>[C:1]([C@@:2]([O:3][H:13])([C@@:4]([C:5][H:14])([O:6][H:11])[H:12])[H:10])([H:7])([H:8])[H:9]"
C        1.63417348      -0.43868822       0.64184422
C        0.19149003       0.00787208       0.69421923
O        0.05394120       1.39857963       0.56497873
C       -0.67277718      -0.54295154      -0.44706914
C       -1.85378291       0.29854803      -0.62632508
O       -0.59732868       0.41781735      -1.56665531
H        2.09008435      -0.17188248      -0.31421238
H        2.20083822       0.05480212       1.43093738
H        1.70908791      -1.51979388       0.78102994
H       -0.26659122      -0.32500846       1.63803556
H        0.00296215       1.22659042      -1.03168204
H       -0.53891842      -1.55403519      -0.81468666
H       -1.29342009       1.27509279       0.26742581
H       -2.65975884      -0.12694266      -1.21784027
14
Frame=7 idx=002617 GeodesicLength=0.7756468581878441 rxn_smarts="[C:1]([C@@:2]([O:3][H:11])([C@@:4]1([H:12])[C:5]([H:13])([H:14])[O:6]1)[H:10])([H:7])([H:8])[H:9]>>[C:1]([C@@:2]([O:3][H:13])([C@@:4]([C:5][H:14])([O:6][H:11])[H:12])[H:10])([H:7])([H:8])[H:9]"
C        1.63474276      -0.44726890       0.64574984
C        0.19657803       0.01180655       0.68522443
O        0.07242025       1.40544214       0.55031396
C       -0.66728457      -0.53776960      -0.45569779
C       -1.86289462       0.28795007      -0.62146723
O       -0.61475287       0.42923497      -1.56861807
H        2.09770400      -0.19531843      -0.31083570
H        2.20185065       0.04995255       1.43221422
H        1.69804447      -1.52731266       0.79782034
H       -0.26927174      -0.30598641       1.63020593
H        0.00631178       1.25020702      -1.02069562
H       -0.51854695      -1.54328297      -0.83300427
H       -1.30962303       1.27492531       0.27616763
H       -2.66527817      -0.15257966      -1.20737767
14
Frame=8 idx=002617 GeodesicLength=0.8864959528761064 rxn_smarts="[C:1]([C@@:2]([O:3][H:11])([C@@:4]1([H:12])[C:5]([H:13])([H:14])[O:6]1)[H:10])([H:7])([H:8])[H:9]>>[C:1]([C@@:2]([O:3][H:13])([C@@:4]([C:5][H:14])([O:6][H:11])[H:12])[H:10])([H:7])([H:8])[H:9]"
C        1.63512172      -0.45583619       0.64967281
C        0.20172912       0.01588123       0.67609751
O        0.09125398       1.41230091       0.53590541
C       -0.66177365      -0.53233359      -0.46442386
C       -1.87187804       0.27701915      -0.61650532
O       -0.63269173       0.44029094      -1.57060900
H        2.10513682      -0.21875173      -0.30715881
H        2.20277231       0.04482923       1.43359006
H        1.68650260      -1.53459718       0.81433974
H       -0.27166779      -0.28682036       1.62206937
H        0.01024277       1.27407992      -1.00979802
H       -0.49832771      -1.53198647      -0.85135918
H       -1.32605574       1.27464829       0.28481408
H       -2.67036468      -0.17872416      -1.19663479
14
Frame=9 idx=002617 GeodesicLength=0.9974714923081605 rxn_smarts="[C:1]([C@@:2]([O:3][H:11])([C@@:4]1([H:12])[C:5]([H:13])([H:14])[O:6]1)[H:10])([H:7])([H:8])[H:9]>>[C:1]([C@@:2]([O:3][H:13])([C@@:4]([C:5][H:14])([O:6][H:11])[H:12])[H:10])([H:7])([H:8])[H:9]"
C        1.63529692      -0.46440925       0.65360874
C        0.20695049       0.02011698       0.66682281
O        0.11048774       1.41917439       0.52171286
C       -0.65622925      -0.52660915      -0.47327214
C       -1.88073439       0.26572770      -0.61142716
O       -0.65118231       0.45099717      -1.57262895
H        2.11238037      -0.24222467      -0.30318618
H        2.20358900       0.03940688       1.43506188
H        1.67444056      -1.54165875       0.83059951
H       -0.27379271      -0.26747913       1.61361529
H        0.01480287       1.29828428      -0.99894726
H       -0.47823091      -1.52012711      -0.86974860
H       -1.34277582       1.27423726       0.29336646
H       -2.67500258      -0.20543661      -1.18557726
14
Frame=10 idx=002617 GeodesicLength=1.108504138125595 rxn_smarts="[C:1]([C@@:2]([O:3][H:11])([C@@:4]1([H:12])[C:5]([H:13])([H:14])[O:6]1)[H:10])([H:7])([H:8])[H:9]>>[C:1]([C@@:2]([O:3][H:13])([C@@:4]([C:5][H:14])([O:6][H:11])[H:12])[H:10])([H:7])([H:8])[H:9]"
C        1.63525132      -0.47299823       0.65756197
C        0.21225342       0.02454709       0.65738786
O        0.13021264       1.42609044       0.50770441
C       -0.65065076      -0.52057493      -0.48224154
C       -1.88947432       0.25401897      -0.60620543
O       -0.67026939       0.46138611      -1.57464577
H        2.11942166      -0.26578543      -0.29891558
H        2.20430056       0.03366564       1.43664304
H        1.66179149      -1.54850922       0.84661029
H       -0.27562746      -0.24789551       1.60484144
H        0.02004249       1.32285271      -0.98818401
H       -0.45823741      -1.50765610      -0.88823963
H       -1.35987915       1.27364283       0.30188552
H       -2.67913510      -0.23278437      -1.17420257
14
Frame=11 idx=002617 GeodesicLength=1.2195691710119925 rxn_smarts="[C:1]([C@@:2]([O:3][H:11])([C@@:4]1([H:12])[C:5]([H:13])([H:14])[O:6]1)[H:10])([H:7])([H:8])[H:9]>>[C:1]([C@@:2]([O:3][H:13])([C@@:4]([C:5][H:14])([O:6][H:11])[H:12])[H:10])([H:7])([H:8])[H:9]"
C        1.63496953      -0.48161518       0.66153281
C        0.21764736       0.02919764       0.64777925
O        0.15049178       1.43306525       0.49384769
C       -0.64503060      -0.51420437      -0.49134334
C       -1.89809949       0.24185492      -0.60082303
O       -0.68999027       0.47147571      -1.57664524
H        2.12624889      -0.28947407      -0.29434687
H        2.20489798       0.02758347       1.43833601
H        1.64851059      -1.55515333       0.86238137
H       -0.27716705      -0.22802114       1.59574102
H        0.02601867       1.34783161      -0.97751105
H       -0.43832446      -1.49453815      -0.90686094
H       -1.37743895       1.27282395       0.31040542
H       -2.68273398      -0.26082630      -1.16249309
14
Frame=12 idx=002617 GeodesicLength=1.3306503377459482 rxn_smarts="[C:1]([C@@:2]([O:3][H:11])([C@@:4]1([H:12])[C:5]([H:13])([H:14])[O:6]1)[H:10])([H:7])([H:8])[H:9]>>[C:1]([C@@:2]([O:3][H:13])([C@@:4]([C:5][H:14])([O:6][H:11])[H:12])[H:10])([H:7])([H:8])[H:9]"
C        1.63442940      -0.49027375       0.66552120
C        0.22314286       0.03409866       0.63798074
O        0.17139462       1.44011528       0.48010262
C       -0.63936241      -0.50746413      -0.50059105
C       -1.90660978       0.22918617      -0.59525547
O       -0.71039250       0.48128700      -1.57860470
H        2.13284631      -0.31333553      -0.28947769
H        2.20536793       0.02113523       1.44014715
H        1.63454172      -1.56159771       0.87792040
H       -0.27840536      -0.20779804       1.58630385
H        0.03279315       1.37327211      -0.96693188
H       -0.41846860      -1.48072506      -0.92565084
H       -1.39552636       1.27173569       0.31895866
H       -2.68575100      -0.28963592      -1.15042299
14
Frame=13 idx=002617 GeodesicLength=1.4417175378764508 rxn_smarts="[C:1]([C@@:2]([O:3][H:11])([C@@:4]1([H:12])[C:5]([H:13])([H:14])[O:6]1)[H:10])([H:7])([H:8])[H:9]>>[C:1]([C@@:2]([O:3][H:13])([C@@:4]([C:5][H:14])([O:6][H:11])[H:12])[H:10])([H:7])([H:8])[H:9]"
C        1.63360954      -0.49898659       0.66952822
C        0.22875113       0.03927746       0.62797566
O        0.19299183       1.44725493       0.46642261
C       -0.63364016      -0.50032419      -0.50999774
C       -1.91500121       0.21596593      -0.58947785
O       -0.73152374       0.49083418      -1.58049799
H        2.13919425      -0.33741489      -0.28430400
H        2.20569731       0.01429909       1.44208198
H        1.61982842      -1.56784289       0.89323861
H       -0.27933357      -0.18716834       1.57651905
H        0.04042312       1.39922309      -0.95645245
H       -0.39864751      -1.46616755      -0.94464936
H       -1.41421152       1.27032414       0.32758776
H       -2.68813789      -0.31927437      -1.13797451
14
Frame=14 idx=002617 GeodesicLength=1.5527357597164644 rxn_smarts="[C:1]([C@@:2]([O:3][H:11])([C@@:4]1([H:12])[C:5]([H:13])([H:14])[O:6]1)[H:10])([H:7])([H:8])[H:9]>>[C:1]([C@@:2]([O:3][H:13])([C@@:4]([C:5][H:14])([O:6][H:11])[H:12])[H:10])([H:7])([H:8])[H:9]"
C        1.63248471      -0.50776342       0.67355384
C        0.23448196       0.04476178       0.61774935
O        0.21534521       1.45449037       0.45276511
C       -0.62786243      -0.49275256      -0.51957361
C       -1.92326576       0.20214419      -0.58346230
O       -0.75343292       0.50012874      -1.58229656
H        2.14526639      -0.36175329      -0.27882321
H        2.20586964       0.00705456       1.44414285
H        1.60431779      -1.57388584       0.90833865
H       -0.27994098      -0.16607310       1.56637739
H        0.04898407       1.42572916      -0.94607328
H       -0.37884393      -1.45081411      -0.96389036
H       -1.43355747       1.26853872       0.33632856
H       -2.68984629      -0.34980520      -1.12513642
14
Frame=15 idx=002617 GeodesicLength=1.663690577155101 rxn_smarts="[C:1]([C@@:2]([O:3][H:11])([C@@:4]1([H:12])[C:5]([H:13])([H:14])[O:6]1)[H:10])([H:7])([H:8])[H:9]>>[C:1]([C@@:2]([O:3][H:13])([C@@:4]([C:5][H:14])([O:6][H:11])[H:12])[H:10])([H:7])([H:8])[H:9]"
C        1.63102208      -0.51662002       0.67759929
C        0.24034778       0.05058524       0.60728103
O        0.23853664       1.46183437       0.43906648
C       -0.62202747      -0.48470659      -0.52933516
C       -1.93139121       0.18765675      -0.57717360
O       -0.77618410       0.50919146      -1.58395717
H        2.15102852      -0.38641137      -0.27302763
H        2.20586206      -0.00062516       1.44633477
H        1.58792854      -1.57972066       0.92323339
H       -0.28021490      -0.14443585       1.55586239
H        0.05855141       1.45284714      -0.93580331
H       -0.35903179      -1.43458719      -0.98343206
H       -1.45363533       1.26630870       0.34523062
H       -2.69079221      -0.38131684      -1.11187903
14
Frame=16 idx=002617 GeodesicLength=1.774539091828484 rxn_smarts="[C:1]([C@@:2]([O:3][H:11])([C@@:4]1([H:12])[C:5]([H:13])([H:14])[O:6]1)[H:10])([H:7])([H:8])[H:9]>>[C:1]([C@@:2]([O:3][H:13])([C@@:4]([C:5][H:14])([O:6][H:11])[H:12])[H:10])([H:7])([H:8])[H:9]"
C        1.62919040      -0.52556475       0.68166479
C        0.24636052       0.05677715       0.59655439
O        0.26263643       1.46928898       0.42527110
C       -0.61613623      -0.47615173      -0.53929167
C       -1.93936046       0.17244619      -0.57058018
O       -0.79982978       0.51802552      -1.58544043
H        2.15644300      -0.41143453      -0.26691170
H        2.20565403      -0.00876108       1.44866043
H        1.57059802      -1.58533873       0.93792392
H       -0.28013934      -0.12218609       1.54496176
H        0.06919878       1.48062542      -0.92564543
H       -0.33919889      -1.41742269      -1.00330958
H       -1.47450905       1.26356573       0.35434291
H       -2.69090742      -0.41386938      -1.09820029
