17
Frame=0 idx=008612 GeodesicLength=0.0 rxn_smarts="[C:1]([C@@:2]1([H:11])[C:3]([H:12])([H:13])[C@@:4]2([O:5][H:14])[C:6]([H:15])([H:16])[C@@:7]12[H:17])([H:8])([H:9])[H:10]>>[C:1]([C@@:2]1([H:11])[C:3]([H:12])([H:13])[C:4]([O:5][H:14])=[C:6]([H:16])[C:7]1([H:15])[H:17])([H:8])([H:9])[H:10]"
C        1.93626051       0.56729814      -0.23909303
C        0.81551615      -0.45216127      -0.25789609
C        0.03225813      -0.72155503       1.05727661
C       -1.26145083      -0.25993288       0.38027667
O       -2.37277118      -1.07246039       0.51131712
C       -1.40157925       1.12530659      -0.00098277
C       -0.49880286      -0.06860076      -0.95332982
H        2.74783639       0.23282034       0.40992087
H        1.59224096       1.53349335       0.13662727
H        2.34534505       0.72074659      -1.23994726
H        1.18183532      -1.38932341      -0.68144058
H        0.32262526      -0.14575312       1.93729346
H        0.00717410      -1.77988981       1.31256701
H       -3.13490422      -0.52159441       0.31086654
H       -0.80354088       1.05713770      -1.26651479
H       -0.60015748       1.74749128       0.40523317
H       -0.90788525      -0.57302289      -1.82217445
17
Frame=1 idx=008612 GeodesicLength=0.08813826702329064 rxn_smarts="[C:1]([C@@:2]1([H:11])[C:3]([H:12])([H:13])[C@@:4]2([O:5][H:14])[C:6]([H:15])([H:16])[C@@:7]12[H:17])([H:8])([H:9])[H:10]>>[C:1]([C@@:2]1([H:11])[C:3]([H:12])([H:13])[C:4]([O:5][H:14])=[C:6]([H:16])[C:7]1([H:15])[H:17])([H:8])([H:9])[H:10]"
C        1.93689355       0.56711872      -0.23196106
C        0.81617505      -0.45222787      -0.26141092
C        0.03158801      -0.72623693       1.05163717
C       -1.26415569      -0.26522935       0.38183799
O       -2.37887333      -1.06868708       0.52910459
C       -1.39251652       1.11037827      -0.02370518
C       -0.49310998      -0.06513367      -0.96415373
H        2.74603201       0.22893115       0.41826585
H        1.59217357       1.53124311       0.14842584
H        2.34880374       0.72706686      -1.23064542
H        1.18620968      -1.38772900      -0.68552102
H        0.32311275      -0.15468531       1.93410992
H        0.00917303      -1.78576583       1.30317344
H       -3.14335293      -0.51103678       0.35974312
H       -0.80078574       1.06854205      -1.29438959
H       -0.62316165       1.75944261       0.39872080
H       -0.89420554      -0.57599096      -1.83323181
17
Frame=2 idx=008612 GeodesicLength=0.17626383062709233 rxn_smarts="[C:1]([C@@:2]1([H:11])[C:3]([H:12])([H:13])[C@@:4]2([O:5][H:14])[C:6]([H:15])([H:16])[C@@:7]12[H:17])([H:8])([H:9])[H:10]>>[C:1]([C@@:2]1([H:11])[C:3]([H:12])([H:13])[C:4]([O:5][H:14])=[C:6]([H:16])[C:7]1([H:15])[H:17])([H:8])([H:9])[H:10]"
C        1.93737999       0.56707809      -0.22459858
C        0.81705484      -0.45245536      -0.26500297
C        0.03089079      -0.73136619       1.04569086
C       -1.26676102      -0.27060585       0.38316124
O       -2.38523079      -1.06391928       0.54735271
C       -1.38307669       1.09501807      -0.04648061
C       -0.48695982      -0.06202979      -0.97544921
H        2.74403009       0.22539552       0.42698643
H        1.59152666       1.52897096       0.16040514
H        2.35233404       0.73367399      -1.22094419
H        1.19113848      -1.38616751      -0.68962276
H        0.32353754      -0.16432338       1.93077616
H        0.01084378      -1.79213604       1.29316787
H       -3.15043424      -0.49875082       0.41037765
H       -0.79835398       1.07970784      -1.32227689
H       -0.64786575       1.77104554       0.39120457
H       -0.88005392      -0.57913578      -1.84474741
17
Frame=3 idx=008612 GeodesicLength=0.2643738854376906 rxn_smarts="[C:1]([C@@:2]1([H:11])[C:3]([H:12])([H:13])[C@@:4]2([O:5][H:14])[C:6]([H:15])([H:16])[C@@:7]12[H:17])([H:8])([H:9])[H:10]>>[C:1]([C@@:2]1([H:11])[C:3]([H:12])([H:13])[C:4]([O:5][H:14])=[C:6]([H:16])[C:7]1([H:15])[H:17])([H:8])([H:9])[H:10]"
C        1.93771285       0.56716461      -0.21700345
C        0.81815378      -0.45285053      -0.26866666
C        0.03017534      -0.73695463       1.03944312
C       -1.26926455      -0.27605070       0.38427448
O       -2.39181528      -1.05807166       0.56616086
C       -1.37325838       1.07923642      -0.06923331
C       -0.48034682      -0.05927341      -0.98719447
H        2.74182820       0.22219394       0.43607543
H        1.59029631       1.52666337       0.17257060
H        2.35591661       0.74056105      -1.21083784
H        1.19661115      -1.38464170      -0.69374580
H        0.32393167      -0.17470244       1.92729961
H        0.01217848      -1.79901426       1.28253929
H       -3.15597029      -0.48473311       0.46254917
H       -0.79632670       1.09065927      -1.35012412
H       -0.67438096       1.78224912       0.38258952
H       -0.86544140      -0.58243532      -1.85669644
17
Frame=4 idx=008612 GeodesicLength=0.3524533808859528 rxn_smarts="[C:1]([C@@:2]1([H:11])[C:3]([H:12])([H:13])[C@@:4]2([O:5][H:14])[C:6]([H:15])([H:16])[C@@:7]12[H:17])([H:8])([H:9])[H:10]>>[C:1]([C@@:2]1([H:11])[C:3]([H:12])([H:13])[C:4]([O:5][H:14])=[C:6]([H:16])[C:7]1([H:15])[H:17])([H:8])([H:9])[H:10]"
C        1.93788732       0.56736483      -0.20917333
C        0.81946809      -0.45341737      -0.27239578
C        0.02944909      -0.74300952       1.03290140
C       -1.27166427      -0.28154824       0.38520784
O       -2.39857773      -1.05106521       0.58562637
C       -1.36306379       1.06304784      -0.09189176
C       -0.47326972      -0.05684188      -0.99936456
H        2.73942513       0.21930278       0.44552656
H        1.58848488       1.52430536       0.18492803
H        2.35953424       0.74771804      -1.20032279
H        1.20261092      -1.38315227      -0.69789016
H        0.32432952      -0.18585523       1.92368920
H        0.01316628      -1.80641011       1.27127867
H       -3.15979867      -0.46898862       0.51602483
H       -0.79479158       1.10142410      -1.37787177
H       -0.70281185       1.79298870       0.37277623
H       -0.85037786      -0.58586319      -1.86904898
17
Frame=5 idx=008612 GeodesicLength=0.44050016180944424 rxn_smarts="[C:1]([C@@:2]1([H:11])[C:3]([H:12])([H:13])[C@@:4]2([O:5][H:14])[C:6]([H:15])([H:16])[C@@:7]12[H:17])([H:8])([H:9])[H:10]>>[C:1]([C@@:2]1([H:11])[C:3]([H:12])([H:13])[C:4]([O:5][H:14])=[C:6]([H:16])[C:7]1([H:15])[H:17])([H:8])([H:9])[H:10]"
C        1.93790276       0.56766105      -0.20110784
C        0.82099646      -0.45415953      -0.27618208
C        0.02872861      -0.74953850       1.02607705
C       -1.27395561      -0.28708504       0.38600844
O       -2.40547163      -1.04282538       0.60586084
C       -1.35247974       1.04647802      -0.11436659
C       -0.46572540      -0.05470184      -1.01192299
H        2.73682690       0.21669106       0.45532720
H        1.58610369       1.52187853       0.19748264
H        2.36317071       0.75512955      -1.18939655
H        1.20911921      -1.38169963      -0.70205811
H        0.32477592      -0.19781323       1.91995433
H        0.01381439      -1.81432930       1.25938137
H       -3.16178662      -0.45151756       0.57052135
H       -0.79384167       1.11202650      -1.40545951
H       -0.73330117       1.80318548       0.36165118
H       -0.83487680      -0.58938016      -1.88177075
17
Frame=6 idx=008612 GeodesicLength=0.5285053953651482 rxn_smarts="[C:1]([C@@:2]1([H:11])[C:3]([H:12])([H:13])[C@@:4]2([O:5][H:14])[C:6]([H:15])([H:16])[C@@:7]12[H:17])([H:8])([H:9])[H:10]>>[C:1]([C@@:2]1([H:11])[C:3]([H:12])([H:13])[C:4]([O:5][H:14])=[C:6]([H:16])[C:7]1([H:15])[H:17])([H:8])([H:9])[H:10]"
C        1.93775686       0.56803405      -0.19280189
C        0.82273246      -0.45507806      -0.28001597
C        0.02802104      -0.75654407       1.01897969
C       -1.27613889      -0.29263746       0.38672190
O       -2.41239830      -1.03327898       0.62696921
C       -1.34150338       1.02955380      -0.13658308
C       -0.45771722      -0.05281809      -1.02483388
H        2.73403386       0.21432303       0.46547077
H        1.58316391       1.51936194       0.21024362
H        2.36680904       0.76277881      -1.17805296
H        1.21611105      -1.38028158      -0.70625010
H        0.32531160      -0.21061061       1.91610332
H        0.01411353      -1.82277390       1.24683704
H       -3.16180952      -0.43234332       0.62577206
H       -0.79357429       1.12249880      -1.43282350
H       -0.76595848       1.81276086       0.34908849
H       -0.81895328      -0.59294523      -1.89482472
17
Frame=7 idx=008612 GeodesicLength=0.6164548920869584 rxn_smarts="[C:1]([C@@:2]1([H:11])[C:3]([H:12])([H:13])[C@@:4]2([O:5][H:14])[C:6]([H:15])([H:16])[C@@:7]12[H:17])([H:8])([H:9])[H:10]>>[C:1]([C@@:2]1([H:11])[C:3]([H:12])([H:13])[C:4]([O:5][H:14])=[C:6]([H:16])[C:7]1([H:15])[H:17])([H:8])([H:9])[H:10]"
C        1.93745785       0.56846103      -0.18425678
C        0.82467285      -0.45617123      -0.28388619
C        0.02734157      -0.76402081       1.01162632
C       -1.27821077      -0.29818077       0.38740264
O       -2.41926885      -1.02237233       0.64904137
C       -1.33012647       1.01231364      -0.15846489
C       -0.44924653      -0.05114321      -1.03805189
H        2.73105776       0.21215640       0.47594199
H        1.57969577       1.51673374       0.22321489
H        2.37044125       0.77064034      -1.16629333
H        1.22355676      -1.37889633      -0.71046447
H        0.32598536      -0.22426571       1.91214743
H        0.01406693      -1.83173683       1.23364768
H       -3.15979496      -0.41149100       0.68148766
H       -0.79409719       1.13287397      -1.45988587
H       -0.80091143       1.82159922       0.33496504
H       -0.80261989      -0.59650012      -1.90817160
17
Frame=8 idx=008612 GeodesicLength=0.7043492252322581 rxn_smarts="[C:1]([C@@:2]1([H:11])[C:3]([H:12])([H:13])[C@@:4]2([O:5][H:14])[C:6]([H:15])([H:16])[C@@:7]12[H:17])([H:8])([H:9])[H:10]>>[C:1]([C@@:2]1([H:11])[C:3]([H:12])([H:13])[C:4]([O:5][H:14])=[C:6]([H:16])[C:7]1([H:15])[H:17])([H:8])([H:9])[H:10]"
C        1.93701136       0.56891673      -0.17545847
C        0.82681538      -0.45743578      -0.28778225
C        0.02669586      -0.77196807       1.00402040
C       -1.28016745      -0.30368843       0.38810710
O       -2.42596472      -1.01006444       0.67215757
C       -1.31832938       0.99480250      -0.17993739
C       -0.44030982      -0.04962227      -1.05153303
H        2.72790338       0.21014212       0.48674413
H        1.57572284       1.51396641       0.23641562
H        2.37406252       0.77869179      -1.15409656
H        1.23143195      -1.37753648      -0.71470487
H        0.32683333      -0.23881896       1.90808431
H        0.01366578      -1.84120730       1.21978959
H       -3.15565312      -0.38896474       0.73746363
H       -0.79552851       1.14317099      -1.48658458
H       -0.83830715       1.82959629       0.31909379
H       -0.78588225      -0.59998037      -1.92177898
17
Frame=9 idx=008612 GeodesicLength=0.7920247114657275 rxn_smarts="[C:1]([C@@:2]1([H:11])[C:3]([H:12])([H:13])[C@@:4]2([O:5][H:14])[C:6]([H:15])([H:16])[C@@:7]12[H:17])([H:8])([H:9])[H:10]>>[C:1]([C@@:2]1([H:11])[C:3]([H:12])([H:13])[C:4]([O:5][H:14])=[C:6]([H:16])[C:7]1([H:15])[H:17])([H:8])([H:9])[H:10]"
C        1.93643294       0.56937242      -0.16643237
C        0.82911214      -0.45884243      -0.29168681
C        0.02603404      -0.78029073       0.99620582
C       -1.28205234      -0.30906276       0.38885618
O       -2.43232037      -0.99635205       0.69618515
C       -1.30622754       0.97707249      -0.20106819
C       -0.43092923      -0.04817254      -1.06525357
H        2.72457006       0.20822555       0.49785641
H        1.57133435       1.51106930       0.24980006
H        2.37768893       0.78686200      -1.14150220
H        1.23963260      -1.37621171      -0.71893357
H        0.32782467      -0.25416025       1.90395222
H        0.01286051      -1.85108633       1.20535911
H       -3.14942781      -0.36514870       0.79355468
H       -0.79802765       1.15339973      -1.51289325
H       -0.87777066       1.83662556       0.30165406
H       -0.76873466      -0.60329955      -1.93565375
17
Frame=10 idx=008612 GeodesicLength=0.8796222894806096 rxn_smarts="[C:1]([C@@:2]1([H:11])[C:3]([H:12])([H:13])[C@@:4]2([O:5][H:14])[C:6]([H:15])([H:16])[C@@:7]12[H:17])([H:8])([H:9])[H:10]>>[C:1]([C@@:2]1([H:11])[C:3]([H:12])([H:13])[C:4]([O:5][H:14])=[C:6]([H:16])[C:7]1([H:15])[H:17])([H:8])([H:9])[H:10]"
C        1.93573470       0.56981591      -0.15712393
C        0.83161133      -0.46040500      -0.29559742
C        0.02541539      -0.78907092       0.98815028
C       -1.28381348      -0.31430680       0.38971563
O       -2.43827334      -0.98115307       0.72128080
C       -1.29366504       0.95917729      -0.22168267
C       -0.42106836      -0.04676054      -1.07916620
H        2.72107828       0.20637137       0.50931307
H        1.56651196       1.50799349       0.26345614
H        2.38132114       0.79518529      -1.12843350
H        1.24821576      -1.37489738      -0.72319152
H        0.32905995      -0.27046207       1.89972223
H        0.01166696      -1.86145441       1.19022214
H       -3.14099470      -0.33966701       0.84966741
H       -0.80169631       1.16356326      -1.53874168
H       -0.91993202       1.84249193       0.28214355
H       -0.75117223      -0.60642134      -1.94973433
17
Frame=11 idx=008612 GeodesicLength=0.967124165871627 rxn_smarts="[C:1]([C@@:2]1([H:11])[C:3]([H:12])([H:13])[C@@:4]2([O:5][H:14])[C:6]([H:15])([H:16])[C@@:7]12[H:17])([H:8])([H:9])[H:10]>>[C:1]([C@@:2]1([H:11])[C:3]([H:12])([H:13])[C:4]([O:5][H:14])=[C:6]([H:16])[C:7]1([H:15])[H:17])([H:8])([H:9])[H:10]"
C        1.93493897       0.57021876      -0.14752680
C        0.83430908      -0.46211166      -0.29950056
C        0.02484572      -0.79828869       0.97987046
C       -1.28544270      -0.31936125       0.39074658
O       -2.44369879      -0.96444622       0.74743854
C       -1.28063328       0.94118280      -0.24171664
C       -0.41072670      -0.04531308      -1.09321840
H        2.71744740       0.20452259       0.52110784
H        1.56131105       1.50471538       0.27739759
H        2.38497313       0.80362651      -1.11488200
H        1.25714217      -1.37358681      -0.72747877
H        0.33057691      -0.28773453       1.89540676
H        0.01007535      -1.87228398       1.17437942
H       -3.13034516      -0.31256304       0.90562082
H       -0.80668140       1.17367570      -1.56405961
H       -0.96488959       1.84700811       0.26039428
H       -0.73320216      -0.60926058      -1.96397952
17
Frame=12 idx=008612 GeodesicLength=1.0545327748808235 rxn_smarts="[C:1]([C@@:2]1([H:11])[C:3]([H:12])([H:13])[C@@:4]2([O:5][H:14])[C:6]([H:15])([H:16])[C@@:7]12[H:17])([H:8])([H:9])[H:10]>>[C:1]([C@@:2]1([H:11])[C:3]([H:12])([H:13])[C:4]([O:5][H:14])=[C:6]([H:16])[C:7]1([H:15])[H:17])([H:8])([H:9])[H:10]"
C        1.93406690       0.57055558      -0.13761502
C        0.83720475      -0.46394616      -0.30338328
C        0.02431760      -0.80792823       0.97136714
C       -1.28693154      -0.32415137       0.39200136
O       -2.44845433      -0.94620504       0.77462320
C       -1.26710968       0.92316786      -0.26112038
C       -0.39989485      -0.04375174      -1.10736648
H        2.71368860       0.20261952       0.53325688
H        1.55577860       1.50120772       0.29166164
H        2.38866587       0.81216137      -1.10081208
H        1.26638264      -1.37226384      -0.73179797
H        0.33239872      -0.30601693       1.89100310
H        0.00804100      -1.88355044       1.15779350
H       -3.11741470      -0.28384345       0.96137967
H       -0.81314428       1.18373416      -1.58880231
H       -1.01277970       1.84994538       0.23616418
H       -0.71481560      -0.61173439      -1.97835316
17
Frame=13 idx=008612 GeodesicLength=1.1418120234798275 rxn_smarts="[C:1]([C@@:2]1([H:11])[C:3]([H:12])([H:13])[C@@:4]2([O:5][H:14])[C:6]([H:15])([H:16])[C@@:7]12[H:17])([H:8])([H:9])[H:10]>>[C:1]([C@@:2]1([H:11])[C:3]([H:12])([H:13])[C:4]([O:5][H:14])=[C:6]([H:16])[C:7]1([H:15])[H:17])([H:8])([H:9])[H:10]"
C        1.93314548       0.57080087      -0.12737737
C        0.84027874      -0.46588385      -0.30723079
C        0.02380480      -0.81793531       0.96266647
C       -1.28827823      -0.32855516       0.39352213
O       -2.45240526      -0.92641618       0.80269524
C       -1.25309600       0.90523513      -0.27988940
C       -0.38857362      -0.04198449      -1.12157725
H        2.70981473       0.20059682       0.54576872
H        1.54999540       1.49746731       0.30626548
H        2.39242841       0.82075277      -1.08621601
H        1.27587100      -1.37093006      -0.73613699
H        0.33452564      -0.32528971       1.88654003
H        0.00550365      -1.89519608       1.14048779
H       -3.10217910      -0.25367750       1.01692830
H       -0.82128370       1.19372110      -1.61296087
H       -1.06354011       1.85104657       0.20935053
H       -0.69601183      -0.61375222      -1.99283600
17
Frame=14 idx=008612 GeodesicLength=1.2290424697149929 rxn_smarts="[C:1]([C@@:2]1([H:11])[C:3]([H:12])([H:13])[C@@:4]2([O:5][H:14])[C:6]([H:15])([H:16])[C@@:7]12[H:17])([H:8])([H:9])[H:10]>>[C:1]([C@@:2]1([H:11])[C:3]([H:12])([H:13])[C:4]([O:5][H:14])=[C:6]([H:16])[C:7]1([H:15])[H:17])([H:8])([H:9])[H:10]"
C        1.93221208       0.57092224      -0.11676486
C        0.84355692      -0.46790963      -0.31103089
C        0.02333284      -0.82832750       0.95374986
C       -1.28944692      -0.33249547       0.39538815
O       -2.45544741      -0.90503079       0.83169532
C       -1.23850606       0.88749923      -0.29789445
C       -0.37674073      -0.03991037      -1.13577844
H        2.70585666       0.19837693       0.55866825
H        1.54401161       1.49343944       0.32128545
H        2.39629672       0.82938981      -1.07102378
H        1.28560687      -1.36955009      -0.74052462
H        0.33702781      -0.34565829       1.88199451
H        0.00243726      -1.90722592       1.12235901
H       -3.08455222      -0.22190594       1.07223113
H       -0.83125592       1.20363361      -1.63645611
H       -1.11759205       1.84995400       0.17945961
H       -0.67679746      -0.61520126      -2.00735814
17
Frame=15 idx=008612 GeodesicLength=1.3162457303745254 rxn_smarts="[C:1]([C@@:2]1([H:11])[C:3]([H:12])([H:13])[C@@:4]2([O:5][H:14])[C:6]([H:15])([H:16])[C@@:7]12[H:17])([H:8])([H:9])[H:10]>>[C:1]([C@@:2]1([H:11])[C:3]([H:12])([H:13])[C:4]([O:5][H:14])=[C:6]([H:16])[C:7]1([H:15])[H:17])([H:8])([H:9])[H:10]"
C        1.93131001       0.57088469      -0.10575933
C        0.84703539      -0.46999298      -0.31476608
C        0.02289816      -0.83905893       0.94463477
C       -1.29041509      -0.33583793       0.39767842
O       -2.45746195      -0.88203260       0.86155476
C       -1.22331037       0.87009493      -0.31506736
C       -0.36439231      -0.03741033      -1.14990221
H        2.70184572       0.19587329       0.57195460
H        1.53792213       1.48909722       0.33675794
H        2.40031134       0.83802920      -1.05521274
H        1.29553347      -1.36810456      -0.74496689
H        0.33994149      -0.36713432       1.87737843
H       -0.00120532      -1.91958406       1.10338989
H       -3.06453708      -0.18861011       1.12720384
H       -0.84325550       1.21345830      -1.65923664
H       -1.17503267       1.84628203       0.14621687
H       -0.65718742      -0.61595383      -2.02185825
17
Frame=16 idx=008612 GeodesicLength=1.4034579490443684 rxn_smarts="[C:1]([C@@:2]1([H:11])[C:3]([H:12])([H:13])[C@@:4]2([O:5][H:14])[C:6]([H:15])([H:16])[C@@:7]12[H:17])([H:8])([H:9])[H:10]>>[C:1]([C@@:2]1([H:11])[C:3]([H:12])([H:13])[C:4]([O:5][H:14])=[C:6]([H:16])[C:7]1([H:15])[H:17])([H:8])([H:9])[H:10]"
C        1.93048881       0.57065490      -0.09433016
C        0.85070911      -0.47209491      -0.31842043
C        0.02249360      -0.85007801       0.93533548
C       -1.29116152      -0.33842000       0.40046812
O       -2.45833010      -0.85739161       0.89220410
C       -1.20747502       0.85318816      -0.33133799
C       -0.35152796      -0.03434593      -1.16388304
H        2.69781801       0.19298948       0.58563724
H        1.53183212       1.48441508       0.35274087
H        2.40452139       0.84663816      -1.03874514
H        1.30559024      -1.36657212      -0.74947573
H        0.34330519      -0.38973520       1.87270432
H       -0.00548837      -1.93221208       1.08354696
H       -3.04212240      -0.15386792       1.18181087
H       -0.85749329       1.22315914      -1.68128176
H       -1.23595247       1.83954517       0.10930672
H       -0.63720735      -0.61587230      -2.03628045
