8
Frame=0 idx=003322 GeodesicLength=0.0 rxn_smarts="[O:1]=[C:2]([C:3]([C:4]#[N:5])([H:7])[H:8])[H:6]>>[O:1]=[C:2]([C:3]([N+:5]#[C-:4])([H:7])[H:8])[H:6]"
O       -2.01483487       0.51203705      -0.29227067
C       -0.87724544       0.65596288       0.04006094
C        0.08674255      -0.51154868       0.05003488
C        1.43767088       0.16876742      -0.82764503
N        1.88576399      -0.24691165       0.18984640
H       -0.46883567       1.62414069       0.38183526
H       -0.22136479      -1.31319035      -0.61269556
H        0.17210338      -0.88925734       1.07083375
8
Frame=1 idx=003322 GeodesicLength=0.06258452984586461 rxn_smarts="[O:1]=[C:2]([C:3]([C:4]#[N:5])([H:7])[H:8])[H:6]>>[O:1]=[C:2]([C:3]([N+:5]#[C-:4])([H:7])[H:8])[H:6]"
O       -2.02732548       0.49667441      -0.27371452
C       -0.88437937       0.65646591       0.03228446
C        0.09382459      -0.50002170       0.05018031
C        1.45832170       0.21615729      -0.79755391
N        1.90633217      -0.31441083       0.16076944
H       -0.48464569       1.63376883       0.35845037
H       -0.21907491      -1.30882692      -0.60266527
H        0.15694699      -0.87980699       1.07224912
8
Frame=2 idx=003322 GeodesicLength=0.12481501958862304 rxn_smarts="[O:1]=[C:2]([C:3]([C:4]#[N:5])([H:7])[H:8])[H:6]>>[O:1]=[C:2]([C:3]([N+:5]#[C-:4])([H:7])[H:8])[H:6]"
O       -2.03906914       0.48118996      -0.25609922
C       -0.89159012       0.65676051       0.02358670
C        0.10078823      -0.48847785       0.05077944
C        1.48173236       0.26443135      -0.75852881
N        1.92358050      -0.38369811       0.12307152
H       -0.50191572       1.64320028       0.33458725
H       -0.21756832      -1.30459154      -0.59151148
H        0.14404221      -0.86881460       1.07411461
8
Frame=3 idx=003322 GeodesicLength=0.18694747035835452 rxn_smarts="[O:1]=[C:2]([C:3]([C:4]#[N:5])([H:7])[H:8])[H:6]>>[O:1]=[C:2]([C:3]([N+:5]#[C-:4])([H:7])[H:8])[H:6]"
O       -2.05007167       0.46557077      -0.23895496
C       -0.89869734       0.65676436       0.01373065
C        0.10753224      -0.47719798       0.05164750
C        1.50843360       0.31301280      -0.70830417
N        1.93660657      -0.45334916       0.07529308
H       -0.52021172       1.65243542       0.30932070
H       -0.21717744      -1.30081886      -0.57915938
H        0.13358575      -0.85641735       1.07642659
8
Frame=4 idx=003322 GeodesicLength=0.24906006501355502 rxn_smarts="[O:1]=[C:2]([C:3]([C:4]#[N:5])([H:7])[H:8])[H:6]>>[O:1]=[C:2]([C:3]([N+:5]#[C-:4])([H:7])[H:8])[H:6]"
O       -2.06010240       0.45021435      -0.22228720
C       -0.90543087       0.65629981       0.00286838
C        0.11387492      -0.46674522       0.05273606
C        1.53844576       0.36055412      -0.64456991
N        1.94455068      -0.52036894       0.01583576
H       -0.53868218       1.66138015       0.28157183
H       -0.21839446      -1.29808103      -0.56537483
H        0.12573855      -0.84325323       1.07921992
8
Frame=5 idx=003322 GeodesicLength=0.3108814109648527 rxn_smarts="[O:1]=[C:2]([C:3]([C:4]#[N:5])([H:7])[H:8])[H:6]>>[O:1]=[C:2]([C:3]([N+:5]#[C-:4])([H:7])[H:8])[H:6]"
O       -2.06890433       0.43583261      -0.20571824
C       -0.91139970       0.65519726      -0.00846089
C        0.11955916      -0.45790189       0.05402102
C        1.57128102       0.40447977      -0.56595234
N        1.94676351      -0.57971650      -0.05583723
H       -0.55583811       1.66993497       0.24971551
H       -0.22161003      -1.29704474      -0.55010196
H        0.12014847      -0.83078149       1.08233414
8
Frame=6 idx=003322 GeodesicLength=0.37183058457020796 rxn_smarts="[O:1]=[C:2]([C:3]([C:4]#[N:5])([H:7])[H:8])[H:6]>>[O:1]=[C:2]([C:3]([N+:5]#[C-:4])([H:7])[H:8])[H:6]"
O       -2.07676591       0.42266365      -0.18579693
C       -0.91618830       0.65361904      -0.02126913
C        0.12434619      -0.45103659       0.05491407
C        1.60684036       0.44076821      -0.47355678
N        1.94290259      -0.62543843      -0.13691153
H       -0.56993524       1.67775980       0.21206828
H       -0.22633463      -1.29795869      -0.53436228
H        0.11513494      -0.82037698       1.08491432
8
Frame=7 idx=003322 GeodesicLength=0.4312891569750318 rxn_smarts="[O:1]=[C:2]([C:3]([C:4]#[N:5])([H:7])[H:8])[H:6]>>[O:1]=[C:2]([C:3]([N+:5]#[C-:4])([H:7])[H:8])[H:6]"
O       -2.08272040       0.41278680      -0.16510945
C       -0.91944134       0.65108232      -0.03192203
C        0.12794532      -0.44747851       0.05715597
C        1.64136553       0.46672654      -0.36914263
N        1.93411539      -0.65166245      -0.22733178
H       -0.57889994       1.68470118       0.16620281
H       -0.23235736      -1.30120576      -0.51794412
H        0.10999281      -0.81495012       1.08809122
8
Frame=8 idx=003322 GeodesicLength=0.48993555590774646 rxn_smarts="[O:1]=[C:2]([C:3]([C:4]#[N:5])([H:7])[H:8])[H:6]>>[O:1]=[C:2]([C:3]([N+:5]#[C-:4])([H:7])[H:8])[H:6]"
O       -2.08735108       0.40525201      -0.14066374
C       -0.92139571       0.64803522      -0.04238292
C        0.13039553      -0.44622480       0.06056146
C        1.67597000       0.47874249      -0.25769078
N        1.91961242      -0.65576454      -0.32222606
H       -0.58217139       1.68950776       0.11293082
H       -0.23793962      -1.30582849      -0.50216005
H        0.10287985      -0.81371965       1.09163126
8
Frame=9 idx=003322 GeodesicLength=0.546855535678769 rxn_smarts="[O:1]=[C:2]([C:3]([C:4]#[N:5])([H:7])[H:8])[H:6]>>[O:1]=[C:2]([C:3]([N+:5]#[C-:4])([H:7])[H:8])[H:6]"
O       -2.08988384       0.40205513      -0.11694766
C       -0.92157892       0.64436605      -0.05012804
C        0.13160004      -0.44835219       0.06647164
C        1.70690024       0.47571566      -0.14765193
N        1.90119067      -0.63538443      -0.41731077
H       -0.57909540       1.69111998       0.05514251
H       -0.24259853      -1.31253443      -0.48665353
H        0.09346574      -0.81698577       1.09707778
8
Frame=10 idx=003322 GeodesicLength=0.6036958206572951 rxn_smarts="[O:1]=[C:2]([C:3]([C:4]#[N:5])([H:7])[H:8])[H:6]>>[O:1]=[C:2]([C:3]([N+:5]#[C-:4])([H:7])[H:8])[H:6]"
O       -2.09091349       0.40185363      -0.09453558
C       -0.92062558       0.64045612      -0.05525428
C        0.13183533      -0.45263918       0.07490981
C        1.73580061       0.45810734      -0.04532591
N        1.87839595      -0.59357992      -0.50747185
H       -0.57086241       1.68896729      -0.00456861
H       -0.24522980      -1.32010343      -0.47233700
H        0.08159939      -0.82306185       1.10458342
8
Frame=11 idx=003322 GeodesicLength=0.6610914816133798 rxn_smarts="[O:1]=[C:2]([C:3]([C:4]#[N:5])([H:7])[H:8])[H:6]>>[O:1]=[C:2]([C:3]([N+:5]#[C-:4])([H:7])[H:8])[H:6]"
O       -2.09087233       0.40372864      -0.07388675
C       -0.91903598       0.63670608      -0.05644791
C        0.13137329      -0.45814874       0.08547266
C        1.76345785       0.42806525       0.04460440
N        1.85183771      -0.53507908      -0.58768350
H       -0.55921468       1.68306847      -0.06532951
H       -0.24558880      -1.32716270      -0.46037266
H        0.06804294      -0.83117792       1.11364326
8
Frame=12 idx=003322 GeodesicLength=0.719175849334425 rxn_smarts="[O:1]=[C:2]([C:3]([C:4]#[N:5])([H:7])[H:8])[H:6]>>[O:1]=[C:2]([C:3]([N+:5]#[C-:4])([H:7])[H:8])[H:6]"
O       -2.09011628       0.40692774      -0.05668476
C       -0.91701830       0.63336242      -0.05609552
C        0.13045705      -0.46424375       0.09682769
C        1.79021235       0.38848785       0.11898115
N        1.82320498      -0.46587182      -0.65549841
H       -0.54639159       1.67402739      -0.12160009
H       -0.24410342      -1.33430225      -0.44978035
H        0.05375520      -0.83838759       1.12385028
8
Frame=13 idx=003322 GeodesicLength=0.7777216782131018 rxn_smarts="[O:1]=[C:2]([C:3]([C:4]#[N:5])([H:7])[H:8])[H:6]>>[O:1]=[C:2]([C:3]([N+:5]#[C-:4])([H:7])[H:8])[H:6]"
O       -2.08914892       0.41035830      -0.04325611
C       -0.91506531       0.63036195      -0.05663804
C        0.12930173      -0.47009917       0.10787864
C        1.81670714       0.34204603       0.17732812
N        1.79391919      -0.39171660      -0.71017948
H       -0.53422193       1.66334645      -0.16987639
H       -0.24098711      -1.34163489      -0.43986260
H        0.03949522      -0.84266209       1.13460587
8
Frame=14 idx=003322 GeodesicLength=0.8359440189475494 rxn_smarts="[O:1]=[C:2]([C:3]([C:4]#[N:5])([H:7])[H:8])[H:6]>>[O:1]=[C:2]([C:3]([N+:5]#[C-:4])([H:7])[H:8])[H:6]"
O       -2.08847197       0.41358370      -0.03139492
C       -0.91367618       0.62757848      -0.05887584
C        0.12799897      -0.47517476       0.11787412
C        1.84306347       0.29127106       0.22145819
N        1.76573385      -0.31686647      -0.75151770
H       -0.52383407       1.65228405      -0.21134808
H       -0.23650828      -1.34861483      -0.43118528
H        0.02569421      -0.84406122       1.14498952
8
Frame=15 idx=003322 GeodesicLength=0.8937034797772421 rxn_smarts="[O:1]=[C:2]([C:3]([C:4]#[N:5])([H:7])[H:8])[H:6]>>[O:1]=[C:2]([C:3]([N+:5]#[C-:4])([H:7])[H:8])[H:6]"
O       -2.08825205       0.41645819      -0.02013437
C       -0.91305650       0.62478614      -0.06346154
C        0.12660105      -0.47929804       0.12670337
C        1.86935038       0.23737929       0.25371207
N        1.73930514      -0.24305966      -0.78103471
H       -0.51563979       1.64161729      -0.24702336
H       -0.23085997      -1.35517002      -0.42353592
H        0.01255174      -0.84271318       1.15477445
8
Frame=16 idx=003322 GeodesicLength=0.9507482552628398 rxn_smarts="[O:1]=[C:2]([C:3]([C:4]#[N:5])([H:7])[H:8])[H:6]>>[O:1]=[C:2]([C:3]([N+:5]#[C-:4])([H:7])[H:8])[H:6]"
O       -2.08853536       0.41920795      -0.00811561
C       -0.91331959       0.62182105      -0.07036905
C        0.12508743      -0.48251057       0.13424695
C        1.89522771       0.18117513       0.27628324
N        1.71536172      -0.17087498      -0.79987839
H       -0.50970760       1.63154538      -0.27888314
H       -0.22432379      -1.36125269      -0.41698620
H        0.00020949      -0.83911128       1.16370220
