12
Frame=0 idx=008194 GeodesicLength=0.0 rxn_smarts="[O:1]([C:2]([C@@:3]([C:4]#[C:5][H:12])([C:6]#[N:7])[H:11])([H:9])[H:10])[H:8]>>[C:6](#[N:7])[H:11].[O:1]([C:2]([C-:3]=[C:4]=[C+:5][H:12])([H:9])[H:10])[H:8]"
O       -1.70742311      -0.27042791      -0.94192484
C       -1.09819838      -0.77054553       0.22650663
C        0.20962689      -0.22317476       0.64858226
C        0.43708314       1.12665441       0.42424761
C        0.63764912       2.31656087       0.32164315
C        1.60976367      -1.19311984      -0.26066462
N        2.60333630      -1.71459424       0.03337142
H       -1.70283718       0.69053950      -0.90880273
H       -1.70600119      -0.57006890       1.12988725
H       -1.06145078      -1.85429060       0.11959237
H        0.93005866      -0.89736762      -1.06854296
H        0.84839282       3.35983459       0.27610441
12
Frame=1 idx=008194 GeodesicLength=0.08328062673168801 rxn_smarts="[O:1]([C:2]([C@@:3]([C:4]#[C:5][H:12])([C:6]#[N:7])[H:11])([H:9])[H:10])[H:8]>>[C:6](#[N:7])[H:11].[O:1]([C:2]([C-:3]=[C:4]=[C+:5][H:12])([H:9])[H:10])[H:8]"
O       -1.69129374      -0.27474272      -0.94755045
C       -1.09522303      -0.76453925       0.23190708
C        0.21788465      -0.21625462       0.63864575
C        0.43929034       1.13755466       0.42664756
C        0.61979493       2.33100269       0.33073103
C        1.62375061      -1.21706099      -0.26412561
N        2.60426387      -1.76920856       0.01429538
H       -1.68790687       0.68653503      -0.92201217
H       -1.70511468      -0.55172421       1.13023791
H       -1.06201609      -1.84985486       0.13969297
H        0.92433941      -0.88958347      -1.06493736
H        0.81223061       3.37787630       0.28646792
12
Frame=2 idx=008194 GeodesicLength=0.16618382708859486 rxn_smarts="[O:1]([C:2]([C@@:3]([C:4]#[C:5][H:12])([C:6]#[N:7])[H:11])([H:9])[H:10])[H:8]>>[C:6](#[N:7])[H:11].[O:1]([C:2]([C-:3]=[C:4]=[C+:5][H:12])([H:9])[H:10])[H:8]"
O       -1.67510258      -0.27952487      -0.95298256
C       -1.09184986      -0.75785361       0.23747763
C        0.22665556      -0.20869332       0.62804655
C        0.44201803       1.14886333       0.42754948
C        0.60374177       2.34521857       0.33723212
C        1.63742342      -1.24233680      -0.26754455
N        2.60404681      -1.82443434      -0.00515570
H       -1.67259297       0.68202022      -0.93600109
H       -1.70360025      -0.53215300       1.13058227
H       -1.06239220      -1.84459427       0.16084567
H        0.91917670      -0.88310546      -1.06124171
H        0.77247557       3.39659357       0.30119189
12
Frame=3 idx=008194 GeodesicLength=0.24858449549976053 rxn_smarts="[O:1]([C:2]([C@@:3]([C:4]#[C:5][H:12])([C:6]#[N:7])[H:11])([H:9])[H:10])[H:8]>>[C:6](#[N:7])[H:11].[O:1]([C:2]([C-:3]=[C:4]=[C+:5][H:12])([H:9])[H:10])[H:8]"
O       -1.65906350      -0.28401397      -0.95818894
C       -1.08866321      -0.75173188       0.24262726
C        0.23456511      -0.20133509       0.61828845
C        0.44277413       1.16034235       0.43145988
C        0.58619935       2.35932665       0.34831066
C        1.65097623      -1.26660486      -0.27059600
N        2.60326508      -1.87756493      -0.02521110
H       -1.65805179       0.67771362      -0.94865423
H       -1.70288361      -0.51509087       1.13039014
H       -1.06209239      -1.83955757       0.18015380
H        0.91497161      -0.87456661      -1.05693347
H        0.73800300       3.41308316       0.30835355
12
Frame=4 idx=008194 GeodesicLength=0.330549309595638 rxn_smarts="[O:1]([C:2]([C@@:3]([C:4]#[C:5][H:12])([C:6]#[N:7])[H:11])([H:9])[H:10])[H:8]>>[C:6](#[N:7])[H:11].[O:1]([C:2]([C-:3]=[C:4]=[C+:5][H:12])([H:9])[H:10])[H:8]"
O       -1.64310711      -0.28854836      -0.96319434
C       -1.08542721      -0.74558345       0.24764131
C        0.24224457      -0.19376395       0.60864065
C        0.44278176       1.17203641       0.43607974
C        0.56908562       2.37318798       0.35996282
C        1.66425788      -1.29113803      -0.27337632
N        2.60187975      -1.92964723      -0.04570247
H       -1.64376355       0.67330295      -0.96098617
H       -1.70233152      -0.49871763       1.12994595
H       -1.06141934      -1.83428025       0.19902232
H        0.91142637      -0.86580509      -1.05227376
H        0.70437277       3.42895666       0.31424027
12
Frame=5 idx=008194 GeodesicLength=0.4121114730471165 rxn_smarts="[O:1]([C:2]([C@@:3]([C:4]#[C:5][H:12])([C:6]#[N:7])[H:11])([H:9])[H:10])[H:8]>>[C:6](#[N:7])[H:11].[O:1]([C:2]([C-:3]=[C:4]=[C+:5][H:12])([H:9])[H:10])[H:8]"
O       -1.62737907      -0.29328927      -0.96800022
C       -1.08219921      -0.73942857       0.25255452
C        0.24964588      -0.18588359       0.59899220
C        0.44197147       1.18398685       0.44102311
C        0.55221653       2.38686314       0.37090230
C        1.67723172      -1.31598445      -0.27584302
N        2.60018854      -1.98031766      -0.06644710
H       -1.62990455       0.66862999      -0.97311210
H       -1.70196944      -0.48295839       1.12930945
H       -1.06038682      -1.82880194       0.21762135
H        0.90839542      -0.85707919      -1.04731728
H        0.67218953       3.44426308       0.32031679
12
Frame=6 idx=008194 GeodesicLength=0.49315260520012455 rxn_smarts="[O:1]([C:2]([C@@:3]([C:4]#[C:5][H:12])([C:6]#[N:7])[H:11])([H:9])[H:10])[H:8]>>[C:6](#[N:7])[H:11].[O:1]([C:2]([C-:3]=[C:4]=[C+:5][H:12])([H:9])[H:10])[H:8]"
O       -1.61203084      -0.29791864      -0.97260248
C       -1.07937635      -0.73388795       0.25712742
C        0.25602035      -0.17807592       0.59007154
C        0.43910937       1.19598296       0.44830626
C        0.53427216       2.40024872       0.38405479
C        1.68987643      -1.34017568      -0.27780371
N        2.59893867      -2.02783544      -0.08770762
H       -1.61702753       0.66401887      -0.98411189
H       -1.70259197      -0.46950066       1.12827783
H       -1.05892740      -1.82372138       0.23468602
H        0.90587725      -0.84707805      -1.04173652
H        0.64585986       3.45794315       0.32143838
12
Frame=7 idx=008194 GeodesicLength=0.5738394284860051 rxn_smarts="[O:1]([C:2]([C@@:3]([C:4]#[C:5][H:12])([C:6]#[N:7])[H:11])([H:9])[H:10])[H:8]>>[C:6](#[N:7])[H:11].[O:1]([C:2]([C-:3]=[C:4]=[C+:5][H:12])([H:9])[H:10])[H:8]"
O       -1.59689536      -0.30253320      -0.97699734
C       -1.07666656      -0.72861998       0.26150395
C        0.26185483      -0.17006679       0.58149623
C        0.43491174       1.20813483       0.45684994
C        0.51571598       2.41349551       0.39774150
C        1.70231556      -1.36419650      -0.27942517
N        2.59758499      -2.07366163      -0.10929338
H       -1.60475831       0.65938089      -0.99446134
H       -1.70370165      -0.45741820       1.12701120
H       -1.05702226      -1.81875256       0.25091369
H        0.90388212      -0.83645588      -1.03576149
H        0.62277891       3.47069352       0.32042220
12
Frame=8 idx=008194 GeodesicLength=0.6541468261351011 rxn_smarts="[O:1]([C:2]([C@@:3]([C:4]#[C:5][H:12])([C:6]#[N:7])[H:11])([H:9])[H:10])[H:8]>>[C:6](#[N:7])[H:11].[O:1]([C:2]([C-:3]=[C:4]=[C+:5][H:12])([H:9])[H:10])[H:8]"
O       -1.58210607      -0.30716311      -0.98119927
C       -1.07421720      -0.72361800       0.26570846
C        0.26704044      -0.16186854       0.57323828
C        0.42935708       1.22035219       0.46644208
C        0.49698769       2.42648333       0.41100888
C        1.71438845      -1.38825569      -0.28059493
N        2.59677411      -2.11713653      -0.13117627
H       -1.59318603       0.65468900      -1.00424135
H       -1.70542634      -0.44660933       1.12553814
H       -1.05484351      -1.81391166       0.26639596
H        0.90218572      -0.82553484      -1.02937023
H        0.60304567       3.48257317       0.31825024
12
Frame=9 idx=008194 GeodesicLength=0.7342036573332462 rxn_smarts="[O:1]([C:2]([C@@:3]([C:4]#[C:5][H:12])([C:6]#[N:7])[H:11])([H:9])[H:10])[H:8]>>[C:6](#[N:7])[H:11].[O:1]([C:2]([C-:3]=[C:4]=[C+:5][H:12])([H:9])[H:10])[H:8]"
O       -1.56747851      -0.31178891      -0.98522016
C       -1.07182274      -0.71862256       0.26982627
C        0.27193595      -0.15338049       0.56509488
C        0.42303587       1.23265287       0.47649268
C        0.47863098       2.43929430       0.42335536
C        1.72613407      -1.41278727      -0.28138402
N        2.59612834      -2.15935756      -0.15336958
H       -1.58193592       0.64996375      -1.01375635
H       -1.70744437      -0.43642147       1.12392382
H       -1.05241905      -1.80896225       0.28155589
H        0.90083404      -0.81468533      -1.02270606
H        0.58440134       3.49409493       0.31618728
12
Frame=10 idx=008194 GeodesicLength=0.8140247424147582 rxn_smarts="[O:1]([C:2]([C@@:3]([C:4]#[C:5][H:12])([C:6]#[N:7])[H:11])([H:9])[H:10])[H:8]>>[C:6](#[N:7])[H:11].[O:1]([C:2]([C-:3]=[C:4]=[C+:5][H:12])([H:9])[H:10])[H:8]"
O       -1.55281898      -0.31642643      -0.98905039
C       -1.06926659      -0.71351552       0.27388386
C        0.27677589      -0.14450099       0.55696374
C        0.41622362       1.24509979       0.48676279
C        0.46061839       2.45205206       0.43483897
C        1.73766737      -1.43785089      -0.28185698
N        2.59501453      -2.20126963      -0.17588393
H       -1.57076222       0.64518010      -1.02311468
H       -1.70948359      -0.42658205       1.12217641
H       -1.04961354      -1.80378506       0.29656507
H        0.89991918      -0.80394178      -1.01585401
H        0.56572593       3.50554039       0.31456916
12
Frame=11 idx=008194 GeodesicLength=0.8935415878241101 rxn_smarts="[O:1]([C:2]([C@@:3]([C:4]#[C:5][H:12])([C:6]#[N:7])[H:11])([H:9])[H:10])[H:8]>>[C:6](#[N:7])[H:11].[O:1]([C:2]([C-:3]=[C:4]=[C+:5][H:12])([H:9])[H:10])[H:8]"
O       -1.53841402      -0.32100096      -0.99268444
C       -1.06690897      -0.70856664       0.27781607
C        0.28109123      -0.13539847       0.54909993
C        0.40831264       1.25752880       0.49785614
C        0.44266307       2.46458315       0.44553704
C        1.74877670      -1.46325312      -0.28184686
N        2.59455563      -2.24124273      -0.19873525
H       -1.56007766       0.64041897      -1.03200281
H       -1.71202404      -0.41772896       1.12027015
H       -1.04659307      -1.79865894       0.31099274
H        0.89918796      -0.79307615      -1.00866289
H        0.54943051       3.51639505       0.31236018
12
Frame=12 idx=008194 GeodesicLength=0.9728755552215516 rxn_smarts="[O:1]([C:2]([C@@:3]([C:4]#[C:5][H:12])([C:6]#[N:7])[H:11])([H:9])[H:10])[H:8]>>[C:6](#[N:7])[H:11].[O:1]([C:2]([C-:3]=[C:4]=[C+:5][H:12])([H:9])[H:10])[H:8]"
O       -1.52414730      -0.32554434      -0.99613357
C       -1.06457954      -0.70369537       0.28165611
C        0.28509316      -0.12596321       0.54140336
C        0.39951149       1.27002655       0.50951733
C        0.42472051       2.47703295       0.45549030
C        1.75966105      -1.48899277      -0.28142761
N        2.59419766      -2.28018497      -0.22189435
H       -1.54974638       0.63565210      -1.04055845
H       -1.71486423      -0.40965960       1.11823623
H       -1.04323642      -1.79351793       0.32502931
H        0.89874875      -0.78207798      -1.00123656
H        0.53464124       3.52692458       0.30991791
12
Frame=13 idx=008194 GeodesicLength=1.0520503499545926 rxn_smarts="[O:1]([C:2]([C@@:3]([C:4]#[C:5][H:12])([C:6]#[N:7])[H:11])([H:9])[H:10])[H:8]>>[C:6](#[N:7])[H:11].[O:1]([C:2]([C-:3]=[C:4]=[C+:5][H:12])([H:9])[H:10])[H:8]"
O       -1.50988529      -0.33010096      -0.99941914
C       -1.06215518      -0.69875474       0.28544207
C        0.28896524      -0.11613771       0.53376709
C        0.39013370       1.28260716       0.52139663
C        0.40700016       2.48945011       0.46485136
C        1.77028638      -1.51534285      -0.28058872
N        2.59369465      -2.31860076      -0.24547374
H       -1.53952034       0.63082508      -1.04899268
H       -1.71782600      -0.40198664       1.11606802
H       -1.03954120      -1.78821027       0.33892916
H        0.89863258      -0.77111269      -0.99363763
H        0.52021528       3.53736426       0.30765758
12
Frame=14 idx=008194 GeodesicLength=1.1311031292230929 rxn_smarts="[O:1]([C:2]([C@@:3]([C:4]#[C:5][H:12])([C:6]#[N:7])[H:11])([H:9])[H:10])[H:8]>>[C:6](#[N:7])[H:11].[O:1]([C:2]([C-:3]=[C:4]=[C+:5][H:12])([H:9])[H:10])[H:8]"
O       -1.49552060      -0.33467597      -1.00255861
C       -1.05954293      -0.69365346       0.28919206
C        0.29283930      -0.10589130       0.52613820
C        0.38039808       1.29528155       0.53329977
C        0.38960849       2.50188058       0.47389688
C        1.78064562      -1.54248581      -0.27931253
N        2.59282847      -2.35686598      -0.26956613
H       -1.52923188       0.62592742      -1.05741934
H       -1.72079333      -0.39448708       1.11375346
H       -1.03549188      -1.78264059       0.35283170
H        0.89888883      -0.76023853      -0.98590670
H        0.50537184       3.54784916       0.30565123
12
Frame=15 idx=008194 GeodesicLength=1.210072415040583 rxn_smarts="[O:1]([C:2]([C@@:3]([C:4]#[C:5][H:12])([C:6]#[N:7])[H:11])([H:9])[H:10])[H:8]>>[C:6](#[N:7])[H:11].[O:1]([C:2]([C-:3]=[C:4]=[C+:5][H:12])([H:9])[H:10])[H:8]"
O       -1.48091026      -0.33928222      -1.00556734
C       -1.05660469      -0.68828573       0.29292468
C        0.29689342      -0.09518019       0.51844892
C        0.37057356       1.30808301       0.54500705
C        0.37260457       2.51439303       0.48290431
C        1.79077173      -1.57059221      -0.27758615
N        2.59119669      -2.39551848      -0.29426646
H       -1.51866361       0.62093876      -1.06597015
H       -1.72359805      -0.38691322       1.11128036
H       -1.03103323      -1.77669311       0.36689371
H        0.89960957      -0.74950638      -0.97809446
H        0.48916030       3.55855676       0.30402554
12
Frame=16 idx=008194 GeodesicLength=1.2889146163054876 rxn_smarts="[O:1]([C:2]([C@@:3]([C:4]#[C:5][H:12])([C:6]#[N:7])[H:11])([H:9])[H:10])[H:8]>>[C:6](#[N:7])[H:11].[O:1]([C:2]([C-:3]=[C:4]=[C+:5][H:12])([H:9])[H:10])[H:8]"
O       -1.46629128      -0.34391393      -1.00842414
C       -1.05356356      -0.68286971       0.29659655
C        0.30080169      -0.08406208       0.51082330
C        0.36016259       1.32095288       0.55684670
C        0.35571619       2.52691304       0.49166562
C        1.80062257      -1.59939525      -0.27533030
N        2.58942793      -2.43355781      -0.31944599
H       -1.50822795       0.61586908      -1.07439491
H       -1.72652568      -0.37977072       1.10865508
H       -1.02620173      -1.77059622       0.38081796
H        0.90060645      -0.73871588      -0.97013801
H        0.47347277       3.56914661       0.30232815
