15
Frame=0 idx=009124 GeodesicLength=0.0 rxn_smarts="[C:1]([C:2](=[O:3])[C:4]1([O:5][H:11])[C:6]([H:12])([H:13])[C:7]1([H:14])[H:15])([H:8])([H:9])[H:10]>>[C:1](=[C:2]=[O:3])([H:9])[H:10].[C:4]1([O:5][H:11])([H:8])[C:6]([H:12])([H:13])[C:7]1([H:14])[H:15]"
C        1.64654792       0.34917469      -1.07136843
C        1.38079680      -0.13654493       0.18981725
O        2.00684437      -0.63337835       1.10655242
C       -0.30691160      -0.36769169       0.42380934
O       -0.46275883      -1.36916295       1.34244170
C       -1.49655967      -0.09601106      -0.49177174
C       -1.11985411       0.89664439       0.55011764
H        0.46469780      -0.69645705      -0.66464166
H        0.87378774       0.87648530      -1.61422556
H        2.66592895       0.42924079      -1.42566753
H        0.39577793      -1.40721472       1.80469137
H       -2.33767889      -0.74956837      -0.30344107
H       -1.32056492       0.14017905      -1.53400311
H       -0.66460502       1.82812985       0.24170848
H       -1.72544847       0.93617506       1.44598089
15
Frame=1 idx=009124 GeodesicLength=0.12151977636429712 rxn_smarts="[C:1]([C:2](=[O:3])[C:4]1([O:5][H:11])[C:6]([H:12])([H:13])[C:7]1([H:14])[H:15])([H:8])([H:9])[H:10]>>[C:1](=[C:2]=[O:3])([H:9])[H:10].[C:4]1([O:5][H:11])([H:8])[C:6]([H:12])([H:13])[C:7]1([H:14])[H:15]"
C        1.66256364       0.34897744      -1.07140127
C        1.39500224      -0.13496177       0.19199844
O        2.01227109      -0.64424256       1.10528309
C       -0.31634470      -0.37708246       0.41504234
O       -0.47312097      -1.36992679       1.34520210
C       -1.51625317      -0.10357309      -0.48348048
C       -1.11518075       0.89632664       0.54318239
H        0.46725800      -0.71420706      -0.68918619
H        0.89568950       0.87812701      -1.62108580
H        2.68742193       0.47945633      -1.39447358
H        0.38802937      -1.41609251       1.80003883
H       -2.36497386      -0.74082876      -0.27442146
H       -1.35482713       0.12280893      -1.53016514
H       -0.66594003       1.82328005       0.21270194
H       -1.70159515       0.95193860       1.45076478
15
Frame=2 idx=009124 GeodesicLength=0.24298550030678268 rxn_smarts="[C:1]([C:2](=[O:3])[C:4]1([O:5][H:11])[C:6]([H:12])([H:13])[C:7]1([H:14])[H:15])([H:8])([H:9])[H:10]>>[C:1](=[C:2]=[O:3])([H:9])[H:10].[C:4]1([O:5][H:11])([H:8])[C:6]([H:12])([H:13])[C:7]1([H:14])[H:15]"
C        1.67940386       0.34907042      -1.07085188
C        1.40962331      -0.13226598       0.19503805
O        2.01786278      -0.65506859       1.10416762
C       -0.32585913      -0.38650334       0.40599314
O       -0.48328218      -1.37065760       1.34761742
C       -1.53614970      -0.11118410      -0.47491893
C       -1.11061519       0.89577368       0.53579612
H        0.47016291      -0.73144111      -0.71470112
H        0.91886940       0.88094004      -1.62703396
H        2.70656569       0.52750064      -1.36342793
H        0.38033984      -1.42505619       1.79501191
H       -2.39180349      -0.73174522      -0.24485278
H       -1.38985519       0.10522038      -1.52585317
H       -0.66808154       1.81797831       0.18333142
H       -1.67718137       0.96743868       1.45468411
15
Frame=3 idx=009124 GeodesicLength=0.3644089937323272 rxn_smarts="[C:1]([C:2](=[O:3])[C:4]1([O:5][H:11])[C:6]([H:12])([H:13])[C:7]1([H:14])[H:15])([H:8])([H:9])[H:10]>>[C:1](=[C:2]=[O:3])([H:9])[H:10].[C:4]1([O:5][H:11])([H:8])[C:6]([H:12])([H:13])[C:7]1([H:14])[H:15]"
C        1.69702208       0.34958203      -1.06962525
C        1.42464395      -0.12836030       0.19901880
O        2.02359605      -0.66578867       1.10321575
C       -0.33547612      -0.39595848       0.39664207
O       -0.49323958      -1.37136981       1.34966785
C       -1.55628703      -0.11885191      -0.46605487
C       -1.10620775       0.89497027       0.52796622
H        0.47341034      -0.74807226      -0.74127645
H        0.94328502       0.88496851      -1.63203822
H        2.72376018       0.57306292      -1.33273885
H        0.37271347      -1.43410586       1.78958512
H       -2.41816581      -0.72234486      -0.21470291
H       -1.42571441       0.08742052      -1.52100997
H       -0.67108373       1.81220952       0.15362722
H       -1.65225666       0.98263838       1.45772351
15
Frame=4 idx=009124 GeodesicLength=0.4857937328645646 rxn_smarts="[C:1]([C:2](=[O:3])[C:4]1([O:5][H:11])[C:6]([H:12])([H:13])[C:7]1([H:14])[H:15])([H:8])([H:9])[H:10]>>[C:1](=[C:2]=[O:3])([H:9])[H:10].[C:4]1([O:5][H:11])([H:8])[C:6]([H:12])([H:13])[C:7]1([H:14])[H:15]"
C        1.71535328       0.35060318      -1.06764304
C        1.44004305      -0.12315373       0.20401938
O        2.02944008      -0.67631510       1.10243897
C       -0.34521965      -0.40545586       0.38696792
O       -0.50299105      -1.37207533       1.35133684
C       -1.57670407      -0.12658594      -0.45685318
C       -1.10200489       0.89390160       0.51969703
H        0.47698465      -0.76402702      -0.76901045
H        0.96888960       0.89025385      -1.63606322
H        2.73943633       0.61588332      -1.30258207
H        0.36515957      -1.44324843       1.78372344
H       -2.44406124      -0.71265263      -0.18393600
H       -1.46247256       0.06940938      -1.51557403
H       -0.67498831       1.80595373       0.12361445
H       -1.62686479       0.99750897       1.45986397
15
Frame=5 idx=009124 GeodesicLength=0.6071270358645381 rxn_smarts="[C:1]([C:2](=[O:3])[C:4]1([O:5][H:11])[C:6]([H:12])([H:13])[C:7]1([H:14])[H:15])([H:8])([H:9])[H:10]>>[C:1](=[C:2]=[O:3])([H:9])[H:10].[C:4]1([O:5][H:11])([H:8])[C:6]([H:12])([H:13])[C:7]1([H:14])[H:15]"
C        1.73431890       0.35216298      -1.06485073
C        1.45579635      -0.11658247       0.21010993
O        2.03536083      -0.68657594       1.10184210
C       -0.35511432      -0.41500915       0.37694930
O       -0.51254154      -1.37277871       1.35261910
C       -1.59743432      -0.13439385      -0.44727452
C       -1.09803558       0.89255549       0.51098191
H        0.48085113      -0.77925449      -0.79801106
H        0.99563731       0.89679846      -1.63908267
H        2.75399872       0.65585389      -1.27306593
H        0.35768077      -1.45249594       1.77739215
H       -2.46948665      -0.70268103      -0.15250200
H       -1.50019174       0.05117938      -1.50947915
H       -0.67980746       1.79918229       0.09329858
H       -1.60103240       1.01203910       1.46107300
15
Frame=6 idx=009124 GeodesicLength=0.7284183499796107 rxn_smarts="[C:1]([C:2](=[O:3])[C:4]1([O:5][H:11])[C:6]([H:12])([H:13])[C:7]1([H:14])[H:15])([H:8])([H:9])[H:10]>>[C:1](=[C:2]=[O:3])([H:9])[H:10].[C:4]1([O:5][H:11])([H:8])[C:6]([H:12])([H:13])[C:7]1([H:14])[H:15]"
C        1.75383681       0.35427976      -1.06119679
C        1.47188345      -0.10856968       0.21736667
O        2.04132082      -0.69645532       1.10144812
C       -0.36518655      -0.42463381       0.36656340
O       -0.52189012      -1.37349025       1.35350464
C       -1.61851286      -0.14228461      -0.43728103
C       -1.09433791       0.89091970       0.50181715
H        0.48497350      -0.79370613      -0.82839526
H        1.02348420       0.90462907      -1.64105282
H        2.76786964       0.69281829      -1.24431400
H        0.35029308      -1.46186980       1.77054393
H       -2.49444078      -0.69244777      -0.12035997
H       -1.53893549       0.03272682      -1.50265676
H       -0.68555860       1.79187051       0.06269372
H       -1.57479917       1.02621323       1.46131900
15
Frame=7 idx=009124 GeodesicLength=0.8496573371196778 rxn_smarts="[C:1]([C:2](=[O:3])[C:4]1([O:5][H:11])[C:6]([H:12])([H:13])[C:7]1([H:14])[H:15])([H:8])([H:9])[H:10]>>[C:1](=[C:2]=[O:3])([H:9])[H:10].[C:4]1([O:5][H:11])([H:8])[C:6]([H:12])([H:13])[C:7]1([H:14])[H:15]"
C        1.77381615       0.35691645      -1.05664714
C        1.48828300      -0.09906454       0.22586029
O        2.04727996      -0.70584921       1.10128348
C       -0.37546066      -0.43435056       0.35578677
O       -0.53104045      -1.37421387       1.35399113
C       -1.63996302      -0.15026202      -0.42683208
C       -1.09092773       0.88898327       0.49218801
H        0.48929759      -0.80734921      -0.86029351
H        1.05238846       0.91371950      -1.64194284
H        2.78139659       0.72676399      -1.21638056
H        0.34300493      -1.47140015       1.76312800
H       -2.51891127      -0.68195329      -0.08745860
H       -1.57875570       0.01404651      -1.49503389
H       -0.69222460       1.78398303       0.03179509
H       -1.54818326       1.04003011       1.46055586
15
Frame=8 idx=009124 GeodesicLength=0.9708459994602595 rxn_smarts="[C:1]([C:2](=[O:3])[C:4]1([O:5][H:11])[C:6]([H:12])([H:13])[C:7]1([H:14])[H:15])([H:8])([H:9])[H:10]>>[C:1](=[C:2]=[O:3])([H:9])[H:10].[C:4]1([O:5][H:11])([H:8])[C:6]([H:12])([H:13])[C:7]1([H:14])[H:15]"
C        1.79416523       0.36002384      -1.05116974
C        1.50497740      -0.08800966       0.23566607
O        2.05319199      -0.71461691       1.10140072
C       -0.38596092      -0.44418262       0.34459433
O       -0.53999066      -1.37495850       1.35407079
C       -1.66180392      -0.15832842      -0.41588702
C       -1.08782145       0.88673484       0.48208103
H        0.49376355      -0.82015023      -0.89385031
H        1.08231014       0.92404223      -1.64171622
H        2.79490672       0.75766067      -1.18931936
H        0.33583372      -1.48112825       1.75507752
H       -2.54288123      -0.67119675      -0.05375263
H       -1.61970117      -0.00486152      -1.48653302
H       -0.69978239       1.77548528       0.00060157
H       -1.52120700       1.05348600       1.45873626
15
Frame=9 idx=009124 GeodesicLength=1.0919691361640584 rxn_smarts="[C:1]([C:2](=[O:3])[C:4]1([O:5][H:11])[C:6]([H:12])([H:13])[C:7]1([H:14])[H:15])([H:8])([H:9])[H:10]>>[C:1](=[C:2]=[O:3])([H:9])[H:10].[C:4]1([O:5][H:11])([H:8])[C:6]([H:12])([H:13])[C:7]1([H:14])[H:15]"
C        1.81477643       0.36352423      -1.04472960
C        1.52195019      -0.07535044       0.24686325
O        2.05901445      -0.72258845       1.10186896
C       -0.39670700      -0.45415372       0.33295823
O       -0.54872993      -1.37573474       1.35373103
C       -1.68403983      -0.16647754      -0.40441076
C       -1.08502545       0.88415997       0.47148057
H        0.49830106      -0.83207468      -0.92922624
H        1.11320567       0.93554144      -1.64033646
H        2.80865866       0.78549178      -1.16316344
H        0.32879860      -1.49109700       1.74632606
H       -2.56631330      -0.66017135      -0.01920720
H       -1.66180501      -0.02397440      -1.47707773
H       -0.70819708       1.76633806      -0.03088474
H       -1.49388747       1.06656685       1.45580805
15
Frame=10 idx=009124 GeodesicLength=1.2130346063567656 rxn_smarts="[C:1]([C:2](=[O:3])[C:4]1([O:5][H:11])[C:6]([H:12])([H:13])[C:7]1([H:14])[H:15])([H:8])([H:9])[H:10]>>[C:1](=[C:2]=[O:3])([H:9])[H:10].[C:4]1([O:5][H:11])([H:8])[C:6]([H:12])([H:13])[C:7]1([H:14])[H:15]"
C        1.83554928       0.36734490      -1.03729381
C        1.53918846      -0.06101972       0.25953691
O        2.06469124      -0.72956090       1.10280427
C       -0.40772000      -0.46429063       0.32085103
O       -0.55724506      -1.37655871       1.35295573
C       -1.70667266      -0.17470780      -0.39236266
C       -1.08254883       0.88124404       0.46037328
H        0.50283415      -0.84306814      -0.96660587
H        1.14504275       0.94817255      -1.63775960
H        2.82290212       0.81019998      -1.13796526
H        0.32192866      -1.50136993       1.73677548
H       -2.58916995      -0.64887123       0.01621829
H       -1.70510000      -0.04327882      -1.46658240
H       -0.71742511       1.75650232      -0.06266323
H       -1.46625507       1.07926208       1.45171783
15
Frame=11 idx=009124 GeodesicLength=1.3340364787844776 rxn_smarts="[C:1]([C:2](=[O:3])[C:4]1([O:5][H:11])[C:6]([H:12])([H:13])[C:7]1([H:14])[H:15])([H:8])([H:9])[H:10]>>[C:1](=[C:2]=[O:3])([H:9])[H:10].[C:4]1([O:5][H:11])([H:8])[C:6]([H:12])([H:13])[C:7]1([H:14])[H:15]"
C        1.85636715       0.37138988      -1.02882501
C        1.55668042      -0.04494986       0.27377412
O        2.07016754      -0.73529958       1.10435312
C       -0.41901706      -0.47462117       0.30824171
O       -0.56551101      -1.37744985       1.35172138
C       -1.72969123      -0.18301063      -0.37970579
C       -1.08039103       0.87796901       0.44874469
H        0.50727224      -0.85306237      -1.00619821
H        1.17778630       0.96186016      -1.63394569
H        2.83782581       0.83172836      -1.11375603
H        0.31525844      -1.51201174       1.72632029
H       -2.61139471      -0.63728571       0.05255676
H       -1.74960704      -0.06274248      -1.45495970
H       -0.72741194       1.74593434      -0.09473190
H       -1.43833387       1.09155164       1.44641025
15
Frame=12 idx=009124 GeodesicLength=1.454974232693544 rxn_smarts="[C:1]([C:2](=[O:3])[C:4]1([O:5][H:11])[C:6]([H:12])([H:13])[C:7]1([H:14])[H:15])([H:8])([H:9])[H:10]>>[C:1](=[C:2]=[O:3])([H:9])[H:10].[C:4]1([O:5][H:11])([H:8])[C:6]([H:12])([H:13])[C:7]1([H:14])[H:15]"
C        1.87710458       0.37555320      -1.01928318
C        1.57441586      -0.02706292       0.28966303
O        2.07538280      -0.73952843       1.10670453
C       -0.43061369      -0.48517496       0.29509598
O       -0.57349101      -1.37843839       1.34999421
C       -1.75307442      -0.19137429      -0.36640569
C       -1.07855048       0.87431423       0.43658550
H        0.51151368      -0.86196697      -1.04824201
H        1.21140462       0.97651431      -1.62885812
H        2.85358456       0.84997746      -1.09057153
H        0.30883027      -1.52308369       1.71484732
H       -2.63291721      -0.62540923       0.08983256
H       -1.79533604      -0.08231652      -1.44212018
H       -0.73809941       1.73459315      -0.12707950
H       -1.41015411       1.10340304       1.43983707
15
Frame=13 idx=009124 GeodesicLength=1.5758463023488267 rxn_smarts="[C:1]([C:2](=[O:3])[C:4]1([O:5][H:11])[C:6]([H:12])([H:13])[C:7]1([H:14])[H:15])([H:8])([H:9])[H:10]>>[C:1](=[C:2]=[O:3])([H:9])[H:10].[C:4]1([O:5][H:11])([H:8])[C:6]([H:12])([H:13])[C:7]1([H:14])[H:15]"
C        1.89762672       0.37971800      -1.00862472
C        1.59238526      -0.00727331       0.30729024
O        2.08026746      -0.74194172       1.11009657
C       -0.44252386      -0.49598405       0.28137601
O       -0.58113564      -1.37956205       1.34773018
C       -1.77679156      -0.19978549      -0.35242816
C       -1.07702061       0.87025511       0.42388925
H        0.51543997      -0.86965548      -1.09301074
H        1.24587042       0.99202042      -1.62246798
H        2.87029296       0.86482115      -1.06843959
H        0.30269676      -1.53464058       1.70222937
H       -2.65365387      -0.61323784       0.12806623
H       -1.84228786      -0.10194505      -1.42796930
H       -0.74942075       1.72243516      -0.15969146
H       -1.38174539       1.11477571       1.43195409
15
Frame=14 idx=009124 GeodesicLength=1.6966555827871852 rxn_smarts="[C:1]([C:2](=[O:3])[C:4]1([O:5][H:11])[C:6]([H:12])([H:13])[C:7]1([H:14])[H:15])([H:8])([H:9])[H:10]>>[C:1](=[C:2]=[O:3])([H:9])[H:10].[C:4]1([O:5][H:11])([H:8])[C:6]([H:12])([H:13])[C:7]1([H:14])[H:15]"
C        1.91778712       0.38375316      -0.99680415
C        1.61057929       0.01451518       0.32673562
O        2.08474490      -0.74219742       1.11481316
C       -0.45475978      -0.50708343       0.26703848
O       -0.58838014      -1.38087606       1.34486921
C       -1.80080059      -0.20822964      -0.33774368
C       -1.07579358       0.86576248       0.41065721
H        0.51891664      -0.87595815      -1.14081861
H        1.28116576       1.00824357      -1.61475464
H        2.88802719       0.87607905      -1.04738839
H        0.29691905      -1.54670668       1.68834933
H       -2.67350436      -0.60078164       0.16726786
H       -1.89044868      -0.12155229      -1.41241265
H       -0.76130906       1.70942179      -0.19253915
H       -1.35314376       1.12561009       1.42273040
15
Frame=15 idx=009124 GeodesicLength=1.8174050456368884 rxn_smarts="[C:1]([C:2](=[O:3])[C:4]1([O:5][H:11])[C:6]([H:12])([H:13])[C:7]1([H:14])[H:15])([H:8])([H:9])[H:10]>>[C:1](=[C:2]=[O:3])([H:9])[H:10].[C:4]1([O:5][H:11])([H:8])[C:6]([H:12])([H:13])[C:7]1([H:14])[H:15]"
C        1.93743033       0.38751454      -0.98377157
C        1.62898762       0.03840769       0.34806846
O        2.08872357      -0.73992744       1.12119085
C       -0.46733261      -0.51851212       0.25203423
O       -0.59514384      -1.38244904       1.34133585
C       -1.82504993      -0.21669392      -0.32232380
C       -1.07485725       0.86080121       0.39689484
H        0.52178854      -0.88063961      -1.19202480
H        1.31728505       1.02501700      -1.60571122
H        2.90682086       0.88352836      -1.02743065
H        0.29157413      -1.55927703       1.67309001
H       -2.69235424      -0.58805945       0.20744465
H       -1.93979516      -0.14105772      -1.39535189
H       -0.77369414       1.69551307      -0.22558905
H       -1.32438294       1.13583448       1.41214409
15
Frame=16 idx=009124 GeodesicLength=1.9381019142845133 rxn_smarts="[C:1]([C:2](=[O:3])[C:4]1([O:5][H:11])[C:6]([H:12])([H:13])[C:7]1([H:14])[H:15])([H:8])([H:9])[H:10]>>[C:1](=[C:2]=[O:3])([H:9])[H:10].[C:4]1([O:5][H:11])([H:8])[C:6]([H:12])([H:13])[C:7]1([H:14])[H:15]"
C        1.95639194       0.39083996      -0.96947525
C        1.64759757       0.06452025       0.37133971
O        2.09209436      -0.73473454       1.12961402
C       -0.48025277      -0.53031489       0.23630623
O       -0.60132969      -1.38437207       1.33703358
C       -1.84947699      -0.22516929      -0.30614475
C       -1.07419726       0.85532876       0.38261528
H        0.52388084      -0.88338453      -1.24703637
H        1.35424185       1.04213937      -1.59534846
H        2.92666315       0.88688684      -1.00856489
H        0.28675541      -1.57229229       1.65635808
H       -2.71007250      -0.57510896       0.24859649
H       -1.99028985      -0.16036729      -1.37668874
H       -0.78650901       1.68067297      -0.25879468
H       -1.29549707       1.14535572       1.40018974
