13
Frame=0 idx=006836 GeodesicLength=0.0 rxn_smarts="[N:1]([c:2]1[c:3]([H:10])[n:4]([H:11])[c:5]([O:6][H:12])[c:7]1[H:13])([H:8])[H:9]>>[N:1]([C@@:2]1([H:10])[C:3][N:4]([H:11])[C:5]([O:6][H:12])=[C:7]1[H:13])([H:8])[H:9]"
N       -2.09434480       0.52072390      -0.65755629
C       -0.87104022       0.00734051      -0.18250688
C       -0.40812376      -1.33058088      -0.51303858
N        0.92327788      -1.23446530      -0.20312545
C        1.32135139       0.02101617       0.18665064
O        2.62045470       0.18268517       0.48604997
C        0.25771006       0.85177818       0.20876898
H       -2.66649550      -0.21606296      -1.04465238
H       -2.61014863       1.04785253       0.03040399
H       -1.04011250      -0.82441313       0.70301388
H        1.54520327      -2.02369929      -0.19695480
H        2.78093901       1.09606666       0.73119367
H        0.24132916       1.90175848       0.45175319
13
Frame=1 idx=006836 GeodesicLength=0.049167642351262156 rxn_smarts="[N:1]([c:2]1[c:3]([H:10])[n:4]([H:11])[c:5]([O:6][H:12])[c:7]1[H:13])([H:8])[H:9]>>[N:1]([C@@:2]1([H:10])[C:3][N:4]([H:11])[C:5]([O:6][H:12])=[C:7]1[H:13])([H:8])[H:9]"
N       -2.08960171       0.52407598      -0.66307825
C       -0.87364594       0.00537971      -0.17229087
C       -0.40543108      -1.32713345      -0.51115087
N        0.92556659      -1.23322443      -0.20411558
C        1.32141568       0.02175257       0.19159064
O        2.62269576       0.18626596       0.48106501
C        0.25476953       0.84819540       0.22422942
H       -2.66585323      -0.21229843      -1.04482599
H       -2.60574924       1.06028623       0.01766538
H       -1.05601209      -0.85346397       0.70393367
H        1.54661809      -2.02316004      -0.19325600
H        2.78501450       1.10286503       0.71254758
H        0.24021314       1.90045944       0.45768584
13
Frame=2 idx=006836 GeodesicLength=0.098317170046627 rxn_smarts="[N:1]([c:2]1[c:3]([H:10])[n:4]([H:11])[c:5]([O:6][H:12])[c:7]1[H:13])([H:8])[H:9]>>[N:1]([C@@:2]1([H:10])[C:3][N:4]([H:11])[C:5]([O:6][H:12])=[C:7]1[H:13])([H:8])[H:9]"
N       -2.08488373       0.52724159      -0.66818586
C       -0.87626606       0.00341619      -0.16205019
C       -0.40288096      -1.32378000      -0.50878874
N        0.92784931      -1.23189282      -0.20530569
C        1.32170066       0.02285471       0.19515934
O        2.62465645       0.18974240       0.47693907
C        0.25209650       0.84488778       0.23837332
H       -2.66551215      -0.20865427      -1.04416934
H       -2.60090797       1.07271149       0.00535483
H       -1.07164380      -0.88257454       0.70441267
H        1.54808819      -2.02245781      -0.18991137
H        2.78842887       1.10918705       0.69570321
H        0.23927471       1.89931823       0.46246875
13
Frame=3 idx=006836 GeodesicLength=0.14745179640610862 rxn_smarts="[N:1]([c:2]1[c:3]([H:10])[n:4]([H:11])[c:5]([O:6][H:12])[c:7]1[H:13])([H:8])[H:9]>>[N:1]([C@@:2]1([H:10])[C:3][N:4]([H:11])[C:5]([O:6][H:12])=[C:7]1[H:13])([H:8])[H:9]"
N       -2.08027084       0.53015621      -0.67284866
C       -0.87889935       0.00147058      -0.15181164
C       -0.40050756      -1.32054618      -0.50590055
N        0.93011579      -1.23046190      -0.20678082
C        1.32223061       0.02438877       0.19710644
O        2.62642882       0.19314100       0.47332837
C        0.24973701       0.84194570       0.25094288
H       -2.66556492      -0.20523299      -1.04252810
H       -2.59565759       1.08510751      -0.00650361
H       -1.08692858      -0.91165607       0.70454593
H        1.54959516      -2.02159169      -0.18692023
H        2.79117059       1.11485513       0.68150512
H        0.23855086       1.89842392       0.46586487
13
Frame=4 idx=006836 GeodesicLength=0.19659632886234332 rxn_smarts="[N:1]([c:2]1[c:3]([H:10])[n:4]([H:11])[c:5]([O:6][H:12])[c:7]1[H:13])([H:8])[H:9]>>[N:1]([C@@:2]1([H:10])[C:3][N:4]([H:11])[C:5]([O:6][H:12])=[C:7]1[H:13])([H:8])[H:9]"
N       -2.07559306       0.53296980      -0.67726614
C       -0.88155740      -0.00047188      -0.14148103
C       -0.39825196      -1.31737737      -0.50260807
N        0.93231795      -1.22900737      -0.20816048
C        1.32285970       0.02616696       0.19830598
O        2.62810660       0.19657329       0.46990564
C        0.24757230       0.83922186       0.26266087
H       -2.66571573      -0.20175788      -1.04053567
H       -2.59006857       1.09743091      -0.01813788
H       -1.10223953      -0.94098283       0.70409724
H        1.55108080      -2.02064625      -0.18390197
H        2.79363535       1.12032687       0.66810976
H        0.23785355       1.89755391       0.46901176
13
Frame=5 idx=006836 GeodesicLength=0.2456909038737662 rxn_smarts="[N:1]([c:2]1[c:3]([H:10])[n:4]([H:11])[c:5]([O:6][H:12])[c:7]1[H:13])([H:8])[H:9]>>[N:1]([C@@:2]1([H:10])[C:3][N:4]([H:11])[C:5]([O:6][H:12])=[C:7]1[H:13])([H:8])[H:9]"
N       -2.07108615       0.53549081      -0.68122379
C       -0.88422676      -0.00237172      -0.13114244
C       -0.39617655      -1.31430764      -0.49880497
N        0.93449280      -1.22743547      -0.20987437
C        1.32371088       0.02839039       0.19786624
O        2.62958027       0.19981383       0.46726280
C        0.24572534       0.83691169       0.27275273
H       -2.66630710      -0.19854617      -1.03748937
H       -2.58413827       1.10968461      -0.02933430
H       -1.11720305      -0.97029162       0.70330454
H        1.55260948      -2.01950652      -0.18131834
H        2.79563835       1.12516281       0.65733542
H        0.23738076       1.89700500       0.47066584
13
Frame=6 idx=006836 GeodesicLength=0.2948097718751022 rxn_smarts="[N:1]([c:2]1[c:3]([H:10])[n:4]([H:11])[c:5]([O:6][H:12])[c:7]1[H:13])([H:8])[H:9]>>[N:1]([C@@:2]1([H:10])[C:3][N:4]([H:11])[C:5]([O:6][H:12])=[C:7]1[H:13])([H:8])[H:9]"
N       -2.06621884       0.53814822      -0.68521000
C       -0.88693511      -0.00430512      -0.12054671
C       -0.39412319      -1.31122798      -0.49472771
N        0.93653818      -1.22597715      -0.21087003
C        1.32445696       0.03055157       0.19795581
O        2.63123867       0.20346601       0.46337712
C        0.24388622       0.83455068       0.28310672
H       -2.66652726      -0.19484709      -1.03500554
H       -2.57791083       1.12184863      -0.04064016
H       -1.13274788      -1.00025383       0.70150041
H        1.55400704      -2.01845401      -0.17793705
H        2.79765498       1.13036187       0.64535672
H        0.23668106       1.89613820       0.47364041
13
Frame=7 idx=006836 GeodesicLength=0.34396022686682787 rxn_smarts="[N:1]([c:2]1[c:3]([H:10])[n:4]([H:11])[c:5]([O:6][H:12])[c:7]1[H:13])([H:8])[H:9]>>[N:1]([C@@:2]1([H:10])[C:3][N:4]([H:11])[C:5]([O:6][H:12])=[C:7]1[H:13])([H:8])[H:9]"
N       -2.06101023       0.54092287      -0.68917559
C       -0.88968559      -0.00627705      -0.10970011
C       -0.39209450      -1.30814583      -0.49038669
N        0.93846965      -1.22462174      -0.21122037
C        1.32511587       0.03267432       0.19849179
O        2.63299623       0.20745107       0.45867924
C        0.24206255       0.83215572       0.29367579
H       -2.66642034      -0.19070501      -1.03298421
H       -2.57136226       1.13393757      -0.05198687
H       -1.14884139      -1.03087276       0.69860401
H        1.55529059      -2.01747768      -0.17383768
H        2.79967849       1.13593128       0.63206822
H        0.23580092       1.89502723       0.47777247
13
Frame=8 idx=006836 GeodesicLength=0.39311346738563335 rxn_smarts="[N:1]([c:2]1[c:3]([H:10])[n:4]([H:11])[c:5]([O:6][H:12])[c:7]1[H:13])([H:8])[H:9]>>[N:1]([C@@:2]1([H:10])[C:3][N:4]([H:11])[C:5]([O:6][H:12])=[C:7]1[H:13])([H:8])[H:9]"
N       -2.05559556       0.54370617      -0.69297419
C       -0.89246969      -0.00826387      -0.09865059
C       -0.39013006      -1.30508634      -0.48570655
N        0.94031145      -1.22331649      -0.21117576
C        1.32576818       0.03488378       0.19892147
O        2.63478026       0.21163860       0.45350183
C        0.24033083       0.82984424       0.30400114
H       -2.66617788      -0.18630521      -1.03101480
H       -2.56448948       1.14593901      -0.06320692
H       -1.16526150      -1.06198497       0.69470822
H        1.55649541      -2.01651346      -0.16926759
H        2.80156674       1.14160068       0.61857833
H        0.23487131       1.89385786       0.48228541
13
Frame=9 idx=006836 GeodesicLength=0.4422647787198869 rxn_smarts="[N:1]([c:2]1[c:3]([H:10])[n:4]([H:11])[c:5]([O:6][H:12])[c:7]1[H:13])([H:8])[H:9]>>[N:1]([C@@:2]1([H:10])[C:3][N:4]([H:11])[C:5]([O:6][H:12])=[C:7]1[H:13])([H:8])[H:9]"
N       -2.05014413       0.54638417      -0.69645668
C       -0.89527227      -0.01021916      -0.08746128
C       -0.38828195      -1.30207619      -0.48060683
N        0.94208112      -1.22199746      -0.21101347
C        1.32649660       0.03732625       0.19866249
O        2.63649921       0.21583106       0.44839473
C        0.23878536       0.82777875       0.31355368
H       -2.66599384      -0.18184662      -1.02872428
H       -2.55735338       1.15777398      -0.07409581
H       -1.18177154      -1.09339802       0.68997129
H        1.55765522      -2.01548594      -0.16453783
H        2.80327172       1.14709184       0.60591622
H        0.23402788       1.89283734       0.48639777
13
Frame=10 idx=006836 GeodesicLength=0.49142606075770273 rxn_smarts="[N:1]([c:2]1[c:3]([H:10])[n:4]([H:11])[c:5]([O:6][H:12])[c:7]1[H:13])([H:8])[H:9]>>[N:1]([C@@:2]1([H:10])[C:3][N:4]([H:11])[C:5]([O:6][H:12])=[C:7]1[H:13])([H:8])[H:9]"
N       -2.04459870       0.54900882      -0.69966186
C       -0.89809478      -0.01214933      -0.07609892
C       -0.38653045      -1.29910357      -0.47511493
N        0.94376898      -1.22069292      -0.21061224
C        1.32726144       0.03994229       0.19797583
O        2.63818434       0.22008419       0.44321311
C        0.23738671       0.82590571       0.32258369
H       -2.66576938      -0.17724795      -1.02629915
H       -2.54997002       1.16942977      -0.08468109
H       -1.19849020      -1.12520134       0.68423519
H        1.55874832      -2.01443063      -0.15949048
H        2.80486834       1.15253651       0.59354982
H        0.23323541       1.89191845       0.49040104
13
Frame=11 idx=006836 GeodesicLength=0.5405697006495797 rxn_smarts="[N:1]([c:2]1[c:3]([H:10])[n:4]([H:11])[c:5]([O:6][H:12])[c:7]1[H:13])([H:8])[H:9]>>[N:1]([C@@:2]1([H:10])[C:3][N:4]([H:11])[C:5]([O:6][H:12])=[C:7]1[H:13])([H:8])[H:9]"
N       -2.03909407       0.55148412      -0.70248024
C       -0.90092160      -0.01401853      -0.06460239
C       -0.38490947      -1.29618032      -0.46916377
N        0.94538699      -1.21935388      -0.21017760
C        1.32811740       0.04282973       0.19641583
O        2.63980833       0.22428228       0.43815770
C        0.23619900       0.82433161       0.33071362
H       -2.66567052      -0.17266797      -1.02340511
H       -2.54237999       1.18087618      -0.09484646
H       -1.21524329      -1.15725493       0.67760993
H        1.55979813      -2.01328648      -0.15433393
H        2.80631226       1.15770770       0.58246815
H        0.23259682       1.89125049       0.49364426
13
Frame=12 idx=006836 GeodesicLength=0.589702738164644 rxn_smarts="[N:1]([c:2]1[c:3]([H:10])[n:4]([H:11])[c:5]([O:6][H:12])[c:7]1[H:13])([H:8])[H:9]>>[N:1]([C@@:2]1([H:10])[C:3][N:4]([H:11])[C:5]([O:6][H:12])=[C:7]1[H:13])([H:8])[H:9]"
N       -2.03376992       0.55371348      -0.70482672
C       -0.90373264      -0.01578318      -0.05301514
C       -0.38346182      -1.29333635      -0.46270213
N        0.94693900      -1.21793855      -0.20992483
C        1.32911757       0.04609672       0.19355920
O        2.64134173       0.22829720       0.43351693
C        0.23529326       0.82318770       0.33757625
H       -2.66586471      -0.16828032      -1.01974362
H       -2.53463986       1.19207840      -0.10449080
H       -1.23186734      -1.18943416       0.67024046
H        1.56081452      -2.01200959      -0.14928887
H        2.80761610       1.16240415       0.57352852
H        0.23221410       1.89100450       0.49557075
13
Frame=13 idx=006836 GeodesicLength=0.6388056326964394 rxn_smarts="[N:1]([c:2]1[c:3]([H:10])[n:4]([H:11])[c:5]([O:6][H:12])[c:7]1[H:13])([H:8])[H:9]>>[N:1]([C@@:2]1([H:10])[C:3][N:4]([H:11])[C:5]([O:6][H:12])=[C:7]1[H:13])([H:8])[H:9]"
N       -2.02833403       0.55593548      -0.70688026
C       -0.90654096      -0.01749260      -0.04121571
C       -0.38208476      -1.29049789      -0.45580382
N        0.94840361      -1.21654797      -0.20931662
C        1.33011171       0.04948529       0.19043652
O        2.64287236       0.23238771       0.42858634
C        0.23449996       0.82219426       0.34412044
H       -2.66590527      -0.16368498      -1.01609383
H       -2.52674114       1.20302475      -0.11378507
H       -1.24877944      -1.22203123       0.66160569
H        1.56174784      -2.01070963      -0.14372566
H        2.80888859       1.16711644       0.56457152
H        0.23186154       1.89082037       0.49750046
13
Frame=14 idx=006836 GeodesicLength=0.6879241513426246 rxn_smarts="[N:1]([c:2]1[c:3]([H:10])[n:4]([H:11])[c:5]([O:6][H:12])[c:7]1[H:13])([H:8])[H:9]>>[N:1]([C@@:2]1([H:10])[C:3][N:4]([H:11])[C:5]([O:6][H:12])=[C:7]1[H:13])([H:8])[H:9]"
N       -2.02288124       0.55807194      -0.70858772
C       -0.90933894      -0.01912378      -0.02922748
C       -0.38082222      -1.28770913      -0.44842061
N        0.94978136      -1.21516308      -0.20850818
C        1.33114283       0.05306717       0.18676966
O        2.64439305       0.23648753       0.42355079
C        0.23387418       0.82144352       0.35011397
H       -2.66593489      -0.15903319      -1.01222056
H       -2.51870249       1.21372746      -0.12267384
H       -1.26588986      -1.25497255       0.65177267
H        1.56260408      -2.00936539      -0.13781772
H        2.81013631       1.17172600       0.55621926
H        0.23163782       1.89084350       0.49902977
13
Frame=15 idx=006836 GeodesicLength=0.7370443554657709 rxn_smarts="[N:1]([c:2]1[c:3]([H:10])[n:4]([H:11])[c:5]([O:6][H:12])[c:7]1[H:13])([H:8])[H:9]>>[N:1]([C@@:2]1([H:10])[C:3][N:4]([H:11])[C:5]([O:6][H:12])=[C:7]1[H:13])([H:8])[H:9]"
N       -2.01736108       0.56016245      -0.70997611
C       -0.91212361      -0.02067684      -0.01702458
C       -0.37965686      -1.28496425      -0.44052389
N        0.95106967      -1.21380204      -0.20739621
C        1.33217942       0.05679302       0.18273365
O        2.64591202       0.24063647       0.41827956
C        0.23338305       0.82088274       0.35573898
H       -2.66586881      -0.15426716      -1.00824656
H       -2.51052705       1.22418960      -0.13118807
H       -1.28326145      -1.28828688       0.64057686
H        1.56337987      -2.00799000      -0.13143780
H        2.81137239       1.17631350       0.54806692
H        0.23150243       1.89100937       0.50039725
13
Frame=16 idx=006836 GeodesicLength=0.7861680636720316 rxn_smarts="[N:1]([c:2]1[c:3]([H:10])[n:4]([H:11])[c:5]([O:6][H:12])[c:7]1[H:13])([H:8])[H:9]>>[N:1]([C@@:2]1([H:10])[C:3][N:4]([H:11])[C:5]([O:6][H:12])=[C:7]1[H:13])([H:8])[H:9]"
N       -2.01167893       0.56227577      -0.71110076
C       -0.91490260      -0.02216681      -0.00456884
C       -0.37856920      -1.28226357      -0.43209295
N        0.95226124      -1.21250264      -0.20581024
C        1.33317744       0.06058996       0.17861771
O        2.64744884       0.24491872       0.41257373
C        0.23297576       0.82042261       0.36130757
H       -2.66556906      -0.14928692      -1.00440512
H       -2.50220353       1.23442203      -0.13937825
H       -1.30101412      -1.32203880       0.62777043
H        1.56405784      -2.00661947      -0.12435870
H        2.81262229       1.18103804       0.53938854
H        0.23139402       1.89121109       0.50205688
