15
Frame=0 idx=003390 GeodesicLength=0.0 rxn_smarts="[C:1]([C@@:2]1([C:3]([O:4][H:12])([H:10])[H:11])[C:5]([H:13])([H:14])[N:6]1[H:15])([H:7])([H:8])[H:9]>>[C:1]([C:2][N:6]([C:5]([C:3]([O:4][H:12])([H:10])[H:11])([H:13])[H:14])[H:15])([H:7])([H:8])[H:9]"
C       -1.14953590      -1.16734487       0.39521447
C        0.12054450      -0.39267046       0.66112897
C        0.96946668       0.02208701      -0.93253457
O        2.30751361       0.00985035      -0.59477789
C       -0.06452359       1.26735635      -0.00764654
N       -0.13203569       0.85735578       1.35916587
H       -2.02131920      -0.56803234       0.09114566
H       -0.99978178      -1.96345730      -0.33644912
H       -1.40146472      -1.64393499       1.34695332
H        0.56615325      -0.91705576      -1.32108503
H        0.90442565       0.71220481      -1.78655142
H        2.33757713      -0.51361833       0.21793116
H       -0.99364109       1.35311285      -0.56410253
H        0.65990904       2.05366928      -0.18779607
H       -1.10328790       0.89047756       1.65940367
15
Frame=1 idx=003390 GeodesicLength=0.06773719618416411 rxn_smarts="[C:1]([C@@:2]1([C:3]([O:4][H:12])([H:10])[H:11])[C:5]([H:13])([H:14])[N:6]1[H:15])([H:7])([H:8])[H:9]>>[C:1]([C:2][N:6]([C:5]([C:3]([O:4][H:12])([H:10])[H:11])([H:13])[H:14])[H:15])([H:7])([H:8])[H:9]"
C       -1.16484150      -1.17496783       0.40044848
C        0.10687372      -0.39943391       0.64557319
C        0.97709093       0.02041840      -0.94193616
O        2.31125455       0.01878055      -0.58428982
C       -0.05957891       1.26868737      -0.01718838
N       -0.12212822       0.84538473       1.34753918
H       -2.04487716      -0.57204518       0.12991993
H       -1.03455138      -1.95773634      -0.34908972
H       -1.39048304      -1.67090493       1.34893967
H        0.59109982      -0.92543682      -1.33303018
H        0.91717855       0.69998966      -1.80434623
H        2.32970288      -0.47846314       0.24536873
H       -0.99231846       1.37321947      -0.56446175
H        0.66358807       2.05888477      -0.18620687
H       -1.08800986       0.89362319       1.66275993
15
Frame=2 idx=003390 GeodesicLength=0.13540681354422596 rxn_smarts="[C:1]([C@@:2]1([C:3]([O:4][H:12])([H:10])[H:11])[C:5]([H:13])([H:14])[N:6]1[H:15])([H:7])([H:8])[H:9]>>[C:1]([C:2][N:6]([C:5]([C:3]([O:4][H:12])([H:10])[H:11])([H:13])[H:14])[H:15])([H:7])([H:8])[H:9]"
C       -1.18008938      -1.18268294       0.40615850
C        0.09278317      -0.40567348       0.62952778
C        0.98505351       0.01893787      -0.95126437
O        2.31479113       0.02753102      -0.57296879
C       -0.05489095       1.27026031      -0.02722929
N       -0.11297280       0.83363414       1.33527210
H       -2.06797018      -0.57681976       0.17098997
H       -1.07032661      -1.95089255      -0.36152538
H       -1.37804524      -1.69884179       1.35012718
H        0.61689488      -0.93352187      -1.34477656
H        0.93125843       0.68781717      -1.82203104
H        2.32035608      -0.44455965       0.27182023
H       -0.99087758       1.39370046      -0.56512408
H        0.66700377       2.06431392      -0.18451415
H       -1.07296823       0.89679716       1.66553790
15
Frame=3 idx=003390 GeodesicLength=0.2029909463756991 rxn_smarts="[C:1]([C@@:2]1([C:3]([O:4][H:12])([H:10])[H:11])[C:5]([H:13])([H:14])[N:6]1[H:15])([H:7])([H:8])[H:9]>>[C:1]([C:2][N:6]([C:5]([C:3]([O:4][H:12])([H:10])[H:11])([H:13])[H:14])[H:15])([H:7])([H:8])[H:9]"
C       -1.19525880      -1.19049731       0.41236182
C        0.07823718      -0.41137130       0.61295743
C        0.99333421       0.01765266      -0.96051771
O        2.31806697       0.03613151      -0.56084898
C       -0.05045239       1.27209831      -0.03777585
N       -0.10460648       0.82211656       1.32235771
H       -2.09042985      -0.58245544       0.21435061
H       -1.10718670      -1.94292023      -0.37359026
H       -1.36412152      -1.72768575       1.35035939
H        0.64352223      -0.94129037      -1.35629239
H        0.94666377       0.67568201      -1.83958159
H        2.30956697      -0.41202210       0.29730744
H       -0.98930432       1.41460655      -0.56608408
H        0.67017077       2.06995416      -0.18270466
H       -1.05820205       0.90000074       1.66770111
15
Frame=4 idx=003390 GeodesicLength=0.27048679802511394 rxn_smarts="[C:1]([C@@:2]1([C:3]([O:4][H:12])([H:10])[H:11])[C:5]([H:13])([H:14])[N:6]1[H:15])([H:7])([H:8])[H:9]>>[C:1]([C:2][N:6]([C:5]([C:3]([O:4][H:12])([H:10])[H:11])([H:13])[H:14])[H:15])([H:7])([H:8])[H:9]"
C       -1.21032635      -1.19841787       0.41907008
C        0.06319131      -0.41651116       0.59582199
C        1.00191540       0.01656478      -0.96969646
O        2.32103422       0.04460336      -0.54795984
C       -0.04625664       1.27422552      -0.04883910
N       -0.09706886       0.81084340       1.30878604
H       -2.11208025      -0.58905022       0.26005051
H       -1.14523992      -1.93381453      -0.38509843
H       -1.34866964      -1.75738354       1.34941179
H        0.67096296      -0.94872960      -1.36754270
H        0.96339641       0.66357270      -1.85698142
H        2.29737174      -0.38093709       0.32187665
H       -0.98757876       1.43599040      -0.56734616
H        0.67310709       2.07580281      -0.18076872
H       -1.04375872       0.90324104       1.66921576
15
Frame=5 idx=003390 GeodesicLength=0.33784872539283756 rxn_smarts="[C:1]([C@@:2]1([C:3]([O:4][H:12])([H:10])[H:11])[C:5]([H:13])([H:14])[N:6]1[H:15])([H:7])([H:8])[H:9]>>[C:1]([C:2][N:6]([C:5]([C:3]([O:4][H:12])([H:10])[H:11])([H:13])[H:14])[H:15])([H:7])([H:8])[H:9]"
C       -1.22524005      -1.20648940       0.42626343
C        0.04760666      -0.42109083       0.57804828
C        1.01080458       0.01567521      -0.97879161
O        2.32363174       0.05288590      -0.53428713
C       -0.04229724       1.27666704      -0.06043294
N       -0.09039935       0.79982294       1.29451589
H       -2.13274850      -0.59670167       0.30823138
H       -1.18451977      -1.92360815      -0.39593125
H       -1.33179292      -1.78785139       1.34717495
H        0.69919262      -0.95580274      -1.37852609
H        0.98153058       0.65150501      -1.87412926
H        2.28380659      -0.35131824       0.34545322
H       -0.98567794       1.45790932      -0.56892138
H        0.67579023       2.08185270      -0.17869106
H       -1.02968722       0.90654428       1.67002357
15
Frame=6 idx=003390 GeodesicLength=0.4050984632600102 rxn_smarts="[C:1]([C@@:2]1([C:3]([O:4][H:12])([H:10])[H:11])[C:5]([H:13])([H:14])[N:6]1[H:15])([H:7])([H:8])[H:9]>>[C:1]([C:2][N:6]([C:5]([C:3]([O:4][H:12])([H:10])[H:11])([H:13])[H:14])[H:15])([H:7])([H:8])[H:9]"
C       -1.23998533      -1.21469987       0.43396647
C        0.03141868      -0.42507556       0.55960907
C        1.01995953       0.01498013      -0.98781059
O        2.32581618       0.06102483      -0.51989541
C       -0.03856011       1.27945229      -0.07256330
N       -0.08464156       0.78907092       1.27955694
H       -2.15220543      -0.60552545       0.35882988
H       -1.22517390      -1.91229147      -0.40583533
H       -1.31337792      -1.81903705       1.34336078
H        0.72817554      -0.96251757      -1.38918238
H        1.00101444       0.63944775      -1.89105829
H        2.26889454      -0.32326282       0.36817971
H       -0.98357111       1.48042713      -0.57080415
H        0.67827710       2.08809631      -0.17645671
H       -1.01604066       0.90991043       1.67010331
15
Frame=7 idx=003390 GeodesicLength=0.4722174265273209 rxn_smarts="[C:1]([C@@:2]1([C:3]([O:4][H:12])([H:10])[H:11])[C:5]([H:13])([H:14])[N:6]1[H:15])([H:7])([H:8])[H:9]>>[C:1]([C:2][N:6]([C:5]([C:3]([O:4][H:12])([H:10])[H:11])([H:13])[H:14])[H:15])([H:7])([H:8])[H:9]"
C       -1.25452474      -1.22306643       0.44218616
C        0.01456612      -0.42843937       0.54045141
C        1.02935130       0.01447622      -0.99674879
O        2.32752348       0.06900307      -0.50480696
C       -0.03502826       1.28261244      -0.08523847
N       -0.07984232       0.77860282       1.26389163
H       -2.17022383      -0.61563535       0.41183117
H       -1.26728829      -1.89989652      -0.41459125
H       -1.29339195      -1.85084226       1.33775648
H        0.75786621      -0.96885750      -1.39947742
H        1.02185438       0.62739058      -1.90772156
H        2.25263827      -0.29683190       0.39009416
H       -0.98121960       1.50360817      -0.57299193
H        0.68059203       2.09452406      -0.17404368
H       -1.00287280       0.91335196       1.66940904
15
Frame=8 idx=003390 GeodesicLength=0.5392090039968203 rxn_smarts="[C:1]([C@@:2]1([C:3]([O:4][H:12])([H:10])[H:11])[C:5]([H:13])([H:14])[N:6]1[H:15])([H:7])([H:8])[H:9]>>[C:1]([C:2][N:6]([C:5]([C:3]([O:4][H:12])([H:10])[H:11])([H:13])[H:14])[H:15])([H:7])([H:8])[H:9]"
C       -1.26880738      -1.23160655       0.45092598
C       -0.00302572      -0.43115645       0.52051300
C        1.03895525       0.01415929      -1.00560800
O        2.32870257       0.07680056      -0.48903632
C       -0.03168763       1.28617877      -0.09847380
N       -0.07605133       0.76842785       1.24749690
H       -2.18653697      -0.62715710       0.46727363
H       -1.31096613      -1.88646195      -0.42193664
H       -1.27185169      -1.88316089       1.33008518
H        0.78821069      -0.97481224      -1.40937565
H        1.04405995       0.61533379      -1.92408777
H        2.23505577      -0.27205941       0.41125921
H       -0.97857884       1.52751737      -0.57549789
H        0.68276824       2.10112278      -0.17143231
H       -0.99024679       0.91687419       1.66789447
15
Frame=9 idx=003390 GeodesicLength=0.6060292293336391 rxn_smarts="[C:1]([C@@:2]1([C:3]([O:4][H:12])([H:10])[H:11])[C:5]([H:13])([H:14])[N:6]1[H:15])([H:7])([H:8])[H:9]>>[C:1]([C:2][N:6]([C:5]([C:3]([O:4][H:12])([H:10])[H:11])([H:13])[H:14])[H:15])([H:7])([H:8])[H:9]"
C       -1.28274322      -1.24038454       0.46010994
C       -0.02141788      -0.43320625       0.49963497
C        1.04878645       0.01403798      -1.01438439
O        2.32925781       0.08432567      -0.47254158
C       -0.02850856       1.29019012      -0.11229241
N       -0.07332209       0.75855366       1.23028027
H       -2.20087145      -0.64022616       0.52538952
H       -1.35618615      -1.87200092      -0.42776154
H       -1.24896746      -1.91593707       1.32037393
H        0.81917785      -0.98033049      -1.41891300
H        1.06773443       0.60330333      -1.93999978
H        2.21606704      -0.24894258       0.43160005
H       -0.97557235       1.55222639      -0.57835149
H        0.68479011       2.10788764      -0.16858432
H       -0.97822452       0.92050322       1.66543982
15
Frame=10 idx=003390 GeodesicLength=0.6727106896913952 rxn_smarts="[C:1]([C@@:2]1([C:3]([O:4][H:12])([H:10])[H:11])[C:5]([H:13])([H:14])[N:6]1[H:15])([H:7])([H:8])[H:9]>>[C:1]([C:2][N:6]([C:5]([C:3]([O:4][H:12])([H:10])[H:11])([H:13])[H:14])[H:15])([H:7])([H:8])[H:9]"
C       -1.29629529      -1.24936855       0.46979786
C       -0.04073654      -0.43451890       0.47781395
C        1.05876591       0.01408603      -1.02306749
O        2.32913364       0.09155834      -0.45535441
C       -0.02547850       1.29469839      -0.12670688
N       -0.07172759       0.74902232       1.21226749
H       -2.21287040      -0.65499758       0.58600990
H       -1.40316205      -1.85656914      -0.43164923
H       -1.22447226      -1.94904092       1.30806071
H        0.85065975      -0.98544523      -1.42798065
H        1.09281939       0.59125642      -1.95549508
H        2.19567851      -0.22758286       0.45131850
H       -0.97215849       1.57782620      -0.58156420
H        0.68674375       2.11480447      -0.16549679
H       -0.96689984       0.92427100       1.66204630
15
Frame=11 idx=003390 GeodesicLength=0.739244768743323 rxn_smarts="[C:1]([C@@:2]1([C:3]([O:4][H:12])([H:10])[H:11])[C:5]([H:13])([H:14])[N:6]1[H:15])([H:7])([H:8])[H:9]>>[C:1]([C:2][N:6]([C:5]([C:3]([O:4][H:12])([H:10])[H:11])([H:13])[H:14])[H:15])([H:7])([H:8])[H:9]"
C       -1.30937039      -1.25859258       0.47998624
C       -0.06107950      -0.43503899       0.45495663
C        1.06885578       0.01429969      -1.03165060
O        2.32824309       0.09844710      -0.43746790
C       -0.02256724       1.29974811      -0.14172981
N       -0.07133111       0.73985764       1.19340912
H       -2.22217097      -0.67162163       0.64909616
H       -1.45196632      -1.84022626      -0.43332094
H       -1.19840394      -1.98233239       1.29293388
H        0.88256462      -0.99014349      -1.43654419
H        1.11932761       0.57918827      -1.97048790
H        2.17383023      -0.20802324       0.47046855
H       -0.96825532       1.60439115      -0.58514898
H        0.68867497       2.12185860      -0.16213709
H       -0.95635153       0.92818801       1.65763683
15
Frame=12 idx=003390 GeodesicLength=0.8056328596512021 rxn_smarts="[C:1]([C@@:2]1([C:3]([O:4][H:12])([H:10])[H:11])[C:5]([H:13])([H:14])[N:6]1[H:15])([H:7])([H:8])[H:9]>>[C:1]([C:2][N:6]([C:5]([C:3]([O:4][H:12])([H:10])[H:11])([H:13])[H:14])[H:15])([H:7])([H:8])[H:9]"
C       -1.32186578      -1.26808021       0.49066164
C       -0.08258388      -0.43469958       0.43095770
C        1.07901238       0.01466496      -1.04011517
O        2.32648905       0.10489907      -0.41884896
C       -0.01974868       1.30539402      -0.15738778
N       -0.07222417       0.73108987       1.17365259
H       -2.22832768      -0.69026642       0.71468924
H       -1.50266281      -1.82302832      -0.43243046
H       -1.17076537      -2.01565881       1.27464352
H        0.91478168      -0.99442140      -1.44455878
H        1.14729135       0.56709669      -1.98488343
H        2.15044058      -0.19031936       0.48912178
H       -0.96378007       1.63201414      -0.58914565
H        0.69063455       2.12903117      -0.15848242
H       -0.94669114       0.93228416       1.65212618
15
Frame=13 idx=003390 GeodesicLength=0.8718486211506363 rxn_smarts="[C:1]([C@@:2]1([C:3]([O:4][H:12])([H:10])[H:11])[C:5]([H:13])([H:14])[N:6]1[H:15])([H:7])([H:8])[H:9]>>[C:1]([C:2][N:6]([C:5]([C:3]([O:4][H:12])([H:10])[H:11])([H:13])[H:14])[H:15])([H:7])([H:8])[H:9]"
C       -1.33363844      -1.27786604       0.50171138
C       -0.10536708      -0.43339727       0.40561316
C        1.08922488       0.01516658      -1.04842636
O        2.32371351       0.11078874      -0.39938316
C       -0.01697038       1.31171228      -0.17372642
N       -0.07449705       0.72279732       1.15286798
H       -2.23077238      -0.71115363       0.78314396
H       -1.55532459      -1.80489979      -0.42872333
H       -1.14169201      -2.04910575       1.25294119
H        0.94722821      -0.99827240      -1.45200700
H        1.17680522       0.55495278      -1.99849035
H        2.12529889      -0.17448946       0.50729545
H       -0.95860089       1.66078690      -0.59365225
H        0.69262866       2.13632942      -0.15450096
H       -0.93803655       0.93665032       1.64533671
15
Frame=14 idx=003390 GeodesicLength=0.9379436816104336 rxn_smarts="[C:1]([C@@:2]1([C:3]([O:4][H:12])([H:10])[H:11])[C:5]([H:13])([H:14])[N:6]1[H:15])([H:7])([H:8])[H:9]>>[C:1]([C:2][N:6]([C:5]([C:3]([O:4][H:12])([H:10])[H:11])([H:13])[H:14])[H:15])([H:7])([H:8])[H:9]"
C       -1.34454484      -1.28795341       0.51319760
C       -0.12964315      -0.43101332       0.37890438
C        1.09939192       0.01576610      -1.05654346
O        2.31982758       0.11599595      -0.37903958
C       -0.01421992       1.31877926      -0.19076690
N       -0.07828869       0.71504507       1.13105713
H       -2.22888329      -0.73451585       0.85419794
H       -1.61011715      -1.78592912      -0.42167670
H       -1.11097538      -2.08237750       1.22720515
H        0.97971087      -1.00174217      -1.45875558
H        1.20784687       0.54272016      -2.01127074
H        2.09833321      -0.16066552       0.52516027
H       -0.95264245       1.69083396      -0.59870792
H        0.69476889       2.14372264      -0.15019363
H       -0.93056447       0.94133378       1.63723204
15
Frame=15 idx=003390 GeodesicLength=1.0039372935811013 rxn_smarts="[C:1]([C@@:2]1([C:3]([O:4][H:12])([H:10])[H:11])[C:5]([H:13])([H:14])[N:6]1[H:15])([H:7])([H:8])[H:9]>>[C:1]([C:2][N:6]([C:5]([C:3]([O:4][H:12])([H:10])[H:11])([H:13])[H:14])[H:15])([H:7])([H:8])[H:9]"
C       -1.35439191      -1.29838474       0.52507854
C       -0.15560884      -0.42739848       0.35070803
C        1.10944254       0.01642452      -1.06441548
O        2.31466434       0.12035612      -0.35772010
C       -0.01145575       1.32668323      -0.20853384
N       -0.08373771       0.70793036       1.10814507
H       -2.22193098      -0.76060175       0.92783648
H       -1.66708637      -1.76610584      -0.41084414
H       -1.07861727      -2.11534310       1.19697459
H        1.01204718      -1.00487090      -1.46471293
H        1.24044572       0.53034355      -2.02306935
H        2.06933416      -0.14892587       0.54279495
H       -0.94576707       1.72227608      -0.60438660
H        0.69711828       2.15119221      -0.14553549
H       -0.92445632       0.94642461       1.62768027
15
Frame=16 idx=003390 GeodesicLength=1.0698998206758492 rxn_smarts="[C:1]([C@@:2]1([C:3]([O:4][H:12])([H:10])[H:11])[C:5]([H:13])([H:14])[N:6]1[H:15])([H:7])([H:8])[H:9]>>[C:1]([C:2][N:6]([C:5]([C:3]([O:4][H:12])([H:10])[H:11])([H:13])[H:14])[H:15])([H:7])([H:8])[H:9]"
C       -1.36295232      -1.30919321       0.53725586
C       -0.18350608      -0.42235437       0.32091122
C        1.11930638       0.01707371      -1.07197053
O        2.30806633       0.12364407      -0.33527923
C       -0.00864904       1.33554238      -0.22706898
N       -0.09103478       0.70160494       1.08406851
H       -2.20893321      -0.78976321       1.00414905
H       -1.72632850      -1.74535957      -0.39566086
H       -1.04464241      -2.14790958       1.16156220
H        1.04404565      -1.00774035      -1.46976613
H        1.27465759       0.51771811      -2.03373131
H        2.03807148      -0.13936446       0.56031606
H       -0.93785457       1.75528129      -0.61081771
H        0.69973666       2.15873315      -0.14051802
H       -0.91998316       0.95208711       1.61654986
