13
Frame=0 idx=003313 GeodesicLength=0.0 rxn_smarts="[C:1]([C:2]#[C:3][C@@:4]1([H:10])[C:5]([H:11])([H:12])[N:6]1[H:13])([H:7])([H:8])[H:9]>>[C:1]([C:2](=[C-:3][C@@:4]1([H:10])[C+:5]([H:11])[N:6]1[H:13])[H:12])([H:7])([H:8])[H:9]"
C       -2.28932197       0.51670681       0.15912869
C       -0.86043339       0.19936235      -0.01592009
C       -0.01210183      -0.44668923      -0.70724500
C        1.36191982      -0.17791492      -0.88480720
C        1.55643600      -0.10912140       0.59889228
N        2.57831039      -0.71309915      -0.20907616
H       -2.92048706      -0.04640631      -0.52904212
H       -2.45018810       1.58197408      -0.01989165
H       -2.61056945       0.31114068       1.18148355
H        1.60178104       0.67404590      -1.50595081
H        1.08608409      -0.84984659       1.23726040
H        0.36996300       0.78187556       0.77785133
H        2.58860744      -1.72202774      -0.08268319
13
Frame=1 idx=003313 GeodesicLength=0.06909690657788013 rxn_smarts="[C:1]([C:2]#[C:3][C@@:4]1([H:10])[C:5]([H:11])([H:12])[N:6]1[H:13])([H:7])([H:8])[H:9]>>[C:1]([C:2](=[C-:3][C@@:4]1([H:10])[C+:5]([H:11])[N:6]1[H:13])[H:12])([H:7])([H:8])[H:9]"
C       -2.29428901       0.50710509       0.15848389
C       -0.85853335       0.22379209      -0.02269375
C       -0.01089638      -0.43051613      -0.70673774
C        1.36555705      -0.17787178      -0.88573280
C        1.58065431      -0.08985111       0.59719397
N        2.56806550      -0.74365473      -0.21283272
H       -2.91207888      -0.03271384      -0.55996256
H       -2.47413819       1.57654505       0.02923153
H       -2.62090613       0.24643063       1.16658962
H        1.62144444       0.65692422      -1.52353365
H        1.10684263      -0.80424792       1.26349607
H        0.38827176       0.81983425       0.77623029
H        2.54000623      -1.75177581      -0.07973216
13
Frame=2 idx=003313 GeodesicLength=0.1373768166787951 rxn_smarts="[C:1]([C:2]#[C:3][C@@:4]1([H:10])[C:5]([H:11])([H:12])[N:6]1[H:13])([H:7])([H:8])[H:9]>>[C:1]([C:2](=[C-:3][C@@:4]1([H:10])[C+:5]([H:11])[N:6]1[H:13])[H:12])([H:7])([H:8])[H:9]"
C       -2.29848327       0.49700855       0.15805803
C       -0.85677023       0.24845415      -0.03026345
C       -0.00990075      -0.41366019      -0.70698251
C        1.36905154      -0.17818504      -0.88672640
C        1.60497884      -0.07063805       0.59448203
N        2.55576258      -0.77425378      -0.21519722
H       -2.90382664      -0.01526396      -0.59050257
H       -2.49746749       1.56808152       0.08245759
H       -2.62863505       0.17862507       1.14831236
H        1.64138920       0.63795741      -1.54138490
H        1.12814039      -0.75705193       1.28836266
H        0.40722155       0.85850069       0.77305324
H        2.48853933      -1.77957444      -0.07366885
13
Frame=3 idx=003313 GeodesicLength=0.20602756033239 rxn_smarts="[C:1]([C:2]#[C:3][C@@:4]1([H:10])[C:5]([H:11])([H:12])[N:6]1[H:13])([H:7])([H:8])[H:9]>>[C:1]([C:2](=[C-:3][C@@:4]1([H:10])[C+:5]([H:11])[N:6]1[H:13])[H:12])([H:7])([H:8])[H:9]"
C       -2.30232801       0.48687696       0.15753319
C       -0.85553662       0.27208442      -0.03756150
C       -0.00909333      -0.39658374      -0.70786061
C        1.37226301      -0.17826665      -0.88766017
C        1.62956375      -0.05241159       0.59145146
N        2.54212545      -0.80424802      -0.21666195
H       -2.89641849       0.00413122      -0.61918453
H       -2.51994636       1.55670221       0.13549054
H       -2.63440639       0.11221588       1.12730188
H        1.66058990       0.61871784      -1.55873637
H        1.15091458      -0.71046181       1.31195460
H        0.42623003       0.89645017       0.77025044
H        2.43604250      -1.80520690      -0.06631697
13
Frame=4 idx=003313 GeodesicLength=0.27460054743338286 rxn_smarts="[C:1]([C:2]#[C:3][C@@:4]1([H:10])[C:5]([H:11])([H:12])[N:6]1[H:13])([H:7])([H:8])[H:9]>>[C:1]([C:2](=[C-:3][C@@:4]1([H:10])[C+:5]([H:11])[N:6]1[H:13])[H:12])([H:7])([H:8])[H:9]"
C       -2.30580504       0.47674445       0.15682917
C       -0.85481341       0.29429044      -0.04421008
C       -0.00853924      -0.37953244      -0.70905653
C        1.37504138      -0.17813819      -0.88842616
C        1.65441517      -0.03519579       0.58804885
N        2.52715510      -0.83333500      -0.21740617
H       -2.88976969       0.02534433      -0.64602599
H       -2.54104737       1.54255928       0.18787407
H       -2.63875727       0.04764334       1.10352561
H        1.67874053       0.59920663      -1.57548846
H        1.17533193      -0.66464879       1.33423424
H        0.44532799       0.93340948       0.76798213
H        2.38271992      -1.82834773      -0.05788068
13
Frame=5 idx=003313 GeodesicLength=0.3435995800281155 rxn_smarts="[C:1]([C:2]#[C:3][C@@:4]1([H:10])[C:5]([H:11])([H:12])[N:6]1[H:13])([H:7])([H:8])[H:9]>>[C:1]([C:2](=[C-:3][C@@:4]1([H:10])[C+:5]([H:11])[N:6]1[H:13])[H:12])([H:7])([H:8])[H:9]"
C       -2.30921818       0.46672615       0.15590122
C       -0.85467617       0.31503913      -0.05004993
C       -0.00824226      -0.36255704      -0.71056263
C        1.37746947      -0.17778368      -0.88902110
C        1.67971553      -0.01912710       0.58439969
N        2.51122583      -0.86149950      -0.21758046
H       -2.88412781       0.04780694      -0.67091099
H       -2.56108099       1.52598214       0.23887424
H       -2.64222712      -0.01433884       1.07732649
H        1.69581067       0.57958014      -1.59156300
H        1.20165724      -0.61998863       1.35525143
H        0.46453858       0.96927023       0.76664226
H        2.32915523      -1.84910994      -0.04870722
13
Frame=6 idx=003313 GeodesicLength=0.41174847554659016 rxn_smarts="[C:1]([C:2]#[C:3][C@@:4]1([H:10])[C:5]([H:11])([H:12])[N:6]1[H:13])([H:7])([H:8])[H:9]>>[C:1]([C:2](=[C-:3][C@@:4]1([H:10])[C+:5]([H:11])[N:6]1[H:13])[H:12])([H:7])([H:8])[H:9]"
C       -2.31202069       0.45643995       0.15498470
C       -0.85476436       0.33519773      -0.05581636
C       -0.00811194      -0.34517946      -0.71258031
C        1.37956677      -0.17752062      -0.88956771
C        1.70503397      -0.00372462       0.58006662
N        2.49352270      -0.88898936      -0.21672823
H       -2.87873596       0.07300057      -0.69437139
H       -2.57982589       1.50609652       0.29123760
H       -2.64411011      -0.07641010       1.04792099
H        1.71243342       0.55879531      -1.60755901
H        1.22897063      -0.57524146       1.37492890
H        0.48411159       1.00486326       0.76492227
H        2.27392987      -1.86732771      -0.03743808
13
Frame=7 idx=003313 GeodesicLength=0.4809161706389945 rxn_smarts="[C:1]([C:2]#[C:3][C@@:4]1([H:10])[C:5]([H:11])([H:12])[N:6]1[H:13])([H:7])([H:8])[H:9]>>[C:1]([C:2](=[C-:3][C@@:4]1([H:10])[C+:5]([H:11])[N:6]1[H:13])[H:12])([H:7])([H:8])[H:9]"
C       -2.31510230       0.44643768       0.15372252
C       -0.85552080       0.35372662      -0.06036985
C       -0.00829521      -0.32812015      -0.71470140
C        1.38124198      -0.17707375      -0.88994879
C        1.73106200       0.01044354       0.57562368
N        2.47533047      -0.91547801      -0.21554879
H       -2.87451776       0.09884972      -0.71598285
H       -2.59779042       1.48438548       0.34129708
H       -2.64592184      -0.13511311       1.01638958
H        1.72752703       0.53806587      -1.62292187
H        1.25878407      -0.53207270       1.39356600
H        0.50382161       1.03927550       0.76468425
H        2.21938117      -1.88332670      -0.02580958
13
Frame=8 idx=003313 GeodesicLength=0.5486528553192479 rxn_smarts="[C:1]([C:2]#[C:3][C@@:4]1([H:10])[C:5]([H:11])([H:12])[N:6]1[H:13])([H:7])([H:8])[H:9]>>[C:1]([C:2](=[C-:3][C@@:4]1([H:10])[C+:5]([H:11])[N:6]1[H:13])[H:12])([H:7])([H:8])[H:9]"
C       -2.31795691       0.43658162       0.15219195
C       -0.85661562       0.37052442      -0.06376875
C       -0.00859074      -0.31098937      -0.71672291
C        1.38255454      -0.17589580      -0.88982179
C        1.75713975       0.02292738       0.57092091
N        2.45604576      -0.94039742      -0.21430703
H       -2.87060944       0.12313250      -0.73449039
H       -2.61434312       1.46085941       0.38654425
H       -2.64741429      -0.18860850       0.98431450
H        1.74165441       0.51803950      -1.63682369
H        1.28996849      -0.49131590       1.41048133
H        0.52355289       1.07146104       0.76611446
H        2.16461428      -1.89631889      -0.01463284
13
Frame=9 idx=003313 GeodesicLength=0.6170591730801799 rxn_smarts="[C:1]([C:2]#[C:3][C@@:4]1([H:10])[C:5]([H:11])([H:12])[N:6]1[H:13])([H:7])([H:8])[H:9]>>[C:1]([C:2](=[C-:3][C@@:4]1([H:10])[C+:5]([H:11])[N:6]1[H:13])[H:12])([H:7])([H:8])[H:9]"
C       -2.32097405       0.42675200       0.15045116
C       -0.85817739       0.38640859      -0.06652236
C       -0.00911635      -0.29381296      -0.71905584
C        1.38356406      -0.17471883      -0.88965317
C        1.78379257       0.03450947       0.56589970
N        2.43598136      -0.96459074      -0.21247713
H       -2.86751014       0.14876389      -0.75171073
H       -2.63028896       1.43528906       0.43116526
H       -2.64875427      -0.24051385       0.94998270
H        1.75478110       0.49741183      -1.65061883
H        1.32321334      -0.45141146       1.42646566
H        0.54365210       1.10314723       0.76835979
H        2.10983662      -1.90723422      -0.00228620
13
Frame=10 idx=003313 GeodesicLength=0.6854309770717039 rxn_smarts="[C:1]([C:2]#[C:3][C@@:4]1([H:10])[C:5]([H:11])([H:12])[N:6]1[H:13])([H:7])([H:8])[H:9]>>[C:1]([C:2](=[C-:3][C@@:4]1([H:10])[C+:5]([H:11])[N:6]1[H:13])[H:12])([H:7])([H:8])[H:9]"
C       -2.32412632       0.41699059       0.14842462
C       -0.86016999       0.40078964      -0.06794791
C       -0.01000333      -0.27711299      -0.72098767
C        1.38399890      -0.17378824      -0.88930853
C        1.81111731       0.04540425       0.56019836
N        2.41516338      -0.98770249      -0.21020092
H       -2.86471762       0.17673674      -0.76807244
H       -2.64527971       1.40760378       0.47563424
H       -2.65078664      -0.29117399       0.91249473
H        1.76627506       0.47575050      -1.66438111
H        1.35897061      -0.41200072       1.44134141
H        0.56421153       1.13412368       0.77130996
H        2.05534681      -1.91562074       0.01149527
13
Frame=11 idx=003313 GeodesicLength=0.7537790278755859 rxn_smarts="[C:1]([C:2]#[C:3][C@@:4]1([H:10])[C:5]([H:11])([H:12])[N:6]1[H:13])([H:7])([H:8])[H:9]>>[C:1]([C:2](=[C-:3][C@@:4]1([H:10])[C+:5]([H:11])[N:6]1[H:13])[H:12])([H:7])([H:8])[H:9]"
C       -2.32723182       0.40720368       0.14624025
C       -0.86245803       0.41506861      -0.06936019
C       -0.01089658      -0.25938851      -0.72369453
C        1.38442227      -0.17209583      -0.88873507
C        1.83859146       0.05463308       0.55450183
N        2.39325869      -1.01007093      -0.20754605
H       -2.86269907       0.20207680      -0.78177113
H       -2.66026986       1.37867243       0.51597891
H       -2.65144957      -0.33785011       0.87556730
H        1.77767049       0.45467331      -1.67708646
H        1.39573892      -0.37490768       1.45488917
H        0.58514131       1.16393484       0.77587177
H        2.00018179      -1.92194970       0.02514421
13
Frame=12 idx=003313 GeodesicLength=0.8222415374235192 rxn_smarts="[C:1]([C:2]#[C:3][C@@:4]1([H:10])[C:5]([H:11])([H:12])[N:6]1[H:13])([H:7])([H:8])[H:9]>>[C:1]([C:2](=[C-:3][C@@:4]1([H:10])[C+:5]([H:11])[N:6]1[H:13])[H:12])([H:7])([H:8])[H:9]"
C       -2.33048125       0.39732610       0.14381612
C       -0.86511776       0.42849541      -0.07001883
C       -0.01202540      -0.24157516      -0.72641797
C        1.38448101      -0.17052903      -0.88802520
C        1.86666150       0.06309744       0.54817899
N        2.37044675      -1.03159596      -0.20421563
H       -2.86119296       0.22925391      -0.79440274
H       -2.67461134       1.34745487       0.55624991
H       -2.65234906      -0.38353543       0.83589347
H        1.78799378       0.43247469      -1.68976852
H        1.43467070      -0.33831952       1.46731352
H        0.60666931       1.19333129       0.78103258
H        1.94485472      -1.92587860       0.04036429
13
Frame=13 idx=003313 GeodesicLength=0.8913448658952056 rxn_smarts="[C:1]([C:2]#[C:3][C@@:4]1([H:10])[C:5]([H:11])([H:12])[N:6]1[H:13])([H:7])([H:8])[H:9]>>[C:1]([C:2](=[C-:3][C@@:4]1([H:10])[C+:5]([H:11])[N:6]1[H:13])[H:12])([H:7])([H:8])[H:9]"
C       -2.33376671       0.38727287       0.14121293
C       -0.86813595       0.44212160      -0.07074932
C       -0.01324203      -0.22265466      -0.72996087
C        1.38446647      -0.16856680      -0.88723037
C        1.89513792       0.07029493       0.54168443
N        2.34645586      -1.05265127      -0.20018549
H       -2.86058723       0.25555532      -0.80521658
H       -2.68899274       1.31447387       0.59466291
H       -2.65203282      -0.42717358       0.79540945
H        1.79809607       0.40986892      -1.70204946
H        1.47507267      -0.30311292       1.47870017
H        0.62887418       1.22238081       0.78733437
H        1.88865431      -1.92780910       0.05638783
13
Frame=14 idx=003313 GeodesicLength=0.9595496784923246 rxn_smarts="[C:1]([C:2]#[C:3][C@@:4]1([H:10])[C:5]([H:11])([H:12])[N:6]1[H:13])([H:7])([H:8])[H:9]>>[C:1]([C:2](=[C-:3][C@@:4]1([H:10])[C+:5]([H:11])[N:6]1[H:13])[H:12])([H:7])([H:8])[H:9]"
C       -2.33683536       0.37683597       0.13845565
C       -0.87130104       0.45509688      -0.07083906
C       -0.01457812      -0.20324034      -0.73349070
C        1.38407234      -0.16688972      -0.88624023
C        1.92397885       0.07688193       0.53409414
N        2.32084332      -1.07274456      -0.19506149
H       -2.85989826       0.28503978      -0.81458490
H       -2.70238675       1.27762578       0.63437532
H       -2.65175483      -0.47074122       0.75080484
H        1.80741134       0.38527472      -1.71436247
H        1.51723786      -0.26770615       1.48848652
H        0.65196237       1.25118673       0.79344972
H        1.83124829      -1.92661981       0.07491265
13
Frame=15 idx=003313 GeodesicLength=1.0287334865524482 rxn_smarts="[C:1]([C:2]#[C:3][C@@:4]1([H:10])[C:5]([H:11])([H:12])[N:6]1[H:13])([H:7])([H:8])[H:9]>>[C:1]([C:2](=[C-:3][C@@:4]1([H:10])[C+:5]([H:11])[N:6]1[H:13])[H:12])([H:7])([H:8])[H:9]"
C       -2.34022688       0.36638437       0.13535529
C       -0.87496949       0.46808454      -0.07074549
C       -0.01609319      -0.18303416      -0.73745795
C        1.38348904      -0.16478852      -0.88510787
C        1.95347616       0.08205314       0.52636613
N        2.29446810      -1.09213649      -0.18948337
H       -2.86036838       0.31287036      -0.82235405
H       -2.71603048       1.23980386       0.67106133
H       -2.65077074      -0.51151180       0.70597641
H        1.81589151       0.36050549      -1.72618973
H        1.56151449      -0.23422088       1.49726894
H        0.67577575       1.27932257       0.80139546
H        1.77384411      -1.92333247       0.09391490
13
Frame=16 idx=003313 GeodesicLength=1.0971931466013976 rxn_smarts="[C:1]([C:2]#[C:3][C@@:4]1([H:10])[C:5]([H:11])([H:12])[N:6]1[H:13])([H:7])([H:8])[H:9]>>[C:1]([C:2](=[C-:3][C@@:4]1([H:10])[C+:5]([H:11])[N:6]1[H:13])[H:12])([H:7])([H:8])[H:9]"
C       -2.34355360       0.35587530       0.13188753
C       -0.87892879       0.48048858      -0.07009589
C       -0.01769593      -0.16236948      -0.74121404
C        1.38250118      -0.16215805      -0.88362551
C        1.98318788       0.08581350       0.51811373
N        2.26698575      -1.11014758      -0.18363309
H       -2.86089794       0.33891311      -0.82862339
H       -2.72927086       1.20107805       0.70424181
H       -2.64950743      -0.54910630       0.66122796
H        1.82317005       0.33555449      -1.73737071
H        1.60754593      -0.20278232       1.50458563
H        0.70012071       1.30598316       0.81110335
H        1.71634306      -1.91714246       0.11340262
