11
Frame=0 idx=001457 GeodesicLength=0.0 rxn_smarts="[O:1]([C@@:2]1([H:8])[C:3]([H:9])([H:10])[N:4]([H:11])[C:5]1=[O:6])[H:7]>>[C-:5]#[O+:6].[O:1]([C:2](/[C:3](=[N:4]/[H:11])[H:10])([H:8])[H:9])[H:7]"
O        0.14384781       1.88176452      -0.83786812
C        0.03736970       0.91050050       0.04955942
C       -0.77812140      -0.24670080      -0.22414454
N       -0.47250640      -1.36499624       0.47987698
C        1.62393803      -1.07673234       0.20506139
O        2.32855715      -1.93751993       0.44617408
H        0.43134236       2.70100782      -0.42550569
H        0.37437741       1.08326829       1.06674747
H       -1.53090304       0.47345828       0.34660550
H       -1.15220789      -0.26300156      -1.25559888
H       -1.00569373      -2.16104853       0.14909234
11
Frame=1 idx=001457 GeodesicLength=0.07460382895649731 rxn_smarts="[O:1]([C@@:2]1([H:8])[C:3]([H:9])([H:10])[N:4]([H:11])[C:5]1=[O:6])[H:7]>>[C-:5]#[O+:6].[O:1]([C:2](/[C:3](=[N:4]/[H:11])[H:10])([H:8])[H:9])[H:7]"
O        0.14467075       1.86501979      -0.83386462
C        0.01210325       0.90332224       0.06721086
C       -0.80588771      -0.25290144      -0.22311252
N       -0.46815228      -1.37232130       0.46384228
C        1.60963756      -1.03907790       0.19551994
O        2.34604430      -1.87407534       0.43806339
H        0.54420179       2.64769067      -0.44468470
H        0.33684982       1.07916312       1.08809450
H       -1.54864972       0.48622666       0.36259908
H       -1.18116231      -0.26427538      -1.25366490
H       -0.98965544      -2.17877113       0.13999669
11
Frame=2 idx=001457 GeodesicLength=0.14968258370787707 rxn_smarts="[O:1]([C@@:2]1([H:8])[C:3]([H:9])([H:10])[N:4]([H:11])[C:5]1=[O:6])[H:7]>>[C-:5]#[O+:6].[O:1]([C:2](/[C:3](=[N:4]/[H:11])[H:10])([H:8])[H:9])[H:7]"
O        0.14534784       1.85102445      -0.82718277
C       -0.01152227       0.89683870       0.08480087
C       -0.83245358      -0.25801814      -0.22189492
N       -0.46341398      -1.37823323       0.44712288
C        1.59523654      -1.00245781       0.18659806
O        2.36192775      -1.81098715       0.43069938
H        0.64943263       2.58493867      -0.46548505
H        0.30202150       1.07521127       1.10899848
H       -1.56510570       0.50036083       0.37829082
H       -1.20820394      -0.26409445      -1.25183353
H       -0.97326679      -2.19458315       0.12988580
11
Frame=3 idx=001457 GeodesicLength=0.22532342801561692 rxn_smarts="[O:1]([C@@:2]1([H:8])[C:3]([H:9])([H:10])[N:4]([H:11])[C:5]1=[O:6])[H:7]>>[C-:5]#[O+:6].[O:1]([C:2](/[C:3](=[N:4]/[H:11])[H:10])([H:8])[H:9])[H:7]"
O        0.14679015       1.83908507      -0.81831061
C       -0.03295977       0.89078642       0.10244017
C       -0.85762718      -0.26204917      -0.22046435
N       -0.45840419      -1.38295103       0.42958198
C        1.58087633      -0.96754508       0.17823652
O        2.37611382      -1.74897376       0.42495587
H        0.74450283       2.51527842      -0.48822509
H        0.27049324       1.07116816       1.12957672
H       -1.57975244       0.51601008       0.39395002
H       -1.23337698      -0.26222231      -1.24998590
H       -0.95665581      -2.20858680       0.11824469
11
Frame=4 idx=001457 GeodesicLength=0.30160728239578455 rxn_smarts="[O:1]([C@@:2]1([H:8])[C:3]([H:9])([H:10])[N:4]([H:11])[C:5]1=[O:6])[H:7]>>[C-:5]#[O+:6].[O:1]([C:2](/[C:3](=[N:4]/[H:11])[H:10])([H:8])[H:9])[H:7]"
O        0.14963465       1.82885537      -0.80793788
C       -0.05216116       0.88494958       0.11963216
C       -0.88128924      -0.26521237      -0.21905329
N       -0.45312688      -1.38638509       0.41162188
C        1.56667925      -0.93449286       0.17073420
O        2.38873132      -1.68867257       0.41998464
H        0.82852299       2.44078964      -0.51119582
H        0.24204821       1.06692790       1.14939455
H       -1.59253573       0.53328024       0.40884275
H       -1.25629897      -0.25928411      -1.24838026
H       -0.94020444      -2.22075574       0.10635707
11
Frame=5 idx=001457 GeodesicLength=0.3785356853392027 rxn_smarts="[O:1]([C@@:2]1([H:8])[C:3]([H:9])([H:10])[N:4]([H:11])[C:5]1=[O:6])[H:7]>>[C-:5]#[O+:6].[O:1]([C:2](/[C:3](=[N:4]/[H:11])[H:10])([H:8])[H:9])[H:7]"
O        0.15370447       1.81999374      -0.79636581
C       -0.06901561       0.87917086       0.13654127
C       -0.90353252      -0.26764856      -0.21761093
N       -0.44770697      -1.38896800       0.39305100
C        1.55275171      -0.90357684       0.16394346
O        2.39987550      -1.63018578       0.41675168
H        0.90177750       2.36366199      -0.53511204
H        0.21685026       1.06233590       1.16870731
H       -1.60329225       0.55195089       0.42342985
H       -1.27745463      -0.25519610      -1.24690978
H       -0.92395747      -2.23153810       0.09357398
11
Frame=6 idx=001457 GeodesicLength=0.45604035910313356 rxn_smarts="[O:1]([C@@:2]1([H:8])[C:3]([H:9])([H:10])[N:4]([H:11])[C:5]1=[O:6])[H:7]>>[C-:5]#[O+:6].[O:1]([C:2](/[C:3](=[N:4]/[H:11])[H:10])([H:8])[H:9])[H:7]"
O        0.15886434       1.81207122      -0.78377246
C       -0.08357588       0.87329623       0.15324739
C       -0.92441047      -0.26944951      -0.21610743
N       -0.44220980      -1.39085012       0.37380358
C        1.53916506      -0.87490179       0.15803870
O        2.40969658      -1.57364478       0.41546954
H        0.96470889       2.28531692      -0.56030431
H        0.19466723       1.05733917       1.18760760
H       -1.61199876       0.57194020       0.43784938
H       -1.29702134      -0.25002739      -1.24544681
H       -0.90788585      -2.24109017       0.07961481
11
Frame=7 idx=001457 GeodesicLength=0.5334539558618355 rxn_smarts="[O:1]([C@@:2]1([H:8])[C:3]([H:9])([H:10])[N:4]([H:11])[C:5]1=[O:6])[H:7]>>[C-:5]#[O+:6].[O:1]([C:2](/[C:3](=[N:4]/[H:11])[H:10])([H:8])[H:9])[H:7]"
O        0.16740408       1.80278573      -0.77280808
C       -0.09562697       0.86691921       0.16862475
C       -0.94383616      -0.27110891      -0.21475923
N       -0.43676095      -1.39212780       0.35480733
C        1.52578720      -0.84916463       0.15218663
O        2.41808607      -1.51996777       0.41484079
H        1.01552248       2.21194271      -0.58163129
H        0.17567282       1.05178776       1.20491330
H       -1.61836163       0.59360540       0.45073325
H       -1.31487920      -0.24509258      -1.24418114
H       -0.89300774      -2.24957910       0.06727370
11
Frame=8 idx=001457 GeodesicLength=0.6116446453611885 rxn_smarts="[O:1]([C@@:2]1([H:8])[C:3]([H:9])([H:10])[N:4]([H:11])[C:5]1=[O:6])[H:7]>>[C-:5]#[O+:6].[O:1]([C:2](/[C:3](=[N:4]/[H:11])[H:10])([H:8])[H:9])[H:7]"
O        0.17590340       1.79473535      -0.76073788
C       -0.10628960       0.86053784       0.18394623
C       -0.96230570      -0.27237301      -0.21335196
N       -0.43120344      -1.39289224       0.33511758
C        1.51284247      -0.82479404       0.14772470
O        2.42548255      -1.46767217       0.41564449
H        1.06006645       2.13710200      -0.60486028
H        0.15844552       1.04601150       1.22211562
H       -1.62328219       0.61595958       0.46366433
H       -1.33186148      -0.23931853      -1.24284914
H       -0.87779798      -2.25729628       0.05358631
11
Frame=9 idx=001457 GeodesicLength=0.6904735761120098 rxn_smarts="[O:1]([C@@:2]1([H:8])[C:3]([H:9])([H:10])[N:4]([H:11])[C:5]1=[O:6])[H:7]>>[C-:5]#[O+:6].[O:1]([C:2](/[C:3](=[N:4]/[H:11])[H:10])([H:8])[H:9])[H:7]"
O        0.18428071       1.78781596      -0.74740489
C       -0.11548996       0.85404774       0.19941784
C       -0.97973304      -0.27320312      -0.21180964
N       -0.42551414      -1.39325810       0.31457974
C        1.50026286      -0.80193648       0.14484778
O        2.43175443      -1.41698606       0.41846707
H        1.09800133       2.06138812      -0.63105201
H        0.14295538       1.03986383       1.23935526
H       -1.62654096       0.63895297       0.47683791
H       -1.34789777      -0.23244216      -1.24125707
H       -0.86207882      -2.26424271       0.03801801
11
Frame=10 idx=001457 GeodesicLength=0.7696265746110783 rxn_smarts="[O:1]([C@@:2]1([H:8])[C:3]([H:9])([H:10])[N:4]([H:11])[C:5]1=[O:6])[H:7]>>[C-:5]#[O+:6].[O:1]([C:2](/[C:3](=[N:4]/[H:11])[H:10])([H:8])[H:9])[H:7]"
O        0.19404147       1.78055245      -0.73447959
C       -0.12332768       0.84733278       0.21436354
C       -0.99623479      -0.27393844      -0.21028149
N       -0.41979844      -1.39320215       0.29384530
C        1.48806160      -0.78075758       0.14294446
O        2.43711091      -1.36824460       0.42196222
H        1.12896585       1.98795876      -0.65652882
H        0.12909840       1.03349266       1.25599135
H       -1.62827490       0.66282459       0.48937355
H       -1.36313188      -0.22545114      -1.23961523
H       -0.84651054      -2.27056732       0.02242470
11
Frame=11 idx=001457 GeodesicLength=0.8490608924503539 rxn_smarts="[O:1]([C@@:2]1([H:8])[C:3]([H:9])([H:10])[N:4]([H:11])[C:5]1=[O:6])[H:7]>>[C-:5]#[O+:6].[O:1]([C:2](/[C:3](=[N:4]/[H:11])[H:10])([H:8])[H:9])[H:7]"
O        0.20474804       1.77308589      -0.72175881
C       -0.12999150       0.84039945       0.22893375
C       -1.01188404      -0.27459931      -0.20874075
N       -0.41402949      -1.39278899       0.27280837
C        1.47622322      -0.76106904       0.14216836
O        2.44161169      -1.32132143       0.42624652
H        1.15391916       1.91657524      -0.68195504
H        0.11659814       1.02690218       1.27218264
H       -1.62857589       0.68741313       0.50142365
H       -1.37768698      -0.21825804      -1.23785989
H       -0.83093235      -2.27633908       0.00655120
11
Frame=12 idx=001457 GeodesicLength=0.9287631436463083 rxn_smarts="[O:1]([C@@:2]1([H:8])[C:3]([H:9])([H:10])[N:4]([H:11])[C:5]1=[O:6])[H:7]>>[C-:5]#[O+:6].[O:1]([C:2](/[C:3](=[N:4]/[H:11])[H:10])([H:8])[H:9])[H:7]"
O        0.21618027       1.76552093      -0.70904124
C       -0.13563814       0.83325976       0.24325654
C       -1.02674256      -0.27519640      -0.20718226
N       -0.40817202      -1.39204076       0.25136470
C        1.46474375      -0.74271973       0.14256406
O        2.44533017      -1.27604139       0.43145331
H        1.17347004       1.84690636      -0.70785752
H        0.10524427       1.02008480       1.28807161
H       -1.62751756       0.71260916       0.51309705
H       -1.39164047      -0.21079051      -1.23596615
H       -0.81525774      -2.28159221      -0.00976010
11
Frame=13 idx=001457 GeodesicLength=1.0087082838353434 rxn_smarts="[O:1]([C@@:2]1([H:8])[C:3]([H:9])([H:10])[N:4]([H:11])[C:5]1=[O:6])[H:7]>>[C-:5]#[O+:6].[O:1]([C:2](/[C:3](=[N:4]/[H:11])[H:10])([H:8])[H:9])[H:7]"
O        0.22838057       1.75775601      -0.69639893
C       -0.14044579       0.82593833       0.25732853
C       -1.04088561      -0.27578004      -0.20562108
N       -0.40220618      -1.39094697       0.22954620
C        1.45360229      -0.72557121       0.14405620
O        2.44835052      -1.23229206       0.43737699
H        1.18811577       1.77894820      -0.73400324
H        0.09482946       1.01307631       1.30366304
H       -1.62521079       0.73837323       0.52432604
H       -1.40507474      -0.20313342      -1.23394282
H       -0.79945550      -2.28636837      -0.02633092
11
Frame=14 idx=001457 GeodesicLength=1.0888882594121496 rxn_smarts="[O:1]([C@@:2]1([H:8])[C:3]([H:9])([H:10])[N:4]([H:11])[C:5]1=[O:6])[H:7]>>[C-:5]#[O+:6].[O:1]([C:2](/[C:3](=[N:4]/[H:11])[H:10])([H:8])[H:9])[H:7]"
O        0.24131628       1.74982778      -0.68369636
C       -0.14454125       0.81845371       0.27123753
C       -1.05436349      -0.27635800      -0.20406158
N       -0.39609176      -1.38949464       0.20728081
C        1.44279762      -0.70949260       0.14665669
O        2.45073916      -1.18994246       0.44406246
H        1.19816488       1.71239314      -0.76069787
H        0.08518502       1.00586811       1.31906212
H       -1.62172393       0.76465215       0.53515244
H       -1.41802876      -0.19523137      -1.23179007
H       -0.78345376      -2.29067582      -0.04320620
11
Frame=15 idx=001457 GeodesicLength=1.1693027686837514 rxn_smarts="[O:1]([C@@:2]1([H:8])[C:3]([H:9])([H:10])[N:4]([H:11])[C:5]1=[O:6])[H:7]>>[C-:5]#[O+:6].[O:1]([C:2](/[C:3](=[N:4]/[H:11])[H:10])([H:8])[H:9])[H:7]"
O        0.25501005       1.74181245      -0.67066814
C       -0.14800769       0.81081652       0.28512058
C       -1.06719257      -0.27691339      -0.20250894
N       -0.38976992      -1.38765322       0.18444882
C        1.43233221      -0.69436885       0.15039780
O        2.45252599      -1.14885629       0.45168920
H        1.20363710       1.64679264      -0.78852639
H        0.07616880       0.99841079       1.33442382
H       -1.61707951       0.79140704       0.54564077
H       -1.43045178      -0.18695621      -1.22951452
H       -0.76717268      -2.29449147      -0.06050300
11
Frame=16 idx=001457 GeodesicLength=1.2498725426953157 rxn_smarts="[O:1]([C@@:2]1([H:8])[C:3]([H:9])([H:10])[N:4]([H:11])[C:5]1=[O:6])[H:7]>>[C-:5]#[O+:6].[O:1]([C:2](/[C:3](=[N:4]/[H:11])[H:10])([H:8])[H:9])[H:7]"
O        0.26964506       1.73340897      -0.65763650
C       -0.15100842       0.80304033       0.29884562
C       -1.07944876      -0.27754107      -0.20101602
N       -0.38323740      -1.38540164       0.16117173
C        1.42216624      -0.68010945       0.15499983
O        2.45377640      -1.10901777       0.45973456
H        1.20495378       1.58262698      -0.81644550
H        0.06763814       0.99074829       1.34961232
H       -1.61139034       0.81866171       0.55556094
H       -1.44239503      -0.17854110      -1.22718625
H       -0.75069969      -2.29787526      -0.07764075
