11
Frame=0 idx=002527 GeodesicLength=0.0 rxn_smarts="[C:1](/[N:2]=[C:3](\[N:4]([H:10])[H:11])[C:5]#[N:6])([H:7])([H:8])[H:9]>>[C:1](=[N:2][C-:3]([N+:4]([H:9])([H:10])[H:11])[C:5]#[N:6])([H:7])[H:8]"
C        1.62218459      -0.46940652       0.04549638
N        0.48299121      -1.07559749      -0.35506923
C       -0.58477909      -0.33752800      -0.32601176
N       -0.37701031       0.92893462       0.33306171
C       -1.91524054      -0.80552524      -0.45409784
N       -3.02165471      -1.11011412      -0.55325745
H        2.46732602      -1.12719492       0.20686698
H        1.90820791       0.49145659      -0.38896177
H        0.64634549       0.57062945       0.86779527
H       -0.05660197       1.69057749      -0.25916717
H       -1.17176862       1.24376811       0.88334493
11
Frame=1 idx=002527 GeodesicLength=0.050062598664887666 rxn_smarts="[C:1](/[N:2]=[C:3](\[N:4]([H:10])[H:11])[C:5]#[N:6])([H:7])([H:8])[H:9]>>[C:1](=[N:2][C-:3]([N+:4]([H:9])([H:10])[H:11])[C:5]#[N:6])([H:7])[H:8]"
C        1.62257298      -0.46929910       0.04704100
N        0.48380981      -1.07022138      -0.36693044
C       -0.58530305      -0.33381999      -0.33076224
N       -0.38303921       0.92995381       0.33534980
C       -1.91525733      -0.80560651      -0.45453645
N       -3.02132083      -1.11440970      -0.54446335
H        2.46388771      -1.13184302       0.20956064
H        1.91582629       0.48857220      -0.39030713
H        0.65667012       0.57260335       0.87530605
H       -0.05360386       1.68900096      -0.25548025
H       -1.18424264       1.24506938       0.87522237
11
Frame=2 idx=002527 GeodesicLength=0.10013084022429819 rxn_smarts="[C:1](/[N:2]=[C:3](\[N:4]([H:10])[H:11])[C:5]#[N:6])([H:7])([H:8])[H:9]>>[C:1](=[N:2][C-:3]([N+:4]([H:9])([H:10])[H:11])[C:5]#[N:6])([H:7])[H:8]"
C        1.62288654      -0.46920909       0.04851366
N        0.48458205      -1.06468055      -0.37872620
C       -0.58586835      -0.33000696      -0.33552928
N       -0.38919540       0.93101638       0.33763872
C       -1.91526034      -0.80563669      -0.45513608
N       -3.02080540      -1.11900876      -0.53550781
H        2.46026375      -1.13659236       0.21217653
H        1.92349986       0.48558651      -0.39166067
H        0.66722892       0.57455367       0.88293667
H       -0.05052916       1.68746281      -0.25152920
H       -1.19680248       1.24651503       0.86682365
11
Frame=3 idx=002527 GeodesicLength=0.1501829719261286 rxn_smarts="[C:1](/[N:2]=[C:3](\[N:4]([H:10])[H:11])[C:5]#[N:6])([H:7])([H:8])[H:9]>>[C:1](=[N:2][C-:3]([N+:4]([H:9])([H:10])[H:11])[C:5]#[N:6])([H:7])[H:8]"
C        1.62317514      -0.46908560       0.04986818
N        0.48530476      -1.05911521      -0.39010941
C       -0.58650233      -0.32626787      -0.33995287
N       -0.39548071       0.93207729       0.34001764
C       -1.91526850      -0.80588292      -0.45525831
N       -3.02020306      -1.12348166      -0.52735757
H        2.45660188      -1.14128435       0.21458893
H        1.93110690       0.48247722      -0.39333842
H        0.67817143       0.57662541       0.89063334
H       -0.04753447       1.68583268      -0.24741590
H       -1.20937104       1.24810499       0.85832439
11
Frame=4 idx=002527 GeodesicLength=0.2002461056851856 rxn_smarts="[C:1](/[N:2]=[C:3](\[N:4]([H:10])[H:11])[C:5]#[N:6])([H:7])([H:8])[H:9]>>[C:1](=[N:2][C-:3]([N+:4]([H:9])([H:10])[H:11])[C:5]#[N:6])([H:7])[H:8]"
C        1.62343725      -0.46893704       0.05111960
N        0.48597985      -1.05349607      -0.40118221
C       -0.58719715      -0.32255545      -0.34414567
N       -0.40190013       0.93315021       0.34246360
C       -1.91527661      -0.80627427      -0.45510708
N       -3.01952281      -1.12794455      -0.51971400
H        2.45287524      -1.14595662       0.21684614
H        1.93868483       0.47925391      -0.39525775
H        0.68947553       0.57876890       0.89841825
H       -0.04457193       1.68415044      -0.24309191
H       -1.22198409       1.24984053       0.84965103
11
Frame=5 idx=002527 GeodesicLength=0.2503126059154206 rxn_smarts="[C:1](/[N:2]=[C:3](\[N:4]([H:10])[H:11])[C:5]#[N:6])([H:7])([H:8])[H:9]>>[C:1](=[N:2][C-:3]([N+:4]([H:9])([H:10])[H:11])[C:5]#[N:6])([H:7])[H:8]"
C        1.62365160      -0.46877884       0.05228846
N        0.48660778      -1.04776481      -0.41209193
C       -0.58794143      -0.31879775      -0.34824972
N       -0.40846310       0.93424862       0.34494227
C       -1.91527195      -0.80671311      -0.45491629
N       -3.01872469      -1.13256367      -0.51219534
H        2.44901874      -1.15066989       0.21899223
H        1.94628314       0.47592489      -0.39729252
H        0.70109438       0.58092324       0.90631559
H       -0.04157176       1.68245957      -0.23849915
H       -1.23468270       1.25173175       0.84070640
11
Frame=6 idx=002527 GeodesicLength=0.30038501264108336 rxn_smarts="[C:1](/[N:2]=[C:3](\[N:4]([H:10])[H:11])[C:5]#[N:6])([H:7])([H:8])[H:9]>>[C:1](=[N:2][C-:3]([N+:4]([H:9])([H:10])[H:11])[C:5]#[N:6])([H:7])[H:8]"
C        1.62377800      -0.46864761       0.05340897
N        0.48718791      -1.04181207      -0.42308432
C       -0.58872287      -0.31486419      -0.35250512
N       -0.41517996       0.93540750       0.34738986
C       -1.91525153      -0.80701634      -0.45509230
N       -3.01771002      -1.13765645      -0.50414827
H        2.44491986      -1.15553701       0.22108849
H        1.95398448       0.47249717      -0.39921864
H        0.71293661       0.58297627       0.91437664
H       -0.03842026       1.68084707      -0.23354689
H       -1.24752223       1.25380567       0.83133158
11
Frame=7 idx=002527 GeodesicLength=0.3504904197164503 rxn_smarts="[C:1](/[N:2]=[C:3](\[N:4]([H:10])[H:11])[C:5]#[N:6])([H:7])([H:8])[H:9]>>[C:1](=[N:2][C-:3]([N+:4]([H:9])([H:10])[H:11])[C:5]#[N:6])([H:7])[H:8]"
C        1.62378026      -0.46856526       0.05449364
N        0.48771631      -1.03554963      -0.43434074
C       -0.58953928      -0.31065747      -0.35707744
N       -0.42206626       0.93665508       0.34975717
C       -1.91522099      -0.80705106      -0.45591431
N       -3.01636097      -1.14346177      -0.49510972
H        2.44047786      -1.16064231       0.22317947
H        1.96184631       0.46897967      -0.40088149
H        0.72494011       0.58482676       0.92264943
H       -0.03503607       1.67935421      -0.22816075
H       -1.26053727       1.25611178       0.82140473
11
Frame=8 idx=002527 GeodesicLength=0.40060241493008625 rxn_smarts="[C:1](/[N:2]=[C:3](\[N:4]([H:10])[H:11])[C:5]#[N:6])([H:7])([H:8])[H:9]>>[C:1](=[N:2][C-:3]([N+:4]([H:9])([H:10])[H:11])[C:5]#[N:6])([H:7])[H:8]"
C        1.62368758      -0.46850558       0.05551837
N        0.48818397      -1.02906631      -0.44564354
C       -0.59040920      -0.30627937      -0.36176117
N       -0.42912201       0.93797195       0.35209641
C       -1.91519814      -0.80696635      -0.45701467
N       -3.01473051      -1.14974522      -0.48565260
H        2.43578203      -1.16589431       0.22519329
H        1.96979259       0.46535370      -0.40247147
H        0.73719997       0.58656486       0.93110464
H       -0.03151819       1.67792121      -0.22239989
H       -1.27366810       1.25864540       0.81103065
11
Frame=9 idx=002527 GeodesicLength=0.4507092875972305 rxn_smarts="[C:1](/[N:2]=[C:3](\[N:4]([H:10])[H:11])[C:5]#[N:6])([H:7])([H:8])[H:9]>>[C:1](=[N:2][C-:3]([N+:4]([H:9])([H:10])[H:11])[C:5]#[N:6])([H:7])[H:8]"
C        1.62355470      -0.46841759       0.05644559
N        0.48858947      -1.02249871      -0.45668278
C       -0.59134844      -0.30188529      -0.36626151
N       -0.43634830       0.93931711       0.35448292
C       -1.91518197      -0.80698375      -0.45786853
N       -3.01296409      -1.15612704      -0.47659700
H        2.43097645      -1.17114297       0.22705252
H        1.97771316       0.46160495      -0.40426678
H        0.74986480       0.58831373       0.93967943
H       -0.02800530       1.67643625      -0.21634888
H       -1.28685048       1.26138328       0.80036500
11
Frame=10 idx=002527 GeodesicLength=0.5008313057113609 rxn_smarts="[C:1](/[N:2]=[C:3](\[N:4]([H:10])[H:11])[C:5]#[N:6])([H:7])([H:8])[H:9]>>[C:1](=[N:2][C-:3]([N+:4]([H:9])([H:10])[H:11])[C:5]#[N:6])([H:7])[H:8]"
C        1.62334557      -0.46832693       0.05729967
N        0.48893107      -1.01575378      -0.46766451
C       -0.59235286      -0.29737559      -0.37076597
N       -0.44376127       0.94071826       0.35686456
C       -1.91517661      -0.80697431      -0.45879408
N       -3.01095800      -1.16284809      -0.46741972
H        2.42596227      -1.17647738       0.22880400
H        1.98567698       0.45774289      -0.40609232
H        0.76286852       0.58997730       0.94842423
H       -0.02440717       1.67495619      -0.20992624
H       -1.30012849       1.26436145       0.78927039
11
Frame=11 idx=002527 GeodesicLength=0.5509548821504369 rxn_smarts="[C:1](/[N:2]=[C:3](\[N:4]([H:10])[H:11])[C:5]#[N:6])([H:7])([H:8])[H:9]>>[C:1](=[N:2][C-:3]([N+:4]([H:9])([H:10])[H:11])[C:5]#[N:6])([H:7])[H:8]"
C        1.62308632      -0.46821118       0.05806868
N        0.48920622      -1.00889826      -0.47844708
C       -0.59342718      -0.29281557      -0.37515659
N       -0.45136618       0.94215933       0.35926971
C       -1.91518107      -0.80701962      -0.45960198
N       -3.00878503      -1.16975298      -0.45844257
H        2.42080841      -1.18182815       0.23041604
H        1.99363471       0.45375974      -0.40806763
H        0.77628047       0.59160447       0.95731678
H       -0.02078377       1.67343730      -0.20315826
H       -1.31347290       1.26756492       0.77780292
11
Frame=12 idx=002527 GeodesicLength=0.601083544225803 rxn_smarts="[C:1](/[N:2]=[C:3](\[N:4]([H:10])[H:11])[C:5]#[N:6])([H:7])([H:8])[H:9]>>[C:1](=[N:2][C-:3]([N+:4]([H:9])([H:10])[H:11])[C:5]#[N:6])([H:7])[H:8]"
C        1.62278344      -0.46806169       0.05875222
N        0.48941231      -1.00194646      -0.48900527
C       -0.59457418      -0.28821840      -0.37941325
N       -0.45917291       0.94363718       0.36170145
C       -1.91519660      -0.80713557      -0.46026643
N       -3.00646434      -1.17681252      -0.44971382
H        2.41552925      -1.18717602       0.23188592
H        2.00157563       0.44965580      -0.41021747
H        0.79013197       0.59319663       0.96635696
H       -0.01714458       1.67186490      -0.19603344
H       -1.32688000       1.27099614       0.76595314
11
Frame=13 idx=002527 GeodesicLength=0.6512182137708663 rxn_smarts="[C:1](/[N:2]=[C:3](\[N:4]([H:10])[H:11])[C:5]#[N:6])([H:7])([H:8])[H:9]>>[C:1](=[N:2][C-:3]([N+:4]([H:9])([H:10])[H:11])[C:5]#[N:6])([H:7])[H:8]"
C        1.62243442      -0.46787730       0.05935397
N        0.48954634      -0.99489201      -0.49935444
C       -0.59579555      -0.28357437      -0.38355284
N       -0.46719311       0.94515669       0.36415105
C       -1.91522525      -0.80730644      -0.46082060
N       -3.00398788      -1.18405449      -0.44118057
H        2.41011708      -1.19252327       0.23321752
H        2.00950145       0.44543115      -0.41252924
H        0.80443584       0.59473629       0.97555399
H       -0.01348250       1.67023895      -0.18852682
H       -1.34035084       1.27466480       0.75368798
11
Frame=14 idx=002527 GeodesicLength=0.7013526882771047 rxn_smarts="[C:1](/[N:2]=[C:3](\[N:4]([H:10])[H:11])[C:5]#[N:6])([H:7])([H:8])[H:9]>>[C:1](=[N:2][C-:3]([N+:4]([H:9])([H:10])[H:11])[C:5]#[N:6])([H:7])[H:8]"
C        1.62206370      -0.46763594       0.05986777
N        0.48960536      -0.98779717      -0.50938202
C       -0.59709355      -0.27894053      -0.38748668
N       -0.47543421       0.94670137       0.36663899
C       -1.91526568      -0.80759305      -0.46114596
N       -3.00143622      -1.19134764      -0.43307533
H        2.40463480      -1.19780587       0.23439773
H        2.01737284       0.44108487      -0.41509868
H        0.81926043       0.59626426       0.98488659
H       -0.00984171       1.66852015      -0.18065291
H       -1.35386575       1.27854956       0.74105049
11
Frame=15 idx=002527 GeodesicLength=0.7514896118460732 rxn_smarts="[C:1](/[N:2]=[C:3](\[N:4]([H:10])[H:11])[C:5]#[N:6])([H:7])([H:8])[H:9]>>[C:1](=[N:2][C-:3]([N+:4]([H:9])([H:10])[H:11])[C:5]#[N:6])([H:7])[H:8]"
C        1.62166447      -0.46734024       0.06030001
N        0.48958605      -0.98064441      -0.51912859
C       -0.59846994      -0.27429466      -0.39125290
N       -0.48390998       0.94828072       0.36914988
C       -1.91532251      -0.80796103      -0.46131265
N       -2.99878861      -1.19875352      -0.42528449
H        2.39906403      -1.20303804       0.23543573
H        2.02519905       0.43661859      -0.41789155
H        0.83461209       0.59775137       0.99436894
H       -0.00620450       1.66671561      -0.17237669
H       -1.36743014       1.28266560       0.72799230
11
Frame=16 idx=002527 GeodesicLength=0.8016269048314615 rxn_smarts="[C:1](/[N:2]=[C:3](\[N:4]([H:10])[H:11])[C:5]#[N:6])([H:7])([H:8])[H:9]>>[C:1](=[N:2][C-:3]([N+:4]([H:9])([H:10])[H:11])[C:5]#[N:6])([H:7])[H:8]"
C        1.62123390      -0.46698714       0.06065441
N        0.48948394      -0.97342951      -0.52860503
C       -0.59992721      -0.26963007      -0.39486296
N       -0.49263320       0.94989939       0.37167433
C       -1.91539882      -0.80839748      -0.46134607
N       -2.99604056      -1.20629596      -0.41776813
H        2.39339836      -1.20821821       0.23633506
H        2.03297861       0.43203330      -0.42089908
H        0.85051176       0.59918218       1.00400766
H       -0.00256549       1.66482190      -0.16367010
H       -1.38104129       1.28702161       0.71447990
