13
Frame=0 idx=010119 GeodesicLength=0.0 rxn_smarts="[O:1]=[C:2]1[N:3]([H:8])[C:4]([H:9])([H:10])[C@@:5]2([H:11])[C:6]([H:12])([H:13])[N:7]12>>[O:1]=[C:2]1[N+:3]([H:8])([H:10])[C-:4]([H:9])[C@@:5]2([H:11])[C:6]([H:12])([H:13])[N:7]12"
O        1.35935960       2.01416308       0.56663003
C        0.82793436       1.07163217       0.06915725
N        1.43526967      -0.22318652      -0.01242862
C        0.28998164      -1.35746660      -0.36587917
C       -0.84847669      -0.40202984      -0.63295447
C       -1.45321261       0.44882312       0.42061798
N       -0.44514214       1.00505702      -0.50092193
H        2.17754638      -0.41843058       0.64372922
H        0.17147277      -1.95192499       0.54009848
H        1.51637613      -0.75132388      -0.95867067
H       -1.44764129      -0.59404390      -1.51632735
H       -2.44011167       0.87777617       0.29962772
H       -1.14335621       0.28095470       1.44732154
13
Frame=1 idx=010119 GeodesicLength=0.05927406634306055 rxn_smarts="[O:1]=[C:2]1[N:3]([H:8])[C:4]([H:9])([H:10])[C@@:5]2([H:11])[C:6]([H:12])([H:13])[N:7]12>>[O:1]=[C:2]1[N+:3]([H:8])([H:10])[C-:4]([H:9])[C@@:5]2([H:11])[C:6]([H:12])([H:13])[N:7]12"
O        1.36059048       2.01135758       0.57278983
C        0.82765176       1.07061017       0.07296512
N        1.43351628      -0.22441051      -0.01549715
C        0.29421593      -1.35081495      -0.35859493
C       -0.84681523      -0.40031139      -0.63274826
C       -1.45540344       0.44817136       0.42004599
N       -0.44591680       1.00730807      -0.49753727
H        2.17854576      -0.42019505       0.63738639
H        0.17329620      -1.94153045       0.54966183
H        1.51338507      -0.76126834      -0.97347060
H       -1.44175167      -0.59332127      -1.51871402
H       -2.44316265       0.87440185       0.29627252
H       -1.14815170       0.28000293       1.44744055
13
Frame=2 idx=010119 GeodesicLength=0.11854208925675315 rxn_smarts="[O:1]=[C:2]1[N:3]([H:8])[C:4]([H:9])([H:10])[C@@:5]2([H:11])[C:6]([H:12])([H:13])[N:7]12>>[O:1]=[C:2]1[N+:3]([H:8])([H:10])[C-:4]([H:9])[C@@:5]2([H:11])[C:6]([H:12])([H:13])[N:7]12"
O        1.36180930       2.00868132       0.57881363
C        0.82737962       1.06967508       0.07671403
N        1.43175113      -0.22552783      -0.01833968
C        0.29847226      -1.34412232      -0.35149320
C       -0.84512315      -0.39857395      -0.63256189
C       -1.45753609       0.44748928       0.41949228
N       -0.44669402       1.00957106      -0.49415100
H        2.17949226      -0.42183734       0.63128104
H        0.17516400      -1.93117743       0.55896591
H        1.51014136      -0.77160306      -0.98818108
H       -1.43587706      -0.59253810      -1.52107259
H       -2.44614863       0.87098995       0.29298671
H       -1.15283096       0.27897335       1.44754586
13
Frame=3 idx=010119 GeodesicLength=0.17780616794966114 rxn_smarts="[O:1]=[C:2]1[N:3]([H:8])[C:4]([H:9])([H:10])[C@@:5]2([H:11])[C:6]([H:12])([H:13])[N:7]12>>[O:1]=[C:2]1[N+:3]([H:8])([H:10])[C-:4]([H:9])[C@@:5]2([H:11])[C:6]([H:12])([H:13])[N:7]12"
O        1.36300826       2.00612600       0.58473973
C        0.82711660       1.06882728       0.08041713
N        1.42998271      -0.22653485      -0.02097328
C        0.30275050      -1.33738967      -0.34455776
C       -0.84339771      -0.39681616      -0.63239347
C       -1.45961693       0.44677924       0.41895289
N       -0.44747194       1.01184784      -0.49075847
H        2.18041318      -0.42335790       0.62537390
H        0.17708012      -1.92085148       0.56803974
H        1.50662570      -0.78234710      -1.00282087
H       -1.43000427      -0.59169353      -1.52340954
H       -2.44907620       0.86753890       0.28975241
H       -1.15741001       0.27787143       1.44763759
13
Frame=4 idx=010119 GeodesicLength=0.23706372772560166 rxn_smarts="[O:1]=[C:2]1[N:3]([H:8])[C:4]([H:9])([H:10])[C@@:5]2([H:11])[C:6]([H:12])([H:13])[N:7]12>>[O:1]=[C:2]1[N+:3]([H:8])([H:10])[C-:4]([H:9])[C@@:5]2([H:11])[C:6]([H:12])([H:13])[N:7]12"
O        1.36419031       2.00370701       0.59054333
C        0.82686203       1.06807324       0.08406923
N        1.42821034      -0.22742953      -0.02338452
C        0.30705537      -1.33061435      -0.33780015
C       -0.84163758      -0.39503527      -0.63224703
C       -1.46164012       0.44603840       0.41843041
N       -0.44825227       1.01414024      -0.48736247
H        2.18128951      -0.42475546       0.61969950
H        0.17903928      -1.91056988       0.57685899
H        1.50284158      -0.79350705      -1.01738366
H       -1.42414137      -0.59078405      -1.52572358
H       -2.45194045       0.86404744       0.28658402
H       -1.16187663       0.27668926       1.44771591
13
Frame=5 idx=010119 GeodesicLength=0.29631905119115265 rxn_smarts="[O:1]=[C:2]1[N:3]([H:8])[C:4]([H:9])([H:10])[C@@:5]2([H:11])[C:6]([H:12])([H:13])[N:7]12>>[O:1]=[C:2]1[N+:3]([H:8])([H:10])[C-:4]([H:9])[C@@:5]2([H:11])[C:6]([H:12])([H:13])[N:7]12"
O        1.36534413       2.00141451       0.59626778
C        0.82661446       1.06741280       0.08768303
N        1.42644366      -0.22820842      -0.02559116
C        0.31138901      -1.32379723      -0.33120400
C       -0.83983955      -0.39323116      -0.63212087
C       -1.46361198       0.44526945       0.41791931
N       -0.44903290       1.01644919      -0.48396059
H        2.18215020      -0.42603006       0.61421740
H        0.18104741      -1.90031618       0.58545362
H        1.49876729      -0.80510414      -1.03188934
H       -1.41827601      -0.58980933      -1.52802029
H       -2.45474763       0.86051710       0.28346550
H       -1.16624809       0.27543348       1.44777960
13
Frame=6 idx=010119 GeodesicLength=0.3555728921316688 rxn_smarts="[O:1]=[C:2]1[N:3]([H:8])[C:4]([H:9])([H:10])[C@@:5]2([H:11])[C:6]([H:12])([H:13])[N:7]12>>[O:1]=[C:2]1[N+:3]([H:8])([H:10])[C-:4]([H:9])[C@@:5]2([H:11])[C:6]([H:12])([H:13])[N:7]12"
O        1.36646159       1.99923747       0.60195415
C        0.82637451       1.06684736       0.09126729
N        1.42469066      -0.22886643      -0.02760968
C        0.31575207      -1.31693621      -0.32475388
C       -0.83799987      -0.39140131      -0.63201339
C       -1.46553593       0.44447533       0.41741478
N       -0.44981106       1.01877701      -0.48054943
H        2.18302010      -0.42717803       0.60888968
H        0.18310842      -1.89007377       0.59384930
H        1.49437816      -0.81716376      -1.04635137
H       -1.41239725      -0.58876641      -1.53030333
H       -2.45750368       0.85694008       0.28037934
H       -1.17053772       0.27410866       1.44782655
13
Frame=7 idx=010119 GeodesicLength=0.41482517160465193 rxn_smarts="[O:1]=[C:2]1[N:3]([H:8])[C:4]([H:9])([H:10])[C@@:5]2([H:11])[C:6]([H:12])([H:13])[N:7]12>>[O:1]=[C:2]1[N+:3]([H:8])([H:10])[C-:4]([H:9])[C@@:5]2([H:11])[C:6]([H:12])([H:13])[N:7]12"
O        1.36754493       1.99719396       0.60757845
C        0.82614223       1.06638402       0.09481794
N        1.42295075      -0.22940118      -0.02942703
C        0.32014942      -1.31002878      -0.31846256
C       -0.83611697      -0.38954177      -0.63192939
C       -1.46740708       0.44365346       0.41692040
N       -0.45058860       1.02112741      -0.47712993
H        2.18388165      -0.42819928       0.60374968
H        0.18521659      -1.87985769       0.60202276
H        1.48967441      -0.82969762      -1.06076352
H       -1.40651005      -0.58765235      -1.53257453
H       -2.46020547       0.85331327       0.27733953
H       -1.17473182       0.27270654       1.44785820
13
Frame=8 idx=010119 GeodesicLength=0.47407868472340725 rxn_smarts="[O:1]=[C:2]1[N:3]([H:8])[C:4]([H:9])([H:10])[C@@:5]2([H:11])[C:6]([H:12])([H:13])[N:7]12>>[O:1]=[C:2]1[N+:3]([H:8])([H:10])[C-:4]([H:9])[C@@:5]2([H:11])[C:6]([H:12])([H:13])[N:7]12"
O        1.36858965       1.99527821       0.61316266
C        0.82591510       1.06602340       0.09834571
N        1.42123049      -0.22980830      -0.03105378
C        0.32458491      -1.30307216      -0.31232108
C       -0.83418724      -0.38765014      -0.63186728
C       -1.46922945       0.44280407       0.41643313
N       -0.45136516       1.02350172      -0.47369698
H        2.18475040      -0.42909143       0.59877397
H        0.18737931      -1.86965715       0.60998907
H        1.48463354      -0.84272907      -1.07513563
H       -1.40060237      -0.58646251      -1.53483751
H       -2.46285676       0.84963555       0.27433521
H       -1.17884242       0.27122780       1.44787253
13
Frame=9 idx=010119 GeodesicLength=0.5333324436414167 rxn_smarts="[O:1]=[C:2]1[N:3]([H:8])[C:4]([H:9])([H:10])[C@@:5]2([H:11])[C:6]([H:12])([H:13])[N:7]12>>[O:1]=[C:2]1[N+:3]([H:8])([H:10])[C-:4]([H:9])[C@@:5]2([H:11])[C:6]([H:12])([H:13])[N:7]12"
O        1.36959505       1.99349734       0.61871264
C        0.82569340       1.06577140       0.10185352
N        1.41953371      -0.23008238      -0.03249046
C        0.32906191      -1.29606412      -0.30633060
C       -0.83220857      -0.38572411      -0.63182982
C       -1.47100231       0.44192578       0.41595290
N       -0.45214060       1.02590327      -0.47025007
H        2.18562830      -0.42985060       0.59396483
H        0.18959686      -1.85947497       0.61774580
H        1.47924142      -0.85628029      -1.08946883
H       -1.39467280      -0.58519388      -1.53709697
H       -2.46545762       0.84590374       0.27136646
H       -1.18286873       0.26966881       1.44787061
13
Frame=10 idx=010119 GeodesicLength=0.592586418450887 rxn_smarts="[O:1]=[C:2]1[N:3]([H:8])[C:4]([H:9])([H:10])[C@@:5]2([H:11])[C:6]([H:12])([H:13])[N:7]12>>[O:1]=[C:2]1[N+:3]([H:8])([H:10])[C-:4]([H:9])[C@@:5]2([H:11])[C:6]([H:12])([H:13])[N:7]12"
O        1.37055778       1.99185590       0.62423207
C        0.82547577       1.06563215       0.10534460
N        1.41786390      -0.23021858      -0.03373709
C        0.33358560      -1.28900070      -0.30049263
C       -0.83017758      -0.38376022      -0.63181860
C       -1.47272452       0.44101754       0.41547918
N       -0.45291544       1.02833455      -0.46678750
H        2.18651607      -0.43047380       0.58932434
H        0.19187159      -1.84931234       0.62528834
H        1.47348209      -0.87037406      -1.10376247
H       -1.38871792      -0.58384170      -1.53935471
H       -2.46800755       0.84211520       0.26843337
H       -1.18680979       0.26802606       1.44785109
13
Frame=11 idx=010119 GeodesicLength=0.6518378460384138 rxn_smarts="[O:1]=[C:2]1[N:3]([H:8])[C:4]([H:9])([H:10])[C@@:5]2([H:11])[C:6]([H:12])([H:13])[N:7]12>>[O:1]=[C:2]1[N+:3]([H:8])([H:10])[C-:4]([H:9])[C@@:5]2([H:11])[C:6]([H:12])([H:13])[N:7]12"
O        1.37148103       1.99037124       0.62969775
C        0.82526092       1.06561292       0.10881753
N        1.41622148      -0.23021234      -0.03478018
C        0.33816244      -1.28187776      -0.29482067
C       -0.82809208      -0.38175491      -0.63183782
C       -1.47439128       0.44007581       0.41501481
N       -0.45369153       1.03079840      -0.46330994
H        2.18739824      -0.43095811       0.58488507
H        0.19420070      -1.83918744       0.63258977
H        1.46735004      -0.88502599      -1.11800766
H       -1.38274389      -0.58240210      -1.54161062
H       -2.47050186       0.83826934       0.26554758
H       -1.19065420       0.26629094       1.44781439
13
Frame=12 idx=010119 GeodesicLength=0.7110805920604829 rxn_smarts="[O:1]=[C:2]1[N:3]([H:8])[C:4]([H:9])([H:10])[C@@:5]2([H:11])[C:6]([H:12])([H:13])[N:7]12>>[O:1]=[C:2]1[N+:3]([H:8])([H:10])[C-:4]([H:9])[C@@:5]2([H:11])[C:6]([H:12])([H:13])[N:7]12"
O        1.37236809       1.98906071       0.63508875
C        0.82504817       1.06572122       0.11227131
N        1.41460840      -0.23005860      -0.03560723
C        0.34279954      -1.27469176      -0.28932751
C       -0.82594968      -0.37970469      -0.63189162
C       -1.47599869       0.43909718       0.41456227
N       -0.45447056       1.03329816      -0.45981799
H        2.18826216      -0.43130045       0.58067772
H        0.19658181      -1.82911895       0.63962450
H        1.46083606      -0.90025261      -1.13219561
H       -1.37675604      -0.58087094      -1.54386514
H       -2.47293723       0.83436582       0.26271966
H       -1.19439203       0.26445493       1.44776089
13
Frame=13 idx=010119 GeodesicLength=0.7703266631132156 rxn_smarts="[O:1]=[C:2]1[N:3]([H:8])[C:4]([H:9])([H:10])[C@@:5]2([H:11])[C:6]([H:12])([H:13])[N:7]12>>[O:1]=[C:2]1[N+:3]([H:8])([H:10])[C-:4]([H:9])[C@@:5]2([H:11])[C:6]([H:12])([H:13])[N:7]12"
O        1.37321838       1.98794036       0.64038613
C        0.82483419       1.06596439       0.11570537
N        1.41302331      -0.22975127      -0.03620435
C        0.34750303      -1.26743636      -0.28402644
C       -0.82374795      -0.37760490      -0.63198434
C       -1.47754065       0.43807833       0.41412417
N       -0.45525468       1.03583642      -0.45631160
H        2.18909406      -0.43149729       0.57673341
H        0.19901271      -1.81912277       0.64636539
H        1.45393518      -0.91607709      -1.14632025
H       -1.37076025      -0.57924403      -1.54611859
H       -2.47530723       0.83040331       0.25996047
H       -1.19801011       0.26251090       1.44769063
13
Frame=14 idx=010119 GeodesicLength=0.8295478342782816 rxn_smarts="[O:1]=[C:2]1[N:3]([H:8])[C:4]([H:9])([H:10])[C@@:5]2([H:11])[C:6]([H:12])([H:13])[N:7]12>>[O:1]=[C:2]1[N+:3]([H:8])([H:10])[C-:4]([H:9])[C@@:5]2([H:11])[C:6]([H:12])([H:13])[N:7]12"
O        1.37403839       1.98702467       0.64557182
C        0.82461920       1.06634502       0.11912826
N        1.41147207      -0.22928747      -0.03656661
C        0.35228002      -1.26010964      -0.27892258
C       -0.82148070      -0.37545354      -0.63211855
C       -1.47901512       0.43701455       0.41370093
N       -0.45604228       1.03841435      -0.45278856
H        2.18988364      -0.43154773       0.57307207
H        0.20149343      -1.80920992       0.65280092
H        1.44661591      -0.93250277      -1.16037961
H       -1.36474945      -0.57751717      -1.54837446
H       -2.47760889       0.82637993       0.25727302
H       -1.20150621       0.26044972       1.44760335
13
Frame=15 idx=010119 GeodesicLength=0.8887620858238438 rxn_smarts="[O:1]=[C:2]1[N:3]([H:8])[C:4]([H:9])([H:10])[C@@:5]2([H:11])[C:6]([H:12])([H:13])[N:7]12>>[O:1]=[C:2]1[N+:3]([H:8])([H:10])[C-:4]([H:9])[C@@:5]2([H:11])[C:6]([H:12])([H:13])[N:7]12"
O        1.37482126       1.98631707       0.65066658
C        0.82440133       1.06687071       0.12254470
N        1.40996072      -0.22865679      -0.03669977
C        0.35713671      -1.25270591      -0.27401692
C       -0.81914599      -0.37324462      -0.63229670
C       -1.48042361       0.43590569       0.41329152
N       -0.45683542       1.04103843      -0.44924446
H        2.19064607      -0.43144582       0.56968345
H        0.20403153      -1.79937456       0.65893216
H        1.43885803      -0.94958210      -1.17437253
H       -1.35871916      -0.57567989      -1.55063980
H       -2.47984761       0.82228876       0.25465343
H       -1.20488387       0.25826904       1.44749835
13
Frame=16 idx=010119 GeodesicLength=0.9479728768667355 rxn_smarts="[O:1]=[C:2]1[N:3]([H:8])[C:4]([H:9])([H:10])[C@@:5]2([H:11])[C:6]([H:12])([H:13])[N:7]12>>[O:1]=[C:2]1[N+:3]([H:8])([H:10])[C-:4]([H:9])[C@@:5]2([H:11])[C:6]([H:12])([H:13])[N:7]12"
O        1.37555953       1.98581283       0.65570396
C        0.82418079       1.06754476       0.12596577
N        1.40849847      -0.22785060      -0.03661565
C        0.36208012      -1.24521858      -0.26930207
C       -0.81673650      -0.37097356      -0.63251948
C       -1.48176778       0.43475235       0.41289110
N       -0.45763125       1.04371224      -0.44567461
H        2.19140162      -0.43118288       0.56654038
H        0.20663653      -1.78960233       0.66477347
H        1.43061397      -0.96735554      -1.18830316
H       -1.35265530      -0.57372752      -1.55291969
H       -2.48202579       0.81812331       0.25208724
H       -1.20815440       0.25596553       1.44737275
