12
Frame=0 idx=004519 GeodesicLength=0.0 rxn_smarts="[O:1]([C@@:2]1([H:8])[C@@:3]2([H:9])[C:4]([H:10])([H:11])[O:5][C@@:6]12[H:12])[H:7]>>[O:1](/[C:2](=[C:3](\[C:4]([O+:5]=[C-:6][H:12])([H:10])[H:11])[H:9])[H:8])[H:7]"
O       -0.56145746       1.23120799      -1.49743602
C       -0.40096456       1.27688173      -0.17475271
C       -0.43746828       0.22886284       0.69442793
C       -0.28843269      -1.18283370       0.16541975
O        0.79790104      -0.98252635      -0.73252191
C        1.49284904       0.06562025      -0.11506171
H       -0.27504875       0.36021760      -1.81472028
H       -0.35540955       2.29174987       0.20302278
H       -0.50676712       0.43273566       1.75342571
H       -0.00709558      -1.88057772       0.96026711
H       -1.15451878      -1.58151526      -0.37263062
H        1.69641273      -0.25982295       0.93056000
12
Frame=1 idx=004519 GeodesicLength=0.03775606868416324 rxn_smarts="[O:1]([C@@:2]1([H:8])[C@@:3]2([H:9])[C:4]([H:10])([H:11])[O:5][C@@:6]12[H:12])[H:7]>>[O:1](/[C:2](=[C:3](\[C:4]([O+:5]=[C-:6][H:12])([H:10])[H:11])[H:9])[H:8])[H:7]"
O       -0.56955220       1.23173123      -1.49897569
C       -0.39188886       1.27760488      -0.17645963
C       -0.43906722       0.22905692       0.69637299
C       -0.29033081      -1.18219629       0.16837479
O        0.79831181      -0.98121831      -0.73004051
C        1.49320519       0.06228549      -0.11171665
H       -0.27732188       0.36472634      -1.82074416
H       -0.35725202       2.29246640       0.20242008
H       -0.52694239       0.43214906       1.75410452
H       -0.00684169      -1.87988564       0.96227063
H       -1.15457212      -1.58058995      -0.37232166
H        1.72225220      -0.26613012       0.92671530
12
Frame=2 idx=004519 GeodesicLength=0.0754971967675912 rxn_smarts="[O:1]([C@@:2]1([H:8])[C@@:3]2([H:9])[C:4]([H:10])([H:11])[O:5][C@@:6]12[H:12])[H:7]>>[O:1](/[C:2](=[C:3](\[C:4]([O+:5]=[C-:6][H:12])([H:10])[H:11])[H:9])[H:8])[H:7]"
O       -0.57763819       1.23226293      -1.50031548
C       -0.38282965       1.27830098      -0.17814145
C       -0.44074926       0.22929977       0.69835659
C       -0.29223628      -1.18153570       0.17143992
O        0.79872600      -0.97988412      -0.72744754
C        1.49355667       0.05892577      -0.10813952
H       -0.27952004       0.36940034      -1.82672032
H       -0.35906503       2.29305493       0.20184757
H       -0.54786375       0.43165521       1.75442319
H       -0.00658156      -1.87909027       0.96444429
H       -1.15458682      -1.57969049      -0.37192263
H        1.74878792      -0.27269934       0.92217539
12
Frame=3 idx=004519 GeodesicLength=0.11322170678012197 rxn_smarts="[O:1]([C@@:2]1([H:8])[C@@:3]2([H:9])[C:4]([H:10])([H:11])[O:5][C@@:6]12[H:12])[H:7]>>[O:1](/[C:2](=[C:3](\[C:4]([O+:5]=[C-:6][H:12])([H:10])[H:11])[H:9])[H:8])[H:7]"
O       -0.58569626       1.23280754      -1.50145359
C       -0.37380518       1.27896608      -0.17978935
C       -0.44252742       0.22958837       0.70038693
C       -0.29415067      -1.18085409       0.17462289
O        0.79914449      -0.97851893      -0.72473092
C        1.49389604       0.05554469      -0.10430931
H       -0.28164609       0.37424036      -1.83264081
H       -0.36081674       2.29351372       0.20131052
H       -0.56956756       0.43124749       1.75434972
H       -0.00631437      -1.87819023       0.96679822
H       -1.15455853      -1.57882606      -0.37142896
H        1.77604228      -0.27951893       0.91688466
12
Frame=4 idx=004519 GeodesicLength=0.15093093911229566 rxn_smarts="[O:1]([C@@:2]1([H:8])[C@@:3]2([H:9])[C:4]([H:10])([H:11])[O:5][C@@:6]12[H:12])[H:7]>>[O:1](/[C:2](=[C:3](\[C:4]([O+:5]=[C-:6][H:12])([H:10])[H:11])[H:9])[H:8])[H:7]"
O       -0.59370405       1.23336975      -1.50238839
C       -0.36483303       1.27959552      -0.18139258
C       -0.44441635       0.22991909       0.70247370
C       -0.29607691      -1.18015423       0.17793283
O        0.79956827      -0.97711897      -0.72187565
C        1.49421566       0.05214428      -0.10020003
H       -0.28369963       0.37924672      -1.83849624
H       -0.36247602       2.29384231       0.20081598
H       -0.59209312       0.43091761       1.75384871
H       -0.00604224      -1.87718489       0.96934421
H       -1.15448369      -1.57800608      -0.37083606
H        1.80404109      -0.28657112       0.91077352
12
Frame=5 idx=004519 GeodesicLength=0.18862410515949132 rxn_smarts="[O:1]([C@@:2]1([H:8])[C@@:3]2([H:9])[C:4]([H:10])([H:11])[O:5][C@@:6]12[H:12])[H:7]>>[O:1](/[C:2](=[C:3](\[C:4]([O+:5]=[C-:6][H:12])([H:10])[H:11])[H:9])[H:8])[H:7]"
O       -0.60163786       1.23395504      -1.50312103
C       -0.35592938       1.28018446      -0.18294096
C       -0.44643393       0.23028776       0.70462497
C       -0.29801947      -1.17943943       0.18137803
O        0.79999826      -0.97568101      -0.71886531
C        1.49450726       0.04872575      -0.09578267
H       -0.28567772       0.38441802      -1.84427827
H       -0.36401684       2.29404139       0.20037177
H       -0.61546812       0.43065779       1.75289011
H       -0.00576991      -1.87607429       0.97209317
H       -1.15435933      -1.57724036      -0.37014154
H        1.83280706      -0.29383512       0.90377174
12
Frame=6 idx=004519 GeodesicLength=0.22630529924305767 rxn_smarts="[O:1]([C@@:2]1([H:8])[C@@:3]2([H:9])[C:4]([H:10])([H:11])[O:5][C@@:6]12[H:12])[H:7]>>[O:1](/[C:2](=[C:3](\[C:4]([O+:5]=[C-:6][H:12])([H:10])[H:11])[H:9])[H:8])[H:7]"
O       -0.60947157       1.23456881      -1.50365028
C       -0.34710709       1.28072761      -0.18442026
C       -0.44859659       0.23068984       0.70685387
C       -0.29998384      -1.17871301       0.18496986
O        0.80043519      -0.97420296      -0.71567986
C        1.49476357       0.04528664      -0.09102411
H       -0.28757520       0.38975285      -1.84997488
H       -0.36541164       2.29411281       0.19998919
H       -0.63973424       0.43045573       1.75142656
H       -0.00550448      -1.87485912       0.97505975
H       -1.15418371      -1.57653743      -0.36934045
H        1.86236961      -0.30128178       0.89579064
12
Frame=7 idx=004519 GeodesicLength=0.26397532441675614 rxn_smarts="[O:1]([C@@:2]1([H:8])[C@@:3]2([H:9])[C:4]([H:10])([H:11])[O:5][C@@:6]12[H:12])[H:7]>>[O:1](/[C:2](=[C:3](\[C:4]([O+:5]=[C-:6][H:12])([H:10])[H:11])[H:9])[H:8])[H:7]"
O       -0.61717569       1.23521627      -1.50397758
C       -0.33837777       1.28122005      -0.18581622
C       -0.45092515       0.23112103       0.70917170
C       -0.30197736      -1.17797850       0.18871978
O        0.80088110      -0.97268341      -0.71229515
C        1.49497653       0.04182530      -0.08588388
H       -0.28937886       0.39524821      -1.85557381
H       -0.36664223       2.29405856       0.19968030
H       -0.66492133       0.43030140       1.74941911
H       -0.00525767      -1.87354024       0.97825927
H       -1.15395468      -1.57590634      -0.36843061
H        1.89275313      -0.30888233       0.88672710
12
Frame=8 idx=004519 GeodesicLength=0.30163821302042043 rxn_smarts="[O:1]([C@@:2]1([H:8])[C@@:3]2([H:9])[C:4]([H:10])([H:11])[O:5][C@@:6]12[H:12])[H:7]>>[O:1](/[C:2](=[C:3](\[C:4]([O+:5]=[C-:6][H:12])([H:10])[H:11])[H:9])[H:8])[H:7]"
O       -0.62472004       1.23590476      -1.50410499
C       -0.32975067       1.28165547      -0.18711318
C       -0.45344113       0.23157498       0.71159113
C       -0.30400887      -1.17723904       0.19264141
O        0.80133688      -0.97111921      -0.70868453
C        1.49513870       0.03833667      -0.08031876
H       -0.29107468       0.40090126      -1.86106589
H       -0.36768975       2.29388338       0.19945940
H       -0.69105787       0.43017625       1.74681716
H       -0.00504301      -1.87211794       0.98171119
H       -1.15367194      -1.57535540      -0.36740714
H        1.92398237      -0.31660117       0.87647420
12
Frame=9 idx=004519 GeodesicLength=0.3392805760528866 rxn_smarts="[O:1]([C@@:2]1([H:8])[C@@:3]2([H:9])[C:4]([H:10])([H:11])[O:5][C@@:6]12[H:12])[H:7]>>[O:1](/[C:2](=[C:3](\[C:4]([O+:5]=[C-:6][H:12])([H:10])[H:11])[H:9])[H:8])[H:7]"
O       -0.63206429       1.23663749      -1.50402445
C       -0.32122778       1.28203677      -0.18828959
C       -0.45616689       0.23205935       0.71412935
C       -0.30607863      -1.17649510       0.19675648
O        0.80181240      -0.96951138      -0.70481261
C        1.49524104       0.03482686      -0.07426787
H       -0.29263319       0.40671010      -1.86642056
H       -0.36855782       2.29358676       0.19934725
H       -0.71821702       0.43007933       1.74354591
H       -0.00486778      -1.87058384       0.98544627
H       -1.15332261      -1.57489475      -0.36625800
H        1.95608257      -0.32445158       0.86484782
12
Frame=10 idx=004519 GeodesicLength=0.3769115245804738 rxn_smarts="[O:1]([C@@:2]1([H:8])[C@@:3]2([H:9])[C:4]([H:10])([H:11])[O:5][C@@:6]12[H:12])[H:7]>>[O:1](/[C:2](=[C:3](\[C:4]([O+:5]=[C-:6][H:12])([H:10])[H:11])[H:9])[H:8])[H:7]"
O       -0.63917359       1.23742416      -1.50374401
C       -0.31281445       1.28234874      -0.18932916
C       -0.45912682       0.23255548       0.71679648
C       -0.30820790      -1.17575709       0.20107229
O        0.80230089      -0.96786490      -0.70065475
C        1.49527671       0.03126884      -0.06769009
H       -0.29403934       0.41266935      -1.87163821
H       -0.36921265       2.29317227       0.19935890
H       -0.74638584       0.42998253       1.73957627
H       -0.00476299      -1.86895216       0.98947374
H       -1.15291980      -1.57453180      -0.36498823
H        1.98906577      -0.33231542       0.85176676
12
Frame=11 idx=004519 GeodesicLength=0.41451783025508415 rxn_smarts="[O:1]([C@@:2]1([H:8])[C@@:3]2([H:9])[C:4]([H:10])([H:11])[O:5][C@@:6]12[H:12])[H:7]>>[O:1](/[C:2](=[C:3](\[C:4]([O+:5]=[C-:6][H:12])([H:10])[H:11])[H:9])[H:8])[H:7]"
O       -0.64600775       1.23826985      -1.50326329
C       -0.30450976       1.28258261      -0.19021135
C       -0.46234657       0.23305617       0.71960351
C       -0.31041127      -1.17503337       0.20560038
O        0.80280196      -0.96618789      -0.69618035
C        1.49523727       0.02764461      -0.06053328
H       -0.29526597       0.41877366      -1.87670146
H       -0.36963992       2.29263770       0.19951496
H       -0.77557666       0.42987629       1.73486055
H       -0.00475467      -1.86722969       0.99380957
H       -1.15246700      -1.57427564      -0.36359958
H        2.02294033      -0.34011431       0.83710035
12
Frame=12 idx=004519 GeodesicLength=0.4520901634955217 rxn_smarts="[O:1]([C@@:2]1([H:8])[C@@:3]2([H:9])[C:4]([H:10])([H:11])[O:5][C@@:6]12[H:12])[H:7]>>[O:1](/[C:2](=[C:3](\[C:4]([O+:5]=[C-:6][H:12])([H:10])[H:11])[H:9])[H:8])[H:7]"
O       -0.65252150       1.23918136      -1.50258003
C       -0.29630835       1.28272989      -0.19091152
C       -0.46585287       0.23355411       0.72256455
C       -0.31270517      -1.17433280       0.21035683
O        0.80331538      -0.96449083      -0.69135236
C        1.49511483       0.02393196      -0.05273581
H       -0.29627901       0.42501757      -1.88159081
H       -0.36982472       2.29198280       0.19984034
H       -0.80581187       0.42974462       1.72933450
H       -0.00487323      -1.86542380       0.99847635
H       -1.15196798      -1.57413568      -0.36209010
H        2.05771447      -0.34775920       0.82068805
12
Frame=13 idx=004519 GeodesicLength=0.48961132003832414 rxn_smarts="[O:1]([C@@:2]1([H:8])[C@@:3]2([H:9])[C:4]([H:10])([H:11])[O:5][C@@:6]12[H:12])[H:7]>>[O:1](/[C:2](=[C:3](\[C:4]([O+:5]=[C-:6][H:12])([H:10])[H:11])[H:9])[H:8])[H:7]"
O       -0.65865857       1.24016085      -1.50169615
C       -0.28820529       1.28277756      -0.19140763
C       -0.46968716       0.23403623       0.72568651
C       -0.31511384      -1.17366554       0.21535488
O        0.80384150      -0.96278226      -0.68612375
C        1.49489726       0.02010489      -0.04421931
H       -0.29702463       0.43139340      -1.88629060
H       -0.36975649       2.29120137       0.20035795
H       -0.83706211       0.42956841       1.72296456
H       -0.00516496      -1.86354432       1.00349588
H       -1.15142908      -1.57412233      -0.36046981
H        2.09336337      -0.35512827       0.80234748
12
Frame=14 idx=004519 GeodesicLength=0.5270801658433459 rxn_smarts="[O:1]([C@@:2]1([H:8])[C@@:3]2([H:9])[C:4]([H:10])([H:11])[O:5][C@@:6]12[H:12])[H:7]>>[O:1](/[C:2](=[C:3](\[C:4]([O+:5]=[C-:6][H:12])([H:10])[H:11])[H:9])[H:8])[H:7]"
O       -0.66435637       1.24121779      -1.50060754
C       -0.28018627       1.28271278      -0.19166471
C       -0.47388027       0.23449184       0.72898774
C       -0.31766180      -1.17304598       0.22061495
O        0.80437732      -0.96108407      -0.68044731
C        1.49457507       0.01612385      -0.03490434
H       -0.29745162       0.43789537      -1.89077544
H       -0.36941865       2.29029043       0.20110157
H       -0.86935749       0.42933132       1.71566842
H       -0.00567558      -1.86160542       1.00889679
H       -1.15086001      -1.57424569      -0.35873545
H        2.12989569      -0.36208221       0.78186533
12
Frame=15 idx=004519 GeodesicLength=0.564476048276303 rxn_smarts="[O:1]([C@@:2]1([H:8])[C@@:3]2([H:9])[C:4]([H:10])([H:11])[O:5][C@@:6]12[H:12])[H:7]>>[O:1](/[C:2](=[C:3](\[C:4]([O+:5]=[C-:6][H:12])([H:10])[H:11])[H:9])[H:8])[H:7]"
O       -0.66954297       1.24235312      -1.49931382
C       -0.27223560       1.28251606      -0.19165212
C       -0.47847858       0.23490165       0.73247632
C       -0.32038379      -1.17249047       0.22615076
O        0.80491909      -0.95941560      -0.67426545
C        1.49413378       0.01194358      -0.02469809
H       -0.29748693       0.44451396      -1.89502218
H       -0.36879364       2.28923690       0.20210148
H       -0.90265149       0.42901435       1.70740147
H       -0.00647163      -1.85962569       1.01470256
H       -1.15027470      -1.57451673      -0.35690091
H        2.16726646      -0.36843114       0.75901997
12
Frame=16 idx=004519 GeodesicLength=0.601805720997104 rxn_smarts="[O:1]([C@@:2]1([H:8])[C@@:3]2([H:9])[C:4]([H:10])([H:11])[O:5][C@@:6]12[H:12])[H:7]>>[O:1](/[C:2](=[C:3](\[C:4]([O+:5]=[C-:6][H:12])([H:10])[H:11])[H:9])[H:8])[H:7]"
O       -0.67412553       1.24357073      -1.49781666
C       -0.26433465       1.28216686      -0.19133020
C       -0.48353890       0.23524677       0.73616642
C       -0.32332132      -1.17201998       0.23198415
O        0.80546907      -0.95780869      -0.66750865
C        1.49355431       0.00750896      -0.01347754
H       -0.29702970       0.45124250      -1.89900865
H       -0.36786682       2.28802800       0.20339337
H       -0.93692732       0.42859910       1.69811969
H       -0.00763442      -1.85762915       1.02095152
H       -1.14969024      -1.57494781      -0.35497852
H        2.20544551      -0.37395727       0.73350507
