12
Frame=0 idx=005294 GeodesicLength=0.0 rxn_smarts="[O:1]([C@:2]12[C:3]([H:8])([H:9])[C@@:4]1([H:10])[O:5][C:6]2([H:11])[H:12])[H:7]>>[O:1]([C@:2]1([C:6]([O:5][H:10])([H:11])[H:12])[C:3]([H:8])([H:9])[C:4]1)[H:7]"
O        0.07320996      -1.46037036      -1.18932425
C       -0.00357042      -0.41533921      -0.28882179
C       -1.24830993      -0.15651011       0.50315960
C       -0.85331896       0.80516332      -0.54765735
O        0.57719639       1.61248326       0.36251842
C        1.20932919       0.33721145       0.18822501
H        0.08509393      -2.28735486      -0.70253346
H       -2.07978091      -0.77695392       0.18048283
H       -1.26453470       0.13853890       1.54525789
H       -0.12875669       1.81659121      -0.59532414
H        1.65474878       0.01411156       1.13265307
H        1.97869337       0.37242873      -0.58863580
12
Frame=1 idx=005294 GeodesicLength=0.0498271508409446 rxn_smarts="[O:1]([C@:2]12[C:3]([H:8])([H:9])[C@@:4]1([H:10])[O:5][C:6]2([H:11])[H:12])[H:7]>>[O:1]([C@:2]1([C:6]([O:5][H:10])([H:11])[H:12])[C:3]([H:8])([H:9])[C:4]1)[H:7]"
O        0.07808303      -1.45826040      -1.19100258
C       -0.00288180      -0.41690353      -0.28643684
C       -1.24894292      -0.16157185       0.50327884
C       -0.85427365       0.80136376      -0.54694265
O        0.57813405       1.61398746       0.35987054
C        1.20947751       0.33786161       0.19070975
H        0.07776630      -2.28715150      -0.70732587
H       -2.08288882      -0.78131353       0.18620700
H       -1.25835241       0.13807027       1.54442052
H       -0.12799920       1.82938135      -0.60422069
H        1.65172026       0.01423415       1.13634035
H        1.98015766       0.37030221      -0.58489837
12
Frame=2 idx=005294 GeodesicLength=0.09965608915820917 rxn_smarts="[O:1]([C@:2]12[C:3]([H:8])([H:9])[C@@:4]1([H:10])[O:5][C:6]2([H:11])[H:12])[H:7]>>[O:1]([C@:2]1([C:6]([O:5][H:10])([H:11])[H:12])[C:3]([H:8])([H:9])[C:4]1)[H:7]"
O        0.08296199      -1.45618278      -1.19261491
C       -0.00219161      -0.41850768      -0.28402732
C       -1.24956318      -0.16668382       0.50343041
C       -0.85523424       0.79751276      -0.54621157
O        0.57906726       1.61546932       0.35716929
C        1.20961779       0.33849905       0.19320281
H        0.07043473      -2.28689804      -0.71224661
H       -2.08599290      -0.78568777       0.19202956
H       -1.25223994       0.13758772       1.54354303
H       -0.12715682       1.84234446      -0.61317615
H        1.64868269       0.01439155       1.14004065
H        1.98161424       0.36815524      -0.58113920
12
Frame=3 idx=005294 GeodesicLength=0.14948064625722818 rxn_smarts="[O:1]([C@:2]12[C:3]([H:8])([H:9])[C@@:4]1([H:10])[O:5][C:6]2([H:11])[H:12])[H:7]>>[O:1]([C@:2]1([C:6]([O:5][H:10])([H:11])[H:12])[C:3]([H:8])([H:9])[C:4]1)[H:7]"
O        0.08784558      -1.45413868      -1.19416069
C       -0.00150098      -0.42015185      -0.28159419
C       -1.25017102      -0.17184652       0.50361430
C       -0.85620213       0.79360801      -0.54546422
O        0.57999262       1.61692529       0.35441578
C        1.20974737       0.33912277       0.19570279
H        0.06310564      -2.28659114      -0.71729287
H       -2.08909158      -0.79007673       0.19795278
H       -1.24619842       0.13709065       1.54262598
H       -0.12622021       1.85548839      -0.62219112
H        1.64563326       0.01458228       1.14375135
H        1.98305986       0.36598754      -0.57735990
12
Frame=4 idx=005294 GeodesicLength=0.199305156805192 rxn_smarts="[O:1]([C@:2]12[C:3]([H:8])([H:9])[C@@:4]1([H:10])[O:5][C:6]2([H:11])[H:12])[H:7]>>[O:1]([C@:2]1([C:6]([O:5][H:10])([H:11])[H:12])[C:3]([H:8])([H:9])[C:4]1)[H:7]"
O        0.09272879      -1.45213592      -1.19563582
C       -0.00081254      -0.42183680      -0.27913892
C       -1.25076985      -0.17706068       0.50382841
C       -0.85718011       0.78965029      -0.54470257
O        0.58090790       1.61835298       0.35161782
C        1.20986655       0.33973208       0.19820630
H        0.05579297      -2.28623395      -0.72245165
H       -2.09218973      -0.79447767       0.20397062
H       -1.24023348       0.13657709       1.54166931
H       -0.12517973       1.86882797      -0.63126011
H        1.64257938       0.01479978       1.14746544
H        1.98448985       0.36380482      -0.57356884
12
Frame=5 idx=005294 GeodesicLength=0.2491284074001614 rxn_smarts="[O:1]([C@:2]12[C:3]([H:8])([H:9])[C@@:4]1([H:10])[O:5][C:6]2([H:11])[H:12])[H:7]>>[O:1]([C@:2]1([C:6]([O:5][H:10])([H:11])[H:12])[C:3]([H:8])([H:9])[C:4]1)[H:7]"
O        0.09761932      -1.45016662      -1.19704621
C       -0.00012336      -0.42356342      -0.27666034
C       -1.25135501      -0.18233160       0.50407740
C       -0.85817055       0.78563289      -0.54392501
O        0.58180982       1.61975501       0.34876242
C        1.20997246       0.34033003       0.20071743
H        0.04846855      -2.28582195      -0.72774193
H       -2.09527789      -0.79890297       0.21009756
H       -1.23433693       0.13604265       1.54067730
H       -0.12402476       1.88236712      -0.64039996
H        1.63950785       0.01505677       1.15119382
H        1.98591050       0.36160210      -0.56975248
12
Frame=6 idx=005294 GeodesicLength=0.29894646229625665 rxn_smarts="[O:1]([C@:2]12[C:3]([H:8])([H:9])[C@@:4]1([H:10])[O:5][C:6]2([H:11])[H:12])[H:7]>>[O:1]([C@:2]1([C:6]([O:5][H:10])([H:11])[H:12])[C:3]([H:8])([H:9])[C:4]1)[H:7]"
O        0.10250936      -1.44824363      -1.19838237
C        0.00056260      -0.42533129      -0.27416208
C       -1.25193177      -0.18765758       0.50435565
C       -0.85917555       0.78155688      -0.54313482
O        0.58269520       1.62112492       0.34586275
C        1.21006468       0.34091445       0.20322915
H        0.04115962      -2.28535713      -0.73313632
H       -2.09836349      -0.80334363       0.21632055
H       -1.22851612       0.13548616       1.53964598
H       -0.12274773       1.89612408      -0.64959328
H        1.63642958       0.01533822       1.15491991
H        1.98731362       0.35938856      -0.56592512
12
Frame=7 idx=005294 GeodesicLength=0.34876554539027144 rxn_smarts="[O:1]([C@:2]12[C:3]([H:8])([H:9])[C@@:4]1([H:10])[O:5][C:6]2([H:11])[H:12])[H:7]>>[O:1]([C@:2]1([C:6]([O:5][H:10])([H:11])[H:12])[C:3]([H:8])([H:9])[C:4]1)[H:7]"
O        0.10740329      -1.44636294      -1.19965106
C        0.00124682      -0.42714396      -0.27164106
C       -1.25249785      -0.19304306       0.50466772
C       -0.86019776       0.77741670      -0.54233192
O        0.58356034       1.62246540       0.34291042
C        1.21014100       0.34148687       0.20574544
H        0.03385066      -2.28483989      -0.73865351
H       -2.10144201      -0.80780860       0.22265277
H       -1.22276792       0.13490670       1.53858052
H       -0.12133603       1.91010748      -0.65885472
H        1.63333787       0.01565519       1.15865405
H        1.98870160       0.35716011      -0.56207865
12
Frame=8 idx=005294 GeodesicLength=0.3985866495333662 rxn_smarts="[O:1]([C@:2]12[C:3]([H:8])([H:9])[C@@:4]1([H:10])[O:5][C:6]2([H:11])[H:12])[H:7]>>[O:1]([C@:2]1([C:6]([O:5][H:10])([H:11])[H:12])[C:3]([H:8])([H:9])[C:4]1)[H:7]"
O        0.11230653      -1.44451984      -1.20085687
C        0.00192997      -0.42900281      -0.26909601
C       -1.25305147      -0.19849204       0.50501732
C       -0.86124132       0.77320665      -0.54151528
O        0.58440140       1.62377753       0.33989663
C        1.21019907       0.34204893       0.20827006
H        0.02652453      -2.28426567      -0.74430847
H       -2.10450760      -0.81230900       0.22910675
H       -1.21708733       0.13430219       1.53748430
H       -0.11977491       1.92432349      -0.66819830
H        1.63022474       0.01601631       1.16240453
H        1.99007641       0.35491425      -0.55820467
12
Frame=9 idx=005294 GeodesicLength=0.4484076766528531 rxn_smarts="[O:1]([C@:2]12[C:3]([H:8])([H:9])[C@@:4]1([H:10])[O:5][C:6]2([H:11])[H:12])[H:7]>>[O:1]([C@:2]1([C:6]([O:5][H:10])([H:11])[H:12])[C:3]([H:8])([H:9])[C:4]1)[H:7]"
O        0.11721210      -1.44272098      -1.20199538
C        0.00260840      -0.43090816      -0.26652883
C       -1.25359646      -0.20400516       0.50540265
C       -0.86230898       0.76892650      -0.54068618
O        0.58521466       1.62505679       0.33682842
C        1.21023705       0.34259913       0.21079833
H        0.01920237      -2.28363484      -0.75008560
H       -2.10756437      -0.81684160       0.23567772
H       -1.21148048       0.13367059       1.53635667
H       -0.11804981       1.93878827      -0.67761701
H        1.62709431       0.01641428       1.16616218
H        1.99143121       0.35265518      -0.55431297
12
Frame=10 idx=005294 GeodesicLength=0.498229500850145 rxn_smarts="[O:1]([C@:2]12[C:3]([H:8])([H:9])[C@@:4]1([H:10])[O:5][C:6]2([H:11])[H:12])[H:7]>>[O:1]([C@:2]1([C:6]([O:5][H:10])([H:11])[H:12])[C:3]([H:8])([H:9])[C:4]1)[H:7]"
O        0.12212667      -1.44096602      -1.20306745
C        0.00328381      -0.43286243      -0.26393747
C       -1.25413090      -0.20958673       0.50582532
C       -0.86340343       0.76456989      -0.53984491
O        0.58599479       1.62630449       0.33369963
C        1.21025250       0.34313996       0.21333288
H        0.01186318      -2.28294588      -0.75599644
H       -2.11060719      -0.82141463       0.24237395
H       -1.20594218       0.13300717       1.53519971
H       -0.11614614       1.95351212      -0.68712017
H        1.62394254       0.01685847       1.16993218
H        1.99276635       0.35038359      -0.55039723
12
Frame=11 idx=005294 GeodesicLength=0.5480499198245161 rxn_smarts="[O:1]([C@:2]12[C:3]([H:8])([H:9])[C@@:4]1([H:10])[O:5][C:6]2([H:11])[H:12])[H:7]>>[O:1]([C@:2]1([C:6]([O:5][H:10])([H:11])[H:12])[C:3]([H:8])([H:9])[C:4]1)[H:7]"
O        0.12704408      -1.43925947      -1.20407085
C        0.00395265      -0.43486599      -0.26132406
C       -1.25465766      -0.21523841       0.50628573
C       -0.86452842       0.76013535      -0.53899201
O        0.58673761       1.62751626       0.33051415
C        1.21024296       0.34367002       0.21586927
H        0.00452708      -2.28219807      -0.76202925
H       -2.11363855      -0.82602700       0.24919400
H       -1.20047868       0.13231162       1.53401421
H       -0.11404761       1.96851145      -0.69670339
H        1.62076990       0.01734253       1.17370746
H        1.99407663       0.34810170      -0.54646526
12
Frame=12 idx=005294 GeodesicLength=0.5978703486083674 rxn_smarts="[O:1]([C@:2]12[C:3]([H:8])([H:9])[C@@:4]1([H:10])[O:5][C:6]2([H:11])[H:12])[H:7]>>[O:1]([C@:2]1([C:6]([O:5][H:10])([H:11])[H:12])[C:3]([H:8])([H:9])[C:4]1)[H:7]"
O        0.13196196      -1.43760386      -1.20500574
C        0.00461291      -0.43692027      -0.25868904
C       -1.25517798      -0.22096328       0.50678496
C       -0.86568863       0.75561988      -0.53812737
O        0.58743837       1.62869151       0.32727081
C        1.21020573       0.34418981       0.21840647
H       -0.00280197      -2.28139180      -0.76818304
H       -2.11665781      -0.83068338       0.25614164
H       -1.19509071       0.13158162       1.53280159
H       -0.11173601       1.98380189      -0.70636921
H        1.61757483       0.01786737       1.17748680
H        1.99535932       0.34581051      -0.54251785
12
Frame=13 idx=005294 GeodesicLength=0.6476901451862216 rxn_smarts="[O:1]([C@:2]12[C:3]([H:8])([H:9])[C@@:4]1([H:10])[O:5][C:6]2([H:11])[H:12])[H:7]>>[O:1]([C@:2]1([C:6]([O:5][H:10])([H:11])[H:12])[C:3]([H:8])([H:9])[C:4]1)[H:7]"
O        0.13687970      -1.43600141      -1.20587165
C        0.00526311      -0.43902677      -0.25603262
C       -1.25569266      -0.22676485       0.50732423
C       -0.86688813       0.75101919      -0.53725128
O        0.58809144       1.62982875       0.32396796
C        1.21013774       0.34469998       0.22094317
H       -0.01012272      -2.28052631      -0.77445689
H       -2.11966366      -0.83538821       0.26322079
H       -1.18977896       0.13081426       1.53156334
H       -0.10919225       1.99939909      -0.71611969
H        1.61435508       0.01843475       1.18126886
H        1.99661131       0.34351153      -0.53855622
12
Frame=14 idx=005294 GeodesicLength=0.6975094128656106 rxn_smarts="[O:1]([C@:2]12[C:3]([H:8])([H:9])[C@@:4]1([H:10])[O:5][C:6]2([H:11])[H:12])[H:7]>>[O:1]([C@:2]1([C:6]([O:5][H:10])([H:11])[H:12])[C:3]([H:8])([H:9])[C:4]1)[H:7]"
O        0.14179636      -1.43445425      -1.20666841
C        0.00590156      -0.44118716      -0.25335489
C       -1.25620267      -0.23264698       0.50790514
C       -0.86813169       0.74632883      -0.53636376
O        0.58869089       1.63092686       0.32060338
C        1.21003572       0.34520139       0.22347819
H       -0.01743377      -2.27960118      -0.78085058
H       -2.12265479      -0.84014679       0.27043600
H       -1.18454412       0.13000656       1.53030119
H       -0.10639530       2.01531960      -0.72595750
H        1.61110829       0.01904692       1.18505257
H        1.99782951       0.34120619      -0.53458133
12
Frame=15 idx=005294 GeodesicLength=0.7473282401955145 rxn_smarts="[O:1]([C@:2]12[C:3]([H:8])([H:9])[C@@:4]1([H:10])[O:5][C:6]2([H:11])[H:12])[H:7]>>[O:1]([C@:2]1([C:6]([O:5][H:10])([H:11])[H:12])[C:3]([H:8])([H:9])[C:4]1)[H:7]"
O        0.14671054      -1.43296499      -1.20739565
C        0.00652628      -0.44340312      -0.25065615
C       -1.25670923      -0.23861375       0.50852918
C       -0.86942440       0.74154422      -0.53546494
O        0.58923030       1.63198460       0.31717496
C        1.20989616       0.34569493       0.22600987
H       -0.02473247      -2.27861628      -0.78736264
H       -2.12563013      -0.84496450       0.27779161
H       -1.17938709       0.12915519       1.52901676
H       -0.10332241       2.03158148      -0.73588439
H        1.60783215       0.01970597       1.18883623
H        1.99901030       0.33889624      -0.53059483
12
Frame=16 idx=005294 GeodesicLength=0.7971467840755055 rxn_smarts="[O:1]([C@:2]12[C:3]([H:8])([H:9])[C@@:4]1([H:10])[O:5][C:6]2([H:11])[H:12])[H:7]>>[O:1]([C@:2]1([C:6]([O:5][H:10])([H:11])[H:12])[C:3]([H:8])([H:9])[C:4]1)[H:7]"
O        0.15162078      -1.43153606      -1.20805320
C        0.00713515      -0.44567647      -0.24793666
C       -1.25721356      -0.24466961       0.50919815
C       -0.87077189       0.73666036      -0.53455480
O        0.58970270       1.63300086       0.31367987
C        1.20971516       0.34618167       0.22853655
H       -0.03201640      -2.27757156      -0.79399216
H       -2.12858830      -0.84984759       0.28529270
H       -1.17430877       0.12825675       1.52771183
H       -0.09994870       2.04820369      -0.74590238
H        1.60452391       0.02041459       1.19261830
H        2.00014992       0.33658337      -0.52659821
