8
Frame=0 idx=005334 GeodesicLength=0.0 rxn_smarts="[N:1]([c:2]1[n:3][o:4][n:5][n:6]1)([H:7])[H:8]>>[N:1]([C:2]#[N:3])([H:7])[H:8].[O:4]=[N+:5]=[N-:6]"
N        1.45732700       0.07885852      -0.14209803
C        0.13472550       0.21350518      -0.35859663
N       -0.67838277       0.69856573      -1.09969753
O       -2.34800226      -0.06368314      -0.18407870
N       -1.75157627      -0.64181385       0.67918312
N       -0.61937602      -0.76129554       0.94484448
H        1.74075445      -0.25857703       0.76000276
H        2.06453040       0.73444011      -0.59955945
8
Frame=1 idx=005334 GeodesicLength=0.03155476080719791 rxn_smarts="[N:1]([c:2]1[n:3][o:4][n:5][n:6]1)([H:7])[H:8]>>[N:1]([C:2]#[N:3])([H:7])[H:8].[O:4]=[N+:5]=[N-:6]"
N        1.46344797       0.07803024      -0.14737412
C        0.14073616       0.19731046      -0.37174516
N       -0.67709779       0.69318560      -1.10274576
O       -2.34942595      -0.05470022      -0.18038838
N       -1.75888417      -0.64203475       0.68575501
N       -0.62506168      -0.76219378       0.94853141
H        1.74235083      -0.26102794       0.75574633
H        2.06393465       0.75143040      -0.58777934
8
Frame=2 idx=005334 GeodesicLength=0.06355868313135886 rxn_smarts="[N:1]([c:2]1[n:3][o:4][n:5][n:6]1)([H:7])[H:8]>>[N:1]([C:2]#[N:3])([H:7])[H:8].[O:4]=[N+:5]=[N-:6]"
N        1.46957098       0.07829631      -0.15213325
C        0.14689007       0.18101380      -0.38483034
N       -0.67532828       0.68332219      -1.10901435
O       -2.35068967      -0.04126476      -0.17373955
N       -1.76614018      -0.64186581       0.69266114
N       -0.63052545      -0.76636390       0.94993764
H        1.74385827      -0.26335192       0.75167041
H        2.06236426       0.77021409      -0.57455171
8
Frame=3 idx=005334 GeodesicLength=0.09454441746716769 rxn_smarts="[N:1]([c:2]1[n:3][o:4][n:5][n:6]1)([H:7])[H:8]>>[N:1]([C:2]#[N:3])([H:7])[H:8].[O:4]=[N+:5]=[N-:6]"
N        1.47543751       0.07841224      -0.15760075
C        0.15276336       0.16847300      -0.39548043
N       -0.67391628       0.67571710      -1.11347861
O       -2.35154990      -0.03558685      -0.17247599
N       -1.77344898      -0.63688484       0.70259578
N       -0.63596473      -0.76885742       0.95224974
H        1.74625033      -0.26931840       0.74512179
H        2.06042870       0.78804517      -0.56093153
8
Frame=4 idx=005334 GeodesicLength=0.12596618435350837 rxn_smarts="[N:1]([c:2]1[n:3][o:4][n:5][n:6]1)([H:7])[H:8]>>[N:1]([C:2]#[N:3])([H:7])[H:8].[O:4]=[N+:5]=[N-:6]"
N        1.48120515       0.07864375      -0.16293470
C        0.15851521       0.15769933      -0.40480098
N       -0.67249127       0.66863070      -1.11757075
O       -2.35240615      -0.03027058      -0.17156247
N       -1.78085286      -0.63316286       0.71171348
N       -0.64156353      -0.77094981       0.95499004
H        1.74883740      -0.27475828       0.73877132
H        2.05875606       0.80416774      -0.54860595
8
Frame=5 idx=005334 GeodesicLength=0.15743299187465154 rxn_smarts="[N:1]([c:2]1[n:3][o:4][n:5][n:6]1)([H:7])[H:8]>>[N:1]([C:2]#[N:3])([H:7])[H:8].[O:4]=[N+:5]=[N-:6]"
N        1.48703661       0.07961754      -0.16798863
C        0.16445037       0.14659561      -0.41438410
N       -0.67092622       0.65912479      -1.12341027
O       -2.35305786      -0.02336912      -0.16957819
N       -1.78801114      -0.62730512       0.72224501
N       -0.64709414      -0.77584344       0.95571506
H        1.75139989      -0.28030680       0.73232726
H        2.05620249       0.82148653      -0.53492615
8
Frame=6 idx=005334 GeodesicLength=0.18875335739019827 rxn_smarts="[N:1]([c:2]1[n:3][o:4][n:5][n:6]1)([H:7])[H:8]>>[N:1]([C:2]#[N:3])([H:7])[H:8].[O:4]=[N+:5]=[N-:6]"
N        1.49287043       0.08174276      -0.17209689
C        0.17080652       0.13351063      -0.42513017
N       -0.66889893       0.64400866      -1.13303690
O       -2.35311028      -0.00728126      -0.16152002
N       -1.79484627      -0.62480173       0.73039482
N       -0.65241697      -0.78402061       0.95414878
H        1.75345818      -0.28332805       0.72746667
H        2.05213732       0.84016960      -0.52022630
8
Frame=7 idx=005334 GeodesicLength=0.21998195614702015 rxn_smarts="[N:1]([c:2]1[n:3][o:4][n:5][n:6]1)([H:7])[H:8]>>[N:1]([C:2]#[N:3])([H:7])[H:8].[O:4]=[N+:5]=[N-:6]"
N        1.49858767       0.08346972      -0.17690819
C        0.17691954       0.12298984      -0.43449678
N       -0.66731627       0.63358430      -1.13948264
O       -2.35326485      -0.00177420      -0.16051116
N       -1.80140859      -0.61428848       0.74389207
N       -0.65794574      -0.79237167       0.95232342
H        1.75606817      -0.28919304       0.72069056
H        2.04836007       0.85758352      -0.50550727
8
Frame=8 idx=005334 GeodesicLength=0.2513377722230572 rxn_smarts="[N:1]([c:2]1[n:3][o:4][n:5][n:6]1)([H:7])[H:8]>>[N:1]([C:2]#[N:3])([H:7])[H:8].[O:4]=[N+:5]=[N-:6]"
N        1.50430532       0.08609685      -0.18091272
C        0.18343257       0.11076573      -0.44477491
N       -0.66537519       0.61844341      -1.14894888
O       -2.35266607       0.01255149      -0.15383220
N       -1.80770583      -0.60846745       0.75409257
N       -0.66349325      -0.80260833       0.94934351
H        1.75827607      -0.29241668       0.71545916
H        2.04322639       0.87563498      -0.49042653
8
Frame=9 idx=005334 GeodesicLength=0.28266047630843594 rxn_smarts="[N:1]([c:2]1[n:3][o:4][n:5][n:6]1)([H:7])[H:8]>>[N:1]([C:2]#[N:3])([H:7])[H:8].[O:4]=[N+:5]=[N-:6]"
N        1.50991699       0.08861908      -0.18485227
C        0.18993669       0.09933654      -0.45444005
N       -0.66350345       0.60434322      -1.15748250
O       -2.35169054       0.02665970      -0.14741594
N       -1.81407126      -0.60428038       0.76320376
N       -0.66926945      -0.81192602       0.94704347
H        1.76045781      -0.29486300       0.71063024
H        2.03822322       0.89211088      -0.47668672
8
Frame=10 idx=005334 GeodesicLength=0.3138809790163619 rxn_smarts="[N:1]([c:2]1[n:3][o:4][n:5][n:6]1)([H:7])[H:8]>>[N:1]([C:2]#[N:3])([H:7])[H:8].[O:4]=[N+:5]=[N-:6]"
N        1.51549928       0.09055010      -0.18900225
C        0.19623383       0.08983203      -0.46270114
N       -0.66183419       0.59341148      -1.16369453
O       -2.35093566       0.03811738      -0.14271390
N       -1.82086694      -0.60252995       0.77069041
N       -0.67533648      -0.81837611       0.94680933
H        1.76287772      -0.29673605       0.70596933
H        2.03436244       0.90573112      -0.46535724
8
Frame=11 idx=005334 GeodesicLength=0.34523585099857873 rxn_smarts="[N:1]([c:2]1[n:3][o:4][n:5][n:6]1)([H:7])[H:8]>>[N:1]([C:2]#[N:3])([H:7])[H:8].[O:4]=[N+:5]=[N-:6]"
N        1.52110625       0.09191656      -0.19349262
C        0.20230277       0.08236717      -0.46968977
N       -0.66040018       0.58614251      -1.16744535
O       -2.35078529       0.04464720      -0.14116915
N       -1.82792875      -0.60033168       0.77860236
N       -0.68160210      -0.82277019       0.94795851
H        1.76564322      -0.29901980       0.70089752
H        2.03166408       0.91704823      -0.45566151
8
Frame=12 idx=005334 GeodesicLength=0.3765144147486972 rxn_smarts="[N:1]([c:2]1[n:3][o:4][n:5][n:6]1)([H:7])[H:8]>>[N:1]([C:2]#[N:3])([H:7])[H:8].[O:4]=[N+:5]=[N-:6]"
N        1.52674383       0.09296568      -0.19808354
C        0.20825647       0.07607780      -0.47585596
N       -0.65906982       0.58080629      -1.16980036
O       -2.35089381       0.04941476      -0.14069633
N       -1.83536270      -0.59928458       0.78578257
N       -0.68803917      -0.82575205       0.95014720
H        1.76852900      -0.30094640       0.69601213
H        2.02983620       0.92671850      -0.44750571
8
Frame=13 idx=005334 GeodesicLength=0.40787210903408516 rxn_smarts="[N:1]([c:2]1[n:3][o:4][n:5][n:6]1)([H:7])[H:8]>>[N:1]([C:2]#[N:3])([H:7])[H:8].[O:4]=[N+:5]=[N-:6]"
N        1.53242669       0.09387160      -0.20276689
C        0.21415199       0.07060553      -0.48153476
N       -0.65780180       0.57675329      -1.17128121
O       -2.35130469       0.05252270      -0.14123359
N       -1.84296793      -0.59825825       0.79301754
N       -0.69458759      -0.82803441       0.95281022
H        1.77155348      -0.30288097       0.69103180
H        2.02852985       0.93542051      -0.44004310
8
Frame=14 idx=005334 GeodesicLength=0.43913870714106806 rxn_smarts="[N:1]([c:2]1[n:3][o:4][n:5][n:6]1)([H:7])[H:8]>>[N:1]([C:2]#[N:3])([H:7])[H:8].[O:4]=[N+:5]=[N-:6]"
N        1.53813187       0.09486042      -0.20727963
C        0.22011877       0.06512652      -0.48712471
N       -0.65648232       0.57233483      -1.17286218
O       -2.35149402       0.05715453      -0.14076237
N       -1.85083700      -0.59889917       0.79915989
N       -0.70124884      -0.83029161       0.95556767
H        1.77447705      -0.30391826       0.68661486
H        2.02733449       0.94363274      -0.43331352
8
Frame=15 idx=005334 GeodesicLength=0.4704686723849511 rxn_smarts="[N:1]([c:2]1[n:3][o:4][n:5][n:6]1)([H:7])[H:8]>>[N:1]([C:2]#[N:3])([H:7])[H:8].[O:4]=[N+:5]=[N-:6]"
N        1.54389595       0.09569693      -0.21195658
C        0.22601482       0.06047763      -0.49225235
N       -0.65523851       0.56932687      -1.17349625
O       -2.35205583       0.05958439      -0.14163865
N       -1.85886336      -0.59907406       0.80567358
N       -0.70802526      -0.83176092       0.95884203
H        1.77759861      -0.30533786       0.68188718
H        2.02667358       0.95108703      -0.42705895
8
Frame=16 idx=005334 GeodesicLength=0.5017892402586229 rxn_smarts="[N:1]([c:2]1[n:3][o:4][n:5][n:6]1)([H:7])[H:8]>>[N:1]([C:2]#[N:3])([H:7])[H:8].[O:4]=[N+:5]=[N-:6]"
N        1.54970101       0.09663862      -0.21656661
C        0.23198124       0.05582029      -0.49734096
N       -0.65394831       0.56598535      -1.17424676
O       -2.35250230       0.06291724      -0.14192639
N       -1.86710839      -0.60026391       0.81153632
N       -0.71488706      -0.83303632       0.96228903
H        1.78075273      -0.30641082       0.67731645
H        2.02601109       0.95834954      -0.42106107
