10
Frame=0 idx=002134 GeodesicLength=0.0 rxn_smarts="[O:1]([C:2]1([H:6])[C:3]([H:7])([H:8])[C:4]1([H:9])[H:10])[H:5]>>[O:1]([C:2][C:4]([C:3]([H:6])([H:7])[H:8])([H:9])[H:10])[H:5]"
O        1.47022089      -0.81763206       0.37911213
C        0.35672311      -0.76555502      -0.42607421
C       -0.36951479       0.92821909      -0.16963505
C       -0.82926035      -0.36793099       0.40338214
H        2.21173133      -1.05573799      -0.17956036
H        0.38173532       0.31407069      -1.11608772
H       -1.01929502       1.44046729      -0.87096535
H        0.27112117       1.54443696       0.44712142
H       -1.79129471      -0.73148597       0.06138448
H       -0.68216695      -0.48885200       1.47132252
10
Frame=1 idx=002134 GeodesicLength=0.05018634513926903 rxn_smarts="[O:1]([C:2]1([H:6])[C:3]([H:7])([H:8])[C:4]1([H:9])[H:10])[H:5]>>[O:1]([C:2][C:4]([C:3]([H:6])([H:7])[H:8])([H:9])[H:10])[H:5]"
O        1.47818344      -0.81893928       0.38277563
C        0.36810695      -0.75309283      -0.42318141
C       -0.37375645       0.93469551      -0.17287108
C       -0.82230589      -0.36562797       0.40298845
H        2.21009281      -1.10163482      -0.16792642
H        0.37558834       0.32829826      -1.13443279
H       -1.04014028       1.44632590      -0.85882728
H        0.25961831       1.55686413       0.44585833
H       -1.77635454      -0.74394442       0.05363224
H       -0.67903269      -0.48294447       1.47198433
10
Frame=2 idx=002134 GeodesicLength=0.10025786873941253 rxn_smarts="[O:1]([C:2]1([H:6])[C:3]([H:7])([H:8])[C:4]1([H:9])[H:10])[H:5]>>[O:1]([C:2][C:4]([C:3]([H:6])([H:7])[H:8])([H:9])[H:10])[H:5]"
O        1.48665326      -0.82012680       0.38616826
C        0.38014695      -0.73991497      -0.42047092
C       -0.37804809       0.94131924      -0.17620799
C       -0.81486388      -0.36331841       0.40239777
H        2.20665001      -1.14845820      -0.15506740
H        0.36869755       0.34278211      -1.15332382
H       -1.06118172       1.45197277      -0.84616644
H        0.24788410       1.56946199       0.44452397
H       -1.76052158      -0.75657269       0.04573348
H       -0.67541659      -0.47714504       1.47241309
10
Frame=3 idx=002134 GeodesicLength=0.15021624199209288 rxn_smarts="[O:1]([C:2]1([H:6])[C:3]([H:7])([H:8])[C:4]1([H:9])[H:10])[H:5]>>[O:1]([C:2][C:4]([C:3]([H:6])([H:7])[H:8])([H:9])[H:10])[H:5]"
O        1.49552747      -0.82147811       0.38932731
C        0.39278178      -0.72614022      -0.41791302
C       -0.38229595       0.94803647      -0.17964686
C       -0.80697107      -0.36101695       0.40162056
H        2.20136695      -1.19548821      -0.14106892
H        0.36101264       0.35732731      -1.17277900
H       -1.08225186       1.45739832      -0.83297942
H        0.23608522       1.58211399       0.44311695
H       -1.74386361      -0.76927074       0.03768560
H       -0.67139158      -0.47148185       1.47263680
10
Frame=4 idx=002134 GeodesicLength=0.19984236022688592 rxn_smarts="[O:1]([C:2]1([H:6])[C:3]([H:7])([H:8])[C:4]1([H:9])[H:10])[H:5]>>[O:1]([C:2][C:4]([C:3]([H:6])([H:7])[H:8])([H:9])[H:10])[H:5]"
O        1.50469452      -0.82327172       0.39230533
C        0.40593956      -0.71186014      -0.41541936
C       -0.38642988       0.95475414      -0.18317595
C       -0.79866294      -0.35869423       0.40064744
H        2.19428160      -1.24201097      -0.12608388
H        0.35246674       0.37170680      -1.19271208
H       -1.10318863       1.46255325      -0.81925070
H        0.22435071       1.59461799       0.44162428
H       -1.72643439      -0.78186005       0.02946397
H       -0.66701729      -0.46593507       1.47260097
10
Frame=5 idx=002134 GeodesicLength=0.24933993463484638 rxn_smarts="[O:1]([C:2]1([H:6])[C:3]([H:7])([H:8])[C:4]1([H:9])[H:10])[H:5]>>[O:1]([C:2][C:4]([C:3]([H:6])([H:7])[H:8])([H:9])[H:10])[H:5]"
O        1.51406689      -0.82568928       0.39520781
C        0.41959393      -0.69715647      -0.41293600
C       -0.39040265       0.96148424      -0.18679372
C       -0.79001193      -0.35637348       0.39951950
H        2.18551361      -1.28765722      -0.11038712
H        0.34310664       0.38580492      -1.21311708
H       -1.12385605       1.46744433      -0.80505876
H        0.21274973       1.60702256       0.44009135
H       -1.70832301      -0.79437612       0.02106385
H       -0.66243716      -0.46050348       1.47241018
10
Frame=6 idx=002134 GeodesicLength=0.29871653291092304 rxn_smarts="[O:1]([C:2]1([H:6])[C:3]([H:7])([H:8])[C:4]1([H:9])[H:10])[H:5]>>[O:1]([C:2][C:4]([C:3]([H:6])([H:7])[H:8])([H:9])[H:10])[H:5]"
O        1.52372469      -0.82853794       0.39797595
C        0.43384209      -0.68185985      -0.41045775
C       -0.39425446       0.96824989      -0.19050436
C       -0.78094335      -0.35405727       0.39822807
H        2.17479754      -1.33279456      -0.09390436
H        0.33292363       0.39971002      -1.23397347
H       -1.14429273       1.47201785      -0.79040797
H        0.20116392       1.61938472       0.43853789
H       -1.68938663      -0.80690000       0.01244707
H       -0.65757469      -0.45521287       1.47205894
10
Frame=7 idx=002134 GeodesicLength=0.3479705301890648 rxn_smarts="[O:1]([C:2]1([H:6])[C:3]([H:7])([H:8])[C:4]1([H:9])[H:10])[H:5]>>[O:1]([C:2][C:4]([C:3]([H:6])([H:7])[H:8])([H:9])[H:10])[H:5]"
O        1.53367131      -0.83201976       0.40065863
C        0.44872278      -0.66598007      -0.40789089
C       -0.39804630       0.97506797      -0.19429484
C       -0.77143291      -0.35167766       0.39675253
H        2.16221096      -1.37736511      -0.07677992
H        0.32189721       0.41333041      -1.25513861
H       -1.16454509       1.47627520      -0.77533388
H        0.18946835       1.63169357       0.43698038
H       -1.66952999      -0.81933713       0.00356352
H       -0.65241634      -0.44998742       1.47148307
10
Frame=8 idx=002134 GeodesicLength=0.39698177071514856 rxn_smarts="[O:1]([C:2]1([H:6])[C:3]([H:7])([H:8])[C:4]1([H:9])[H:10])[H:5]>>[O:1]([C:2][C:4]([C:3]([H:6])([H:7])[H:8])([H:9])[H:10])[H:5]"
O        1.54371367      -0.83610319       0.40326579
C        0.46418336      -0.64947063      -0.40520195
C       -0.40164904       0.98188437      -0.19818307
C       -0.76151330      -0.34930089       0.39510708
H        2.14764795      -1.42098972      -0.05912822
H        0.31007912       0.42660314      -1.27659510
H       -1.18442637       1.48009626      -0.75978181
H        0.17784908       1.64392660       0.43537007
H       -1.64882100      -0.83176902      -0.00554829
H       -0.64706346      -0.44487692       1.47069549
10
Frame=9 idx=002134 GeodesicLength=0.4459651461465913 rxn_smarts="[O:1]([C:2]1([H:6])[C:3]([H:7])([H:8])[C:4]1([H:9])[H:10])[H:5]>>[O:1]([C:2][C:4]([C:3]([H:6])([H:7])[H:8])([H:9])[H:10])[H:5]"
O        1.55393568      -0.84102467       0.40588741
C        0.48029001      -0.63234816      -0.40228173
C       -0.40515703       0.98873133      -0.20215175
C       -0.75121004      -0.34685158       0.39332494
H        2.13126621      -1.46365928      -0.04122254
H        0.29750647       0.43942519      -1.29826259
H       -1.20399263       1.48352100      -0.74391350
H        0.16614165       1.65610909       0.43380149
H       -1.62722312      -0.84411304      -0.01495982
H       -0.64155720      -0.43978987       1.46977810
10
Frame=10 idx=002134 GeodesicLength=0.49495587737170504 rxn_smarts="[O:1]([C:2]1([H:6])[C:3]([H:7])([H:8])[C:4]1([H:9])[H:10])[H:5]>>[O:1]([C:2][C:4]([C:3]([H:6])([H:7])[H:8])([H:9])[H:10])[H:5]"
O        1.56415345      -0.84690913       0.40862423
C        0.49699138      -0.61465779      -0.39898981
C       -0.40851191       0.99559777      -0.20620714
C       -0.74058420      -0.34434917       0.39145688
H        2.11317816      -1.50502199      -0.02344301
H        0.28429414       0.45167823      -1.32004357
H       -1.22307513       1.48650987      -0.72783021
H        0.15437569       1.66827334       0.43226742
H       -1.60477290      -0.85639848      -0.02462663
H       -0.63604869      -0.43472265       1.46879182
10
Frame=11 idx=002134 GeodesicLength=0.5437606795556286 rxn_smarts="[O:1]([C:2]1([H:6])[C:3]([H:7])([H:8])[C:4]1([H:9])[H:10])[H:5]>>[O:1]([C:2][C:4]([C:3]([H:6])([H:7])[H:8])([H:9])[H:10])[H:5]"
O        1.57427883      -0.85387176       0.41152896
C        0.51427295      -0.59635655      -0.39518740
C       -0.41172429       1.00242759      -0.21034558
C       -0.72962977      -0.34173428       0.38949582
H        2.09346625      -1.54491409      -0.00599415
H        0.27045815       0.46325639      -1.34177760
H       -1.24166619       1.48898066      -0.71158036
H        0.14251586       1.68030356       0.43076042
H       -1.58143361      -0.86848185      -0.03458015
H       -0.63053817      -0.42960967       1.46768004
10
Frame=12 idx=002134 GeodesicLength=0.5926954930476825 rxn_smarts="[O:1]([C:2]1([H:6])[C:3]([H:7])([H:8])[C:4]1([H:9])[H:10])[H:5]>>[O:1]([C:2][C:4]([C:3]([H:6])([H:7])[H:8])([H:9])[H:10])[H:5]"
O        1.58430387      -0.86192307       0.41461650
C        0.53219917      -0.57741953      -0.39077577
C       -0.41482893       1.00929791      -0.21457373
C       -0.71839049      -0.33902218       0.38752279
H        2.07219548      -1.58351168       0.01082748
H        0.25619398       0.47415344      -1.36344581
H       -1.25975279       1.49095206      -0.69531865
H        0.13041753       1.69240434       0.42931946
H       -1.55718238      -0.88049801      -0.04476365
H       -0.62515544      -0.42443328       1.46659137
10
Frame=13 idx=002134 GeodesicLength=0.6414171251370634 rxn_smarts="[O:1]([C:2]1([H:6])[C:3]([H:7])([H:8])[C:4]1([H:9])[H:10])[H:5]>>[O:1]([C:2][C:4]([C:3]([H:6])([H:7])[H:8])([H:9])[H:10])[H:5]"
O        1.59411282      -0.87106984       0.41788187
C        0.55072028      -0.55779440      -0.38559876
C       -0.41780063       1.01611889      -0.21888243
C       -0.70686220      -0.33616043       0.38552549
H        2.04934343      -1.62061017       0.02682364
H        0.24156789       0.48425433      -1.38484921
H       -1.27728490       1.49227637      -0.67908603
H        0.11808952       1.70443992       0.42793216
H       -1.53200248      -0.89232513      -0.05518247
H       -0.61988375      -0.41912954       1.46543573
10
Frame=14 idx=002134 GeodesicLength=0.6902406402770833 rxn_smarts="[O:1]([C:2]1([H:6])[C:3]([H:7])([H:8])[C:4]1([H:9])[H:10])[H:5]>>[O:1]([C:2][C:4]([C:3]([H:6])([H:7])[H:8])([H:9])[H:10])[H:5]"
O        1.60363627      -0.88146622       0.42139720
C        0.56987290      -0.53748278      -0.37947737
C       -0.42068556       1.02295281      -0.22328087
C       -0.69510275      -0.33313364       0.38361059
H        2.02511851      -1.65627567       0.04155854
H        0.22678944       0.49351268      -1.40594408
H       -1.29426018       1.49299034      -0.66310100
H        0.10536475       1.71656161       0.42661853
H       -1.50586088      -0.90401469      -0.06576455
H       -0.61487250      -0.41364444       1.46438302
10
Frame=15 idx=002134 GeodesicLength=0.7390814141278225 rxn_smarts="[O:1]([C:2]1([H:6])[C:3]([H:7])([H:8])[C:4]1([H:9])[H:10])[H:5]>>[O:1]([C:2][C:4]([C:3]([H:6])([H:7])[H:8])([H:9])[H:10])[H:5]"
O        1.61279896      -0.89311841       0.42512417
C        0.58967446      -0.51639105      -0.37222897
C       -0.42349695       1.02978057      -0.22776862
C       -0.68309686      -0.32990827       0.38181687
H        1.99943770      -1.69054706       0.05478934
H        0.21201170       0.50188440      -1.42659073
H       -1.31067777       1.49299685      -0.64747352
H        0.09213520       1.72879010       0.42536101
H       -1.47865846      -0.91556806      -0.07646491
H       -0.61012798      -0.40791907       1.46343537
10
Frame=16 idx=002134 GeodesicLength=0.7879494689090144 rxn_smarts="[O:1]([C:2]1([H:6])[C:3]([H:7])([H:8])[C:4]1([H:9])[H:10])[H:5]>>[O:1]([C:2][C:4]([C:3]([H:6])([H:7])[H:8])([H:9])[H:10])[H:5]"
O        1.62144801      -0.90613112       0.42911752
C        0.61006066      -0.49457968      -0.36361974
C       -0.42622306       1.03656847      -0.23234499
C       -0.67094102      -0.32645142       0.38023843
H        1.97261018      -1.72323056       0.06601587
H        0.19746114       0.50922336      -1.44667358
H       -1.32647314       1.49226609      -0.63240066
H        0.07835217       1.74111595       0.42415951
H       -1.45048223      -0.92690168      -0.08718854
H       -0.60581270      -0.40187941       1.46269617
