14
Frame=0 idx=011483 GeodesicLength=0.0 rxn_smarts="[C:1]([C@@:2]([C:3]#[N:4])([C:5](=[O:6])[C:7]([H:12])([H:13])[H:14])[H:11])([H:8])([H:9])[H:10]>>[C:1](=[C:2]([C:3]#[N:4])[H:11])([H:8])[H:9].[C:5](=[O:6])([C:7]([H:12])([H:13])[H:14])[H:10]"
C       -1.35185880      -0.35380397       0.11471723
C       -0.73281462       0.85761091      -0.29781590
C       -0.75098788       2.00516904       0.53049090
N       -0.73184614       2.93233172       1.21303979
C        0.64460661      -0.40786633       0.57285602
O        0.95720056      -0.07489535       1.67147540
C        1.46361766      -0.76903772      -0.63632868
H       -1.89003257      -0.36960429       1.05741148
H       -1.73333468      -1.02557164      -0.65030107
H       -0.35768692      -1.23449722       0.51550534
H       -0.55500390       1.02778681      -1.35023872
H        2.08153924      -1.62596581      -0.36215071
H        2.11550646       0.06494901      -0.88919915
H        0.84109497      -1.02660510      -1.48946192
14
Frame=1 idx=011483 GeodesicLength=0.13750908957168703 rxn_smarts="[C:1]([C@@:2]([C:3]#[N:4])([C:5](=[O:6])[C:7]([H:12])([H:13])[H:14])[H:11])([H:8])([H:9])[H:10]>>[C:1](=[C:2]([C:3]#[N:4])[H:11])([H:8])[H:9].[C:5](=[O:6])([C:7]([H:12])([H:13])[H:14])[H:10]"
C       -1.38705143      -0.35719633       0.11852768
C       -0.75643809       0.84392082      -0.30534689
C       -0.74328953       2.00284355       0.50910123
N       -0.63088312       2.92674902       1.18678719
C        0.64348511      -0.43204905       0.57022369
O        0.92997784      -0.11490925       1.68117743
C        1.49443810      -0.74943985      -0.62798100
H       -1.89794917      -0.36547741       1.07630875
H       -1.81419226      -1.00716798      -0.64084436
H       -0.37433918      -1.26663054       0.50664000
H       -0.61154767       1.01085774      -1.36410240
H        2.14397068      -1.58275727      -0.35466759
H        2.11095692       0.11590806      -0.86478855
H        0.89286179      -1.02465152      -1.49103519
14
Frame=2 idx=011483 GeodesicLength=0.27455189365287924 rxn_smarts="[C:1]([C@@:2]([C:3]#[N:4])([C:5](=[O:6])[C:7]([H:12])([H:13])[H:14])[H:11])([H:8])([H:9])[H:10]>>[C:1](=[C:2]([C:3]#[N:4])[H:11])([H:8])[H:9].[C:5](=[O:6])([C:7]([H:12])([H:13])[H:14])[H:10]"
C       -1.42294823      -0.35980129       0.12345744
C       -0.77972402       0.83007825      -0.31213850
C       -0.73327122       1.99946250       0.48836751
N       -0.53403187       2.91813355       1.15314846
C        0.64316852      -0.45817713       0.56636780
O        0.90368941      -0.15808306       1.68904563
C        1.52597961      -0.72888229      -0.61909149
H       -1.90422281      -0.36122891       1.09644447
H       -1.89894490      -0.98445835      -0.62777285
H       -0.39134462      -1.30000214       0.49596421
H       -0.66800318       0.99437108      -1.37612313
H        2.20525481      -1.53813421      -0.34628910
H        2.10690543       0.16565514      -0.83792425
H        0.94749307      -1.01893313      -1.49345620
14
Frame=3 idx=011483 GeodesicLength=0.4110264712822081 rxn_smarts="[C:1]([C@@:2]([C:3]#[N:4])([C:5](=[O:6])[C:7]([H:12])([H:13])[H:14])[H:11])([H:8])([H:9])[H:10]>>[C:1](=[C:2]([C:3]#[N:4])[H:11])([H:8])[H:9].[C:5](=[O:6])([C:7]([H:12])([H:13])[H:14])[H:10]"
C       -1.45941461      -0.36152299       0.12958309
C       -0.80242791       0.81607920      -0.31793201
C       -0.72073936       1.99463565       0.46875542
N       -0.44342954       2.90865668       1.11147268
C        0.64383730      -0.48668208       0.56096844
O        0.87856119      -0.20513131       1.69477312
C        1.55831517      -0.70773243      -0.60966921
H       -1.90858599      -0.35716331       1.11773683
H       -1.98722812      -0.95668628      -0.61060403
H       -0.40874250      -1.33475945       0.48312508
H       -0.72414569       0.97864410      -1.38596513
H        2.26531800      -1.49276713      -0.33706287
H        2.10364347       0.21377855      -0.80840873
H        1.00503859      -1.00934920      -1.49677268
14
Frame=4 idx=011483 GeodesicLength=0.5471312881423307 rxn_smarts="[C:1]([C@@:2]([C:3]#[N:4])([C:5](=[O:6])[C:7]([H:12])([H:13])[H:14])[H:11])([H:8])([H:9])[H:10]>>[C:1](=[C:2]([C:3]#[N:4])[H:11])([H:8])[H:9].[C:5](=[O:6])([C:7]([H:12])([H:13])[H:14])[H:10]"
C       -1.49646204      -0.36235403       0.13680099
C       -0.82469775       0.80185470      -0.32309697
C       -0.70614068       1.98837272       0.44957180
N       -0.35906324       2.89830923       1.06310654
C        0.64551805      -0.51738603       0.55367332
O        0.85453334      -0.25563573       1.69794701
C        1.59146753      -0.68615129      -0.59960111
H       -1.91095747      -0.35336616       1.13991806
H       -2.07858178      -0.92355268      -0.58879597
H       -0.42654769      -1.37074342       0.46807706
H       -0.78012658       0.96358545      -1.39400658
H        2.32411045      -1.44698192      -0.32654487
H        2.10136446       0.26007529      -0.77622674
H        1.06558340      -0.99602613      -1.50082255
14
Frame=5 idx=011483 GeodesicLength=0.6829156425570659 rxn_smarts="[C:1]([C@@:2]([C:3]#[N:4])([C:5](=[O:6])[C:7]([H:12])([H:13])[H:14])[H:11])([H:8])([H:9])[H:10]>>[C:1](=[C:2]([C:3]#[N:4])[H:11])([H:8])[H:9].[C:5](=[O:6])([C:7]([H:12])([H:13])[H:14])[H:10]"
C       -1.53414005      -0.36223938       0.14481529
C       -0.84696689       0.78730539      -0.32869164
C       -0.69038455       1.98116671       0.42866220
N       -0.27990149       2.88432995       1.01227857
C        0.64823866      -0.54931540       0.54411926
O        0.83161173      -0.30757924       1.69794999
C        1.62534717      -0.66426109      -0.58878552
H       -1.91131715      -0.34940523       1.16247194
H       -2.17228297      -0.88505814      -0.56187153
H       -0.44461376      -1.40728020       0.45147468
H       -0.83633068       0.94863769      -1.40135501
H        2.38141754      -1.40099851      -0.31396908
H        2.10029764       0.30421129      -0.74192269
H        1.12902479      -0.97951384      -1.50517646
14
Frame=6 idx=011483 GeodesicLength=0.8184735783312355 rxn_smarts="[C:1]([C@@:2]([C:3]#[N:4])([C:5](=[O:6])[C:7]([H:12])([H:13])[H:14])[H:11])([H:8])([H:9])[H:10]>>[C:1](=[C:2]([C:3]#[N:4])[H:11])([H:8])[H:9].[C:5](=[O:6])([C:7]([H:12])([H:13])[H:14])[H:10]"
C       -1.57240373      -0.36121667       0.15365858
C       -0.86918268       0.77237809      -0.33446129
C       -0.67370098       1.97267485       0.40656552
N       -0.20671933       2.86862060       0.95785394
C        0.65206612      -0.58279146       0.53206438
O        0.80974593      -0.36166350       1.69465917
C        1.65999733      -0.64225525      -0.57715380
H       -1.90954770      -0.34581714       1.18521137
H       -2.26773075      -0.84055843      -0.52933510
H       -0.46297207      -1.44462063       0.43291015
H       -0.89279141       0.93404826      -1.40770071
H        2.43725924      -1.35529190      -0.29934315
H        2.10053817       0.34612326      -0.70521662
H        1.19544186      -0.95963007      -1.50971244
14
Frame=7 idx=011483 GeodesicLength=0.9537974433260133 rxn_smarts="[C:1]([C@@:2]([C:3]#[N:4])([C:5](=[O:6])[C:7]([H:12])([H:13])[H:14])[H:11])([H:8])([H:9])[H:10]>>[C:1](=[C:2]([C:3]#[N:4])[H:11])([H:8])[H:9].[C:5](=[O:6])([C:7]([H:12])([H:13])[H:14])[H:10]"
C       -1.61124463      -0.35925092       0.16326939
C       -0.89142473       0.75704796      -0.34046918
C       -0.65648222       1.96281815       0.38318902
N       -0.13978216       2.85183079       0.90008597
C        0.65704373      -0.61774690       0.51724703
O        0.78888874      -0.41783645       1.68781028
C        1.69536081      -0.62034178      -0.56463314
H       -1.90562031      -0.34288494       1.20780715
H       -2.36389750      -0.78974165      -0.49076765
H       -0.48161564      -1.48273484       0.41227251
H       -0.94964524       0.91991698      -1.41305502
H        2.49160025      -1.31022010      -0.28247003
H        2.10203629       0.38566099      -0.66615721
H        1.26478261      -0.93651729      -1.51412913
14
Frame=8 idx=011483 GeodesicLength=1.0889158399444205 rxn_smarts="[C:1]([C@@:2]([C:3]#[N:4])([C:5](=[O:6])[C:7]([H:12])([H:13])[H:14])[H:11])([H:8])([H:9])[H:10]>>[C:1](=[C:2]([C:3]#[N:4])[H:11])([H:8])[H:9].[C:5](=[O:6])([C:7]([H:12])([H:13])[H:14])[H:10]"
C       -1.65067662      -0.35630965       0.17360718
C       -0.91383151       0.74127918      -0.34683461
C       -0.63911910       1.95158673       0.35831717
N       -0.07908409       2.83432465       0.83927535
C        0.66319638      -0.65405096       0.49942284
O        0.76893556      -0.47599476       1.67715743
C        1.73136767      -0.59866974      -0.55112531
H       -1.89952067      -0.34087257       1.22993945
H       -2.45971217      -0.73236324      -0.44572116
H       -0.50051617      -1.52159467       0.38939745
H       -1.00711970       0.90627709      -1.41748498
H        2.54440557      -1.26605126      -0.26311349
H        2.10466696       0.42274978      -0.62477184
H        1.33700790      -0.91031058      -1.51806547
14
Frame=9 idx=011483 GeodesicLength=1.2237713888829957 rxn_smarts="[C:1]([C@@:2]([C:3]#[N:4])([C:5](=[O:6])[C:7]([H:12])([H:13])[H:14])[H:11])([H:8])([H:9])[H:10]>>[C:1](=[C:2]([C:3]#[N:4])[H:11])([H:8])[H:9].[C:5](=[O:6])([C:7]([H:12])([H:13])[H:14])[H:10]"
C       -1.69074373      -0.35235641       0.18463778
C       -0.93664162       0.72502377      -0.35373466
C       -0.62210623       1.93902793       0.33154649
N       -0.02422456       2.81593305       0.77598979
C        0.67054127      -0.69137698       0.47839357
O        0.74977103      -0.53573629       1.66244883
C        1.76788871      -0.57734061      -0.53653219
H       -1.89129482      -0.34003171       1.25124464
H       -2.55389894      -0.66833339      -0.39388079
H       -0.51958187      -1.56107237       0.36423208
H       -1.06553555       0.89308379      -1.42108780
H        2.59555191      -1.22300093      -0.24103949
H        2.10829187       0.45730348      -0.58113965
H        1.41198254      -0.88112335      -1.52107860
14
Frame=10 idx=011483 GeodesicLength=1.3584404409986188 rxn_smarts="[C:1]([C@@:2]([C:3]#[N:4])([C:5](=[O:6])[C:7]([H:12])([H:13])[H:14])[H:11])([H:8])([H:9])[H:10]>>[C:1](=[C:2]([C:3]#[N:4])[H:11])([H:8])[H:9].[C:5](=[O:6])([C:7]([H:12])([H:13])[H:14])[H:10]"
C       -1.73144300      -0.34723587       0.19647095
C       -0.95990946       0.70832357      -0.36110785
C       -0.60546581       1.92510360       0.30302067
N        0.02446040       2.79768813       0.70957067
C        0.67908127      -0.72982467       0.45391972
O        0.73119281      -0.59754096       1.64347767
C        1.80483695      -0.55649383      -0.52069786
H       -1.88093927      -0.34063118       1.27150598
H       -2.64514737      -0.59763761      -0.33472431
H       -0.53887451      -1.60127329       0.33616255
H       -1.12506975       0.88052933      -1.42371126
H        2.64504117      -1.18123333      -0.21599332
H        2.11248288       0.48934380      -0.53516074
H        1.48975369      -0.84911769      -1.52273288
14
Frame=11 idx=011483 GeodesicLength=1.4927945517623014 rxn_smarts="[C:1]([C@@:2]([C:3]#[N:4])([C:5](=[O:6])[C:7]([H:12])([H:13])[H:14])[H:11])([H:8])([H:9])[H:10]>>[C:1](=[C:2]([C:3]#[N:4])[H:11])([H:8])[H:9].[C:5](=[O:6])([C:7]([H:12])([H:13])[H:14])[H:10]"
C       -1.77282893      -0.34085778       0.20921303
C       -0.98397065       0.69117024      -0.36904394
C       -0.58966943       1.90990396       0.27234747
N        0.06772470       2.77912157       0.64032106
C        0.68882892      -0.76891502       0.42587603
O        0.71305874      -0.66089530       1.62000711
C        1.84199369      -0.53616814      -0.50350318
H       -1.86861180      -0.34294837       1.29040443
H       -2.73185164      -0.52055364      -0.26823817
H       -0.55824886      -1.64199562       0.30507896
H       -1.18610694       0.86857336      -1.42531917
H        2.69260765      -1.14091174      -0.18776341
H        2.11700671       0.51879213      -0.48689279
H        1.57006782      -0.81431564      -1.52248743
14
Frame=12 idx=011483 GeodesicLength=1.6268833172398662 rxn_smarts="[C:1]([C@@:2]([C:3]#[N:4])([C:5](=[O:6])[C:7]([H:12])([H:13])[H:14])[H:11])([H:8])([H:9])[H:10]>>[C:1](=[C:2]([C:3]#[N:4])[H:11])([H:8])[H:9].[C:5](=[O:6])([C:7]([H:12])([H:13])[H:14])[H:10]"
C       -1.81486178      -0.33293401       0.22311428
C       -1.00896733       0.67367251      -0.37752504
C       -0.57466659       1.89349694       0.23942253
N        0.10560381       2.76067427       0.56777157
C        0.69978432      -0.80859449       0.39404911
O        0.69513067      -0.72611799       1.59177085
C        1.87919306      -0.51642610      -0.48474949
H       -1.85434541      -0.34706471       1.30776973
H       -2.81253309      -0.43758698      -0.19404326
H       -0.57776559      -1.68321458       0.27024466
H       -1.24890191       0.85737926      -1.42576454
H        2.73815196      -1.10201280      -0.15595120
H        2.12122145       0.54571564      -0.43635404
H        1.65295642      -0.77698695      -1.51975516
14
Frame=13 idx=011483 GeodesicLength=1.7606213758182694 rxn_smarts="[C:1]([C@@:2]([C:3]#[N:4])([C:5](=[O:6])[C:7]([H:12])([H:13])[H:14])[H:11])([H:8])([H:9])[H:10]>>[C:1](=[C:2]([C:3]#[N:4])[H:11])([H:8])[H:9].[C:5](=[O:6])([C:7]([H:12])([H:13])[H:14])[H:10]"
C       -1.85751173      -0.32326924       0.23849702
C       -1.03522427       0.65591354      -0.38647752
C       -0.56075713       1.87600124       0.20399328
N        0.13888353       2.74189830       0.49173333
C        0.71198818      -0.84840127       0.35835300
O        0.67726750      -0.79286359       1.55852734
C        1.91617630      -0.49727143      -0.46428616
H       -1.83833630      -0.35320554       1.32341336
H       -2.88558232      -0.34938177      -0.11240780
H       -0.59729401      -1.72472159       0.23129993
H       -1.31381280       0.84700592      -1.42481669
H        2.78135625      -1.06456077      -0.12024621
H        2.12466938       0.57010938      -0.38367327
H        1.73817743      -0.73725319      -1.51390962
14
Frame=14 idx=011483 GeodesicLength=1.8939859949111428 rxn_smarts="[C:1]([C@@:2]([C:3]#[N:4])([C:5](=[O:6])[C:7]([H:12])([H:13])[H:14])[H:11])([H:8])([H:9])[H:10]>>[C:1](=[C:2]([C:3]#[N:4])[H:11])([H:8])[H:9].[C:5](=[O:6])([C:7]([H:12])([H:13])[H:14])[H:10]"
C       -1.90060903      -0.31153254       0.25576925
C       -1.06297737       0.63799886      -0.39588438
C       -0.54796194       1.85748338       0.16566434
N        0.16795841       2.72257854       0.41174500
C        0.72548734      -0.88809313       0.31860842
O        0.65923799      -0.86122070       1.51990977
C        1.95271725      -0.47867223      -0.44185949
H       -1.82059326      -0.36135461       1.33719268
H       -2.94962786      -0.25666338      -0.02306517
H       -0.61681204      -1.76634158       0.18744105
H       -1.38116045       0.83750072      -1.42226926
H        2.82190967      -1.02848497      -0.08018129
H        2.12668834       0.59203946      -0.32884106
H        1.82574294      -0.69523782      -1.50422984
14
Frame=15 idx=011483 GeodesicLength=2.026960714562543 rxn_smarts="[C:1]([C@@:2]([C:3]#[N:4])([C:5](=[O:6])[C:7]([H:12])([H:13])[H:14])[H:11])([H:8])([H:9])[H:10]>>[C:1](=[C:2]([C:3]#[N:4])[H:11])([H:8])[H:9].[C:5](=[O:6])([C:7]([H:12])([H:13])[H:14])[H:10]"
C       -1.94398663      -0.29750554       0.27541961
C       -1.09255068       0.62005609      -0.40555435
C       -0.53658608       1.83808000       0.12417866
N        0.19368513       2.70199968       0.32740728
C        0.74040876      -0.92714391       0.27477880
O        0.64097933      -0.93079415       1.47563228
C        1.98854987      -0.46059328      -0.41729958
H       -1.80131881      -0.37176295       1.34897923
H       -3.00326301      -0.16014720       0.07348347
H       -0.63614159      -1.80782477       0.13818540
H       -1.45129479       0.82896444      -1.41773743
H        2.85940384      -0.99370360      -0.03530956
H        2.12668813       0.61157309      -0.27217557
H        1.91542654      -0.65119789      -1.48998824
14
Frame=16 idx=011483 GeodesicLength=2.159368664806345 rxn_smarts="[C:1]([C@@:2]([C:3]#[N:4])([C:5](=[O:6])[C:7]([H:12])([H:13])[H:14])[H:11])([H:8])([H:9])[H:10]>>[C:1](=[C:2]([C:3]#[N:4])[H:11])([H:8])[H:9].[C:5](=[O:6])([C:7]([H:12])([H:13])[H:14])[H:10]"
C       -1.98716190      -0.28077069       0.29801743
C       -1.12415120       0.60220563      -0.41543100
C       -0.52668524       1.81779657       0.07892487
N        0.21646997       2.67960522       0.23816361
C        0.75685460      -0.96526972       0.22665928
O        0.62223653      -1.00163233       1.42513788
C        2.02333424      -0.44296217      -0.39027342
H       -1.78036797      -0.38419171       1.35863637
H       -3.04509264      -0.06074770       0.17756349
H       -0.65520874      -1.84884943       0.08248597
H       -1.52450792       0.82138724      -1.41087902
H        2.89323341      -0.96004141       0.01502078
H        2.12375351       0.62877802      -0.21375686
H        2.00729334      -0.60530751      -1.47026938
