11
Frame=0 idx=001370 GeodesicLength=0.0 rxn_smarts="[N:1](=[C:2](/[O:3][C:4]([C:5](=[O:6])[H:11])([H:9])[H:10])[H:8])\[H:7]>>[N:1]12[C:2]([H:7])([H:8])[O:3][C:4]([H:9])([H:10])[C@@:5]1([H:11])[O:6]2"
N        0.56189632       1.13982263       0.08667795
C        1.28724121       0.05374213      -0.25158506
O        0.66405735      -1.11327894      -0.30276575
C       -0.74430011      -0.84419604      -0.12416500
C       -0.77293035       0.54593311       0.53179347
O       -0.41151569       0.60248085       1.77724111
H        1.03115721       0.92292097      -1.16846258
H        2.36957163       0.00578998      -0.16229964
H       -1.14581403      -1.61020143       0.53520597
H       -1.22685550      -0.87375929      -1.10477353
H       -1.61250807       1.17074604       0.18313304
11
Frame=1 idx=001370 GeodesicLength=0.06787280967353194 rxn_smarts="[N:1](=[C:2](/[O:3][C:4]([C:5](=[O:6])[H:11])([H:9])[H:10])[H:8])\[H:7]>>[N:1]12[C:2]([H:7])([H:8])[O:3][C:4]([H:9])([H:10])[C@@:5]1([H:11])[O:6]2"
N        0.57363090       1.13940890       0.09590487
C        1.29095685       0.05346911      -0.25737168
O        0.65660352      -1.10869470      -0.32970994
C       -0.74592542      -0.84733907      -0.11946666
C       -0.78572739       0.54276848       0.52983816
O       -0.42923117       0.60830785       1.77532199
H        1.05725081       0.95307888      -1.15863000
H        2.37210957      -0.01137540      -0.16510705
H       -1.12479733      -1.61633115       0.55022263
H       -1.25029155      -0.88666070      -1.08866703
H       -1.61457879       1.17336780       0.16766471
11
Frame=2 idx=001370 GeodesicLength=0.13571733378842582 rxn_smarts="[N:1](=[C:2](/[O:3][C:4]([C:5](=[O:6])[H:11])([H:9])[H:10])[H:8])\[H:7]>>[N:1]12[C:2]([H:7])([H:8])[O:3][C:4]([H:9])([H:10])[C@@:5]1([H:11])[O:6]2"
N        0.58555665       1.13872635       0.10557112
C        1.29447595       0.05320379      -0.26355083
O        0.64833396      -1.10321242      -0.35796323
C       -0.74758050      -0.85055485      -0.11471612
C       -0.79894220       0.53958891       0.52760702
O       -0.44741773       0.61449730       1.77303589
H        1.08465347       0.98387312      -1.14710767
H        2.37413273      -0.02926683      -0.16840351
H       -1.10238947      -1.62222914       0.56545264
H       -1.27434464      -0.90057836      -1.07141038
H       -1.61647820       1.17595213       0.15148507
11
Frame=3 idx=001370 GeodesicLength=0.20349063912702192 rxn_smarts="[N:1](=[C:2](/[O:3][C:4]([C:5](=[O:6])[H:11])([H:9])[H:10])[H:8])\[H:7]>>[N:1]12[C:2]([H:7])([H:8])[O:3][C:4]([H:9])([H:10])[C@@:5]1([H:11])[O:6]2"
N        0.59767779       1.13773267       0.11570732
C        1.29776915       0.05295754      -0.27015789
O        0.63916435      -1.09670771      -0.38749870
C       -0.74925165      -0.85383049      -0.10991756
C       -0.81260317       0.53639281       0.52508361
O       -0.46610222       0.62107128       1.77034649
H        1.11339739       1.01521042      -1.13372633
H        2.37557969      -0.04791286      -0.17231479
H       -1.07850511      -1.62781786       0.58083068
H       -1.29893574      -0.91557277      -1.05291590
H       -1.61819048       1.17847698       0.13456308
11
Frame=4 idx=001370 GeodesicLength=0.2713234651663813 rxn_smarts="[N:1](=[C:2](/[O:3][C:4]([C:5](=[O:6])[H:11])([H:9])[H:10])[H:8])\[H:7]>>[N:1]12[C:2]([H:7])([H:8])[O:3][C:4]([H:9])([H:10])[C@@:5]1([H:11])[O:6]2"
N        0.60997339       1.13644252       0.12636075
C        1.30082148       0.05271704      -0.27725579
O        0.62905237      -1.08913649      -0.41829232
C       -0.75090570      -0.85719075      -0.10508686
C       -0.82677401       0.53323244       0.52229423
O       -0.48536622       0.62809359       1.76735684
H        1.14350331       1.04702861      -1.11840134
H        2.37641392      -0.06740436      -0.17698519
H       -1.05304473      -1.63310167       0.59632290
H       -1.32392820      -0.93172665      -1.03318796
H       -1.61974561       1.18104570       0.11687475
11
Frame=5 idx=001370 GeodesicLength=0.3388031141157557 rxn_smarts="[N:1](=[C:2](/[O:3][C:4]([C:5](=[O:6])[H:11])([H:9])[H:10])[H:8])\[H:7]>>[N:1]12[C:2]([H:7])([H:8])[O:3][C:4]([H:9])([H:10])[C@@:5]1([H:11])[O:6]2"
N        0.62247847       1.13469578       0.13745856
C        1.30353618       0.05257196      -0.28486708
O        0.61781953      -1.08025222      -0.45024751
C       -0.75257463      -0.86053138      -0.10022275
C       -0.84139529       0.52998236       0.51913939
O       -0.50502252       0.63549478       1.76371452
H        1.17502400       1.07908140      -1.10079896
H        2.37644180      -0.08757872      -0.18241069
H       -1.02598949      -1.63775655       0.61177555
H       -1.34927056      -0.94903499      -1.01199523
H       -1.62104748       1.18332757       0.09845421
11
Frame=6 idx=001370 GeodesicLength=0.4064659896466326 rxn_smarts="[N:1](=[C:2](/[O:3][C:4]([C:5](=[O:6])[H:11])([H:9])[H:10])[H:8])\[H:7]>>[N:1]12[C:2]([H:7])([H:8])[O:3][C:4]([H:9])([H:10])[C@@:5]1([H:11])[O:6]2"
N        0.63512847       1.13261676       0.14909514
C        1.30595594       0.05245840      -0.29310334
O        0.60554948      -1.07018875      -0.48327827
C       -0.75418636      -0.86395230      -0.09534582
C       -0.85662666       0.52680080       0.51573583
O       -0.52533097       0.64341247       1.75980633
H        1.20796123       1.11136372      -1.08101116
H        2.37572889      -0.10864618      -0.18888566
H       -0.99727795      -1.64197271       0.62721787
H       -1.37466436      -0.96757739      -0.98952309
H       -1.62223770       1.18568520       0.07929216
11
Frame=7 idx=001370 GeodesicLength=0.4736555755168862 rxn_smarts="[N:1](=[C:2](/[O:3][C:4]([C:5](=[O:6])[H:11])([H:9])[H:10])[H:8])\[H:7]>>[N:1]12[C:2]([H:7])([H:8])[O:3][C:4]([H:9])([H:10])[C@@:5]1([H:11])[O:6]2"
N        0.64802078       1.12994517       0.16132992
C        1.30797427       0.05248708      -0.30192122
O        0.59203820      -1.05859034      -0.51688425
C       -0.75574697      -0.86731850      -0.09045440
C       -0.87237427       0.52353343       0.51197903
O       -0.54607113       0.65175980       1.75523897
H        1.24207878       1.14343660      -1.05863624
H        2.37411619      -0.13033588      -0.19670431
H       -0.96701768      -1.64532801       0.64231207
H       -1.39991683      -0.98734872      -0.96560915
H       -1.62310133       1.18775936       0.05934958
11
Frame=8 idx=001370 GeodesicLength=0.5409200263782485 rxn_smarts="[N:1](=[C:2](/[O:3][C:4]([C:5](=[O:6])[H:11])([H:9])[H:10])[H:8])\[H:7]>>[N:1]12[C:2]([H:7])([H:8])[O:3][C:4]([H:9])([H:10])[C@@:5]1([H:11])[O:6]2"
N        0.66106024       1.12679067       0.17411092
C        1.30959422       0.05264159      -0.31147865
O        0.57736372      -1.04567801      -0.55113284
C       -0.75723046      -0.87070153      -0.08555545
C       -0.88878031       0.52028162       0.50794112
O       -0.56740082       0.66064040       1.75025263
H        1.27763221       1.17530546      -1.03371915
H        2.37156637      -0.15274270      -0.20595815
H       -0.93517499      -1.64793746       0.65717989
H       -1.42479262      -1.00833687      -0.94035645
H       -1.62383759       1.18973682       0.03871613
11
Frame=9 idx=001370 GeodesicLength=0.608047488664899 rxn_smarts="[N:1](=[C:2](/[O:3][C:4]([C:5](=[O:6])[H:11])([H:9])[H:10])[H:8])\[H:7]>>[N:1]12[C:2]([H:7])([H:8])[O:3][C:4]([H:9])([H:10])[C@@:5]1([H:11])[O:6]2"
N        0.67429068       1.12300726       0.18754122
C        1.31076190       0.05299110      -0.32181993
O        0.56149984      -1.03131545      -0.58560457
C       -0.75860634      -0.87404244      -0.08064218
C       -0.90584747       0.51701286       0.50360305
O       -0.58929217       0.67002204       1.74473379
H        1.31438246       1.20668117      -1.00603053
H        2.36801066      -0.17576425      -0.21699486
H       -0.90186476      -1.64956613       0.67165571
H       -1.44901658      -1.03060103      -0.91378553
H       -1.62431820       1.19157487       0.01734382
11
Frame=10 idx=001370 GeodesicLength=0.6749924133476718 rxn_smarts="[N:1](=[C:2](/[O:3][C:4]([C:5](=[O:6])[H:11])([H:9])[H:10])[H:8])\[H:7]>>[N:1]12[C:2]([H:7])([H:8])[O:3][C:4]([H:9])([H:10])[C@@:5]1([H:11])[O:6]2"
N        0.68766483       1.11854512       0.20148885
C        1.31143217       0.05360733      -0.33300213
O        0.54452698      -1.01571126      -0.61977114
C       -0.75987927      -0.87730313      -0.07573958
C       -0.92358275       0.51366751       0.49901094
O       -0.61152492       0.67990618       1.73865902
H        1.35225389       1.23715745      -0.97561185
H        2.36339366      -0.19904185      -0.22994260
H       -0.86743775      -1.65007118       0.68558355
H       -1.47220913      -1.05387357      -0.88612769
H       -1.62463770       1.19311740      -0.00454737
11
Frame=11 idx=001370 GeodesicLength=0.7418957061040198 rxn_smarts="[N:1](=[C:2](/[O:3][C:4]([C:5](=[O:6])[H:11])([H:9])[H:10])[H:8])\[H:7]>>[N:1]12[C:2]([H:7])([H:8])[O:3][C:4]([H:9])([H:10])[C@@:5]1([H:11])[O:6]2"
N        0.70119542       1.11338213       0.21595527
C        1.31160705       0.05457782      -0.34510085
O        0.52656911      -0.99900072      -0.65325260
C       -0.76104381      -0.88048120      -0.07083819
C       -0.94202470       0.51024969       0.49421422
O       -0.63409965       0.69027616       1.73204476
H        1.39111593       1.26650943      -0.94246383
H        2.35773016      -0.22240085      -0.24505410
H       -0.83221747      -1.64938128       0.69891697
H       -1.49406997      -1.07814941      -0.85755712
H       -1.62476206       1.19441823      -0.02686454
11
Frame=12 idx=001370 GeodesicLength=0.8087417786765648 rxn_smarts="[N:1](=[C:2](/[O:3][C:4]([C:5](=[O:6])[H:11])([H:9])[H:10])[H:8])\[H:7]>>[N:1]12[C:2]([H:7])([H:8])[O:3][C:4]([H:9])([H:10])[C@@:5]1([H:11])[O:6]2"
N        0.71485495       1.10745021       0.23087908
C        1.31125858       0.05598916      -0.35815776
O        0.50774133      -0.98138236      -0.68564328
C       -0.76209581      -0.88354854      -0.06593539
C       -0.96120160       0.50672294       0.48924269
O       -0.65688237       0.70114011       1.72488084
H        1.43089041       1.29438313      -0.90659974
H        2.35102238      -0.24552366      -0.26248941
H       -0.79648332      -1.64741215       0.71159202
H       -1.51435044      -1.10322872      -0.82827921
H       -1.62475411       1.19540988      -0.04948984
11
Frame=13 idx=001370 GeodesicLength=0.875521465241065 rxn_smarts="[N:1](=[C:2](/[O:3][C:4]([C:5](=[O:6])[H:11])([H:9])[H:10])[H:8])\[H:7]>>[N:1]12[C:2]([H:7])([H:8])[O:3][C:4]([H:9])([H:10])[C@@:5]1([H:11])[O:6]2"
N        0.72860948       1.10076562       0.24610286
C        1.31039984       0.05794966      -0.37217254
O        0.48828024      -0.96315637      -0.71648129
C       -0.76304855      -0.88647400      -0.06104418
C       -0.98111621       0.50304304       0.48418329
O       -0.67966037       0.71245369       1.71718298
H        1.47138204       1.32039345      -0.86824419
H        2.34333898      -0.26802494      -0.28226660
H       -0.76072665      -1.64411976       0.72355406
H       -1.53278194      -1.12887619      -0.79864390
H       -1.62467687       1.19604580      -0.07217050
11
Frame=14 idx=001370 GeodesicLength=0.9422011528029833 rxn_smarts="[N:1](=[C:2](/[O:3][C:4]([C:5](=[O:6])[H:11])([H:9])[H:10])[H:8])\[H:7]>>[N:1]12[C:2]([H:7])([H:8])[O:3][C:4]([H:9])([H:10])[C@@:5]1([H:11])[O:6]2"
N        0.74242219       1.09333288       0.26151484
C        1.30899845       0.06057718      -0.38715945
O        0.46831232      -0.94448832      -0.74562336
C       -0.76389672      -0.88923264      -0.05615755
C       -1.00177850       0.49917876       0.47906058
O       -0.70229616       0.72420940       1.70890386
H        1.51256801       1.34424840      -0.82745069
H        2.33465210      -0.28966207      -0.30433698
H       -0.72514403      -1.63948154       0.73482470
H       -1.54926230      -1.15496970      -0.76879837
H       -1.62457535       1.19628766      -0.09477757
11
Frame=15 idx=001370 GeodesicLength=1.0088920072342367 rxn_smarts="[N:1](=[C:2](/[O:3][C:4]([C:5](=[O:6])[H:11])([H:9])[H:10])[H:8])\[H:7]>>[N:1]12[C:2]([H:7])([H:8])[O:3][C:4]([H:9])([H:10])[C@@:5]1([H:11])[O:6]2"
N        0.75628894       1.08516219       0.27702385
C        1.30704907       0.06400062      -0.40314176
O        0.44794505      -0.92553939      -0.77299630
C       -0.76465414      -0.89181115      -0.05125672
C       -1.02323215       0.49509460       0.47390142
O       -0.72470879       0.73642774       1.70002530
H        1.55454117       1.36565335      -0.78425126
H        2.32499662      -0.31016963      -0.32869077
H       -0.68991139      -1.63348021       0.74545673
H       -1.56375679      -1.18140011      -0.73885975
H       -1.62455758       1.19606199      -0.11721073
11
Frame=16 idx=001370 GeodesicLength=1.0755752561244871 rxn_smarts="[N:1](=[C:2](/[O:3][C:4]([C:5](=[O:6])[H:11])([H:9])[H:10])[H:8])\[H:7]>>[N:1]12[C:2]([H:7])([H:8])[O:3][C:4]([H:9])([H:10])[C@@:5]1([H:11])[O:6]2"
N        0.77018956       1.07629406       0.29253542
C        1.30454218       0.06834576      -0.42005904
O        0.42729553      -0.90639984      -0.79856634
C       -0.76531210      -0.89417970      -0.04633800
C       -1.04550087       0.49075864       0.46873611
O       -0.74679895       0.74912026       1.69051077
H        1.59727604       1.38425442      -0.73874252
H        2.31438214      -0.32932268      -0.35524778
H       -0.65515115      -1.62612812       0.75547545
H       -1.57624236      -1.20807644      -0.70893257
H       -1.62468002       1.19533364      -0.13937151
