15
Frame=0 idx=004796 GeodesicLength=0.0 rxn_smarts="[C:1]([N:2]([C:3]([H:10])([H:11])[H:12])[C:4](=[O:5])[C:6]([H:13])([H:14])[H:15])([H:7])([H:8])[H:9]>>[C:1]([N:2]([C:3]([H:10])([H:11])[H:12])[C@:4]1([H:15])[O:5][C:6]1([H:13])[H:14])([H:7])([H:8])[H:9]"
C       -0.86891296       1.20209502       0.14184359
N       -0.46827456      -0.17050428       0.32335860
C       -1.37516889      -1.14566416      -0.24433186
C        0.89592843      -0.44528877       0.05519431
O        1.41678004      -1.59373767       0.31390836
C        1.99127084       0.47615531       0.41663326
H       -1.89682466       1.32731860       0.48427193
H       -0.22638739       1.85402093       0.73931728
H       -0.82306919       1.53585124      -0.90769577
H       -1.56725612      -0.96946419      -1.31450741
H       -2.32729159      -1.11158756       0.28758670
H       -0.94738707      -2.13897570      -0.12047729
H        2.70229674       0.10830717       1.14797477
H        2.31881395       1.25634389      -0.26356079
H        1.17548244      -0.18486978      -1.05951573
15
Frame=1 idx=004796 GeodesicLength=0.0792008517912084 rxn_smarts="[C:1]([N:2]([C:3]([H:10])([H:11])[H:12])[C:4](=[O:5])[C:6]([H:13])([H:14])[H:15])([H:7])([H:8])[H:9]>>[C:1]([N:2]([C:3]([H:10])([H:11])[H:12])[C@:4]1([H:15])[O:5][C:6]1([H:13])[H:14])([H:7])([H:8])[H:9]"
C       -0.87175319       1.20418962       0.13858549
N       -0.46723998      -0.16840863       0.29490973
C       -1.37991332      -1.14775935      -0.25182324
C        0.89401131      -0.45077593       0.04757540
O        1.42106014      -1.58708670       0.34697095
C        1.99424807       0.46054401       0.40890802
H       -1.88521992       1.32618209       0.52397348
H       -0.20798229       1.86015286       0.70668881
H       -0.87120827       1.53619673      -0.91196152
H       -1.60007634      -0.96424555      -1.31480646
H       -2.31891479      -1.12003863       0.30406991
H       -0.94572783      -2.14011757      -0.14462830
H        2.68725644       0.11759165       1.16898930
H        2.33820062       1.25063597      -0.25098675
H        1.21325936      -0.17706057      -1.06646483
15
Frame=2 idx=004796 GeodesicLength=0.15825289782422297 rxn_smarts="[C:1]([N:2]([C:3]([H:10])([H:11])[H:12])[C:4](=[O:5])[C:6]([H:13])([H:14])[H:15])([H:7])([H:8])[H:9]>>[C:1]([N:2]([C:3]([H:10])([H:11])[H:12])[C@:4]1([H:15])[O:5][C:6]1([H:13])[H:14])([H:7])([H:8])[H:9]"
C       -0.87400109       1.20613881       0.13478513
N       -0.46565141      -0.16621311       0.26425996
C       -1.38470389      -1.14980842      -0.25953744
C        0.89253691      -0.45666087       0.03871932
O        1.42383627      -1.57971997       0.38054211
C        1.99719661       0.44466235       0.40153185
H       -1.87039024       1.32426308       0.56459885
H       -0.18944138       1.86616404       0.67160888
H       -0.92089830       1.53677093      -0.91460776
H       -1.63470139      -0.95906435      -1.31408356
H       -2.30880031      -1.12868762       0.32181739
H       -0.94416934      -2.14102403      -0.17013864
H        2.66976171       0.12818161       1.19086605
H        2.35731897       1.24472326      -0.23696728
H        1.25210690      -0.16972572      -1.07339487
15
Frame=3 idx=004796 GeodesicLength=0.23714652991921442 rxn_smarts="[C:1]([N:2]([C:3]([H:10])([H:11])[H:12])[C:4](=[O:5])[C:6]([H:13])([H:14])[H:15])([H:7])([H:8])[H:9]>>[C:1]([N:2]([C:3]([H:10])([H:11])[H:12])[C@:4]1([H:15])[O:5][C:6]1([H:13])[H:14])([H:7])([H:8])[H:9]"
C       -0.87560842       1.20792124       0.13042979
N       -0.46351419      -0.16389495       0.23115013
C       -1.38951713      -1.15178667      -0.26753010
C        0.89149734      -0.46297571       0.02873235
O        1.42490620      -1.57154790       0.41473256
C        2.00007629       0.42853589       0.39457620
H       -1.85197538       1.32144808       0.60608638
H       -0.17084365       1.87201587       0.63397077
H       -0.97216241       1.53761837      -0.91532216
H       -1.67115558      -0.95391326      -1.31220506
H       -2.29670852      -1.13751974       0.34076890
H       -0.94277252      -2.14165656      -0.19712647
H        2.64966969       0.14018553       1.21340584
H        2.37597811       1.23856592      -0.22152288
H        1.29213017      -0.16299611      -1.08014626
15
Frame=4 idx=004796 GeodesicLength=0.3158814655193286 rxn_smarts="[C:1]([N:2]([C:3]([H:10])([H:11])[H:12])[C:4](=[O:5])[C:6]([H:13])([H:14])[H:15])([H:7])([H:8])[H:9]>>[C:1]([N:2]([C:3]([H:10])([H:11])[H:12])[C@:4]1([H:15])[O:5][C:6]1([H:13])[H:14])([H:7])([H:8])[H:9]"
C       -0.87652650       1.20950466       0.12550059
N       -0.46083315      -0.16141830       0.19527071
C       -1.39431912      -1.15365820      -0.27586290
C        0.89086795      -0.46973905       0.01773678
O        1.42402756      -1.56245251       0.44965499
C        2.00282249       0.41219823       0.38814059
H       -1.82956475       1.31758445       0.64837063
H       -0.15228434       1.87767516       0.59362998
H       -1.02503322       1.53877398      -0.91374753
H       -1.70946008      -0.94878248      -1.30901536
H       -2.28235380      -1.14651690       0.36085323
H       -0.94160231      -2.14196314      -0.22571825
H        2.62684184       0.15369284       1.23639563
H        2.39397941       1.23211935      -0.20468033
H        1.33343803      -0.15701809      -1.08652876
15
Frame=5 idx=004796 GeodesicLength=0.3944776897823924 rxn_smarts="[C:1]([N:2]([C:3]([H:10])([H:11])[H:12])[C:4](=[O:5])[C:6]([H:13])([H:14])[H:15])([H:7])([H:8])[H:9]>>[C:1]([N:2]([C:3]([H:10])([H:11])[H:12])[C@:4]1([H:15])[O:5][C:6]1([H:13])[H:14])([H:7])([H:8])[H:9]"
C       -0.87671270       1.21084606       0.11996306
N       -0.45761037      -0.15874135       0.15625580
C       -1.39906350      -1.15537360      -0.28460078
C        0.89060071      -0.47694636       0.00587427
O        1.42089841      -1.55228124       0.48540353
C        2.00533637       0.39569868       0.38237197
H       -1.80265209       1.31247169       0.69140355
H       -0.13389045       1.88313077       0.55037427
H       -1.07955516       1.54023493      -0.90949007
H       -1.74962511      -0.94368377      -1.30433428
H       -2.26540630      -1.15563586       0.38198272
H       -0.94073222      -2.14187623      -0.25604008
H        2.60115532       0.16873793       1.25958645
H        2.41110247       1.22534706      -0.18644722
H        1.37615461      -0.15192872      -1.09230320
15
Frame=6 idx=004796 GeodesicLength=0.47295367684232414 rxn_smarts="[C:1]([N:2]([C:3]([H:10])([H:11])[H:12])[C:4](=[O:5])[C:6]([H:13])([H:14])[H:15])([H:7])([H:8])[H:9]>>[C:1]([N:2]([C:3]([H:10])([H:11])[H:12])[C@:4]1([H:15])[O:5][C:6]1([H:13])[H:14])([H:7])([H:8])[H:9]"
C       -0.87609978       1.21187562       0.11379293
N       -0.45383972      -0.15580679       0.11370939
C       -1.40369203      -1.15686709      -0.29380708
C        0.89062153      -0.48458638      -0.00670864
O        1.41518601      -1.54085984       0.52207030
C        2.00749731       0.37909532       0.37740056
H       -1.77072183       1.30588221       0.73500564
H       -0.11581795       1.88833706       0.50404314
H       -1.13571540       1.54200240      -0.90205921
H       -1.79166458      -0.93858649      -1.29793199
H       -2.24547593      -1.16485081       0.40406015
H       -0.94024744      -2.14132213      -0.28823714
H        2.57246662       0.18539571       1.28277365
H        2.42713033       1.21821413      -0.16689472
H        1.42037285      -0.14792292      -1.09721697
15
Frame=7 idx=004796 GeodesicLength=0.5513609298757282 rxn_smarts="[C:1]([N:2]([C:3]([H:10])([H:11])[H:12])[C:4](=[O:5])[C:6]([H:13])([H:14])[H:15])([H:7])([H:8])[H:9]>>[C:1]([N:2]([C:3]([H:10])([H:11])[H:12])[C@:4]1([H:15])[O:5][C:6]1([H:13])[H:14])([H:7])([H:8])[H:9]"
C       -0.87462305       1.21249434       0.10696196
N       -0.44952637      -0.15256340       0.06727661
C       -1.40812286      -1.15804424      -0.30352936
C        0.89080555      -0.49261246      -0.01983287
O        1.40651405      -1.52798720       0.55967610
C        2.00913564       0.36246927       0.37339051
H       -1.73320426       1.29756138       0.77891582
H       -0.09829161       1.89326441       0.45445857
H       -1.19341113       1.54398184      -0.89091767
H       -1.83549503      -0.93347978      -1.28954565
H       -2.22216336      -1.17408267       0.42690844
H       -0.94026303      -2.14020768      -0.32239832
H        2.54072070       0.20363966       1.30567045
H        2.44177869       1.21072990      -0.14607613
H        1.46614605      -0.14516336      -1.10095845
15
Frame=8 idx=004796 GeodesicLength=0.629794603208247 rxn_smarts="[C:1]([N:2]([C:3]([H:10])([H:11])[H:12])[C:4](=[O:5])[C:6]([H:13])([H:14])[H:15])([H:7])([H:8])[H:9]>>[C:1]([N:2]([C:3]([H:10])([H:11])[H:12])[C@:4]1([H:15])[O:5][C:6]1([H:13])[H:14])([H:7])([H:8])[H:9]"
C       -0.87216360       1.21253519       0.09949737
N       -0.44466248      -0.14898756       0.01679548
C       -1.41223871      -1.15876764      -0.31380306
C        0.89096923      -0.50098457      -0.03331624
O        1.39449923      -1.51342625       0.59816404
C        2.01006038       0.34587738       0.37040409
H       -1.68950902       1.28724610       0.82275226
H       -0.08155385       1.89780657       0.40158207
H       -1.25230676       1.54598846      -0.87543291
H       -1.88085129      -0.92825114      -1.27890245
H       -2.19510276      -1.18325079       0.45021833
H       -0.94092184      -2.13842083      -0.35857128
H        2.50567083       0.22364489       1.32804714
H        2.45472730       1.20288983      -0.12419860
H        1.51338333      -0.14389965      -1.10323625
15
Frame=9 idx=004796 GeodesicLength=0.7083698614115151 rxn_smarts="[C:1]([N:2]([C:3]([H:10])([H:11])[H:12])[C:4](=[O:5])[C:6]([H:13])([H:14])[H:15])([H:7])([H:8])[H:9]>>[C:1]([N:2]([C:3]([H:10])([H:11])[H:12])[C@:4]1([H:15])[O:5][C:6]1([H:13])[H:14])([H:7])([H:8])[H:9]"
C       -0.86864713       1.21182883       0.09150053
N       -0.43926093      -0.14512923      -0.03723706
C       -1.41587854      -1.15887664      -0.32457410
C        0.89084262      -0.50959768      -0.04684129
O        1.37888149      -1.49702969       0.63724252
C        2.01003554       0.32943390       0.36848574
H       -1.63938048       1.27485083       0.86576513
H       -0.06600077       1.90188872       0.34570704
H       -1.31160925       1.54759922      -0.85516894
H       -1.92699829      -0.92281986      -1.26587766
H       -2.16428482      -1.19216454       0.47338173
H       -0.94237150      -2.13586658      -0.39646612
H        2.46756178       0.24519399       1.34927203
H        2.46542393       1.19484921      -0.10151503
H        1.56168635      -0.14416047      -1.10367450
15
Frame=10 idx=004796 GeodesicLength=0.7872708623428711 rxn_smarts="[C:1]([N:2]([C:3]([H:10])([H:11])[H:12])[C:4](=[O:5])[C:6]([H:13])([H:14])[H:15])([H:7])([H:8])[H:9]>>[C:1]([N:2]([C:3]([H:10])([H:11])[H:12])[C@:4]1([H:15])[O:5][C:6]1([H:13])[H:14])([H:7])([H:8])[H:9]"
C       -0.86399947       1.21017020       0.08325085
N       -0.43351562      -0.14119844      -0.09333400
C       -1.41895574      -1.15824701      -0.33569802
C        0.89014642      -0.51839886      -0.06009465
O        1.35989799      -1.47874160       0.67633382
C        2.00898614       0.31318795       0.36741884
H       -1.58326240       1.26063324       0.90684768
H       -0.05203058       1.90524833       0.28780903
H       -1.36983202       1.54825566      -0.82990807
H       -1.97263344      -0.91694708      -1.25060525
H       -2.13037797      -1.20067625       0.49541296
H       -0.94486549      -2.13254250      -0.43541889
H        2.42680219       0.26835259       1.36873366
H        2.47338873       1.18680634      -0.07857541
H        1.61025128      -0.14590255      -1.10217254
15
Frame=11 idx=004796 GeodesicLength=0.8666134902511177 rxn_smarts="[C:1]([N:2]([C:3]([H:10])([H:11])[H:12])[C:4](=[O:5])[C:6]([H:13])([H:14])[H:15])([H:7])([H:8])[H:9]>>[C:1]([N:2]([C:3]([H:10])([H:11])[H:12])[C@:4]1([H:15])[O:5][C:6]1([H:13])[H:14])([H:7])([H:8])[H:9]"
C       -0.85832318       1.20751175       0.07513932
N       -0.42769009      -0.13749141      -0.14909051
C       -1.42145256      -1.15686579      -0.34689872
C        0.88866169      -0.52729979      -0.07266887
O        1.33829214      -1.45876551       0.71463513
C        2.00694112       0.29724662       0.36691042
H       -1.52268646       1.24530510       0.94464192
H       -0.04007170       1.90767165       0.22955186
H       -1.42500737       1.54736441      -0.80018696
H       -2.01606661      -0.91050695      -1.23366110
H       -2.09482889      -1.20862527       0.51520807
H       -0.94853961      -2.12856562      -0.47430396
H        2.38466505       0.29259988       1.38548932
H        2.47813365       1.17908330      -0.05601641
H        1.65797282      -0.14866236      -1.09874951
15
Frame=12 idx=004796 GeodesicLength=0.9464957004153471 rxn_smarts="[C:1]([N:2]([C:3]([H:10])([H:11])[H:12])[C:4](=[O:5])[C:6]([H:13])([H:14])[H:15])([H:7])([H:8])[H:9]>>[C:1]([N:2]([C:3]([H:10])([H:11])[H:12])[C@:4]1([H:15])[O:5][C:6]1([H:13])[H:14])([H:7])([H:8])[H:9]"
C       -0.85178535       1.20391933       0.06754244
N       -0.42196030      -0.13425563      -0.20231265
C       -1.42344038      -1.15482467      -0.35789326
C        0.88635111      -0.53627699      -0.08433015
O        1.31505199      -1.43743333       0.75137516
C        2.00407335       0.28161749       0.36663505
H       -1.45962027       1.22963382       0.97823552
H       -0.03024569       1.90896990       0.17259083
H       -1.47552815       1.54463582      -0.76697156
H       -2.05600464      -0.90338613      -1.21579360
H       -2.05920627      -1.21601193       0.53210724
H       -0.95337241      -2.12409981      -0.51208098
H        2.34214221       0.31758603       1.39899057
H        2.47959007       1.17182985      -0.03443777
H        1.70395473      -0.15190375      -1.09365683
15
Frame=13 idx=004796 GeodesicLength=1.0268027442725913 rxn_smarts="[C:1]([N:2]([C:3]([H:10])([H:11])[H:12])[C:4](=[O:5])[C:6]([H:13])([H:14])[H:15])([H:7])([H:8])[H:9]>>[C:1]([N:2]([C:3]([H:10])([H:11])[H:12])[C@:4]1([H:15])[O:5][C:6]1([H:13])[H:14])([H:7])([H:8])[H:9]"
C       -0.84472597       1.19963292       0.06065272
N       -0.41652428      -0.13161940      -0.25161126
C       -1.42507328      -1.15231229      -0.36843221
C        0.88328378      -0.54524044      -0.09489633
O        1.29113154      -1.41512667       0.78607732
C        2.00056243       0.26643916       0.36646443
H       -1.39614824       1.21438783       1.00713554
H       -0.02264030       1.90916564       0.11834185
H       -1.52044624       1.54007713      -0.73166331
H       -2.09188333      -0.89575668      -1.19766769
H       -2.02476359      -1.22285679       0.54597861
H       -0.95922070      -2.11935051      -0.54801754
H        2.30078064       0.34236397       1.40890675
H        2.47793077       1.16519946      -0.01414130
H        1.74773678      -0.15500332      -1.08712758
15
Frame=14 idx=004796 GeodesicLength=1.1075060658250524 rxn_smarts="[C:1]([N:2]([C:3]([H:10])([H:11])[H:12])[C:4](=[O:5])[C:6]([H:13])([H:14])[H:15])([H:7])([H:8])[H:9]>>[C:1]([N:2]([C:3]([H:10])([H:11])[H:12])[C@:4]1([H:15])[O:5][C:6]1([H:13])[H:14])([H:7])([H:8])[H:9]"
C       -0.83734796       1.19482843       0.05450183
N       -0.41141827      -0.12957269      -0.29672401
C       -1.42648972      -1.14948441      -0.37840561
C        0.87961149      -0.55418209      -0.10442381
O        1.26715589      -1.39213876       0.81854882
C        1.99658261       0.25169053       0.36633946
H       -1.33350561       1.19987609       1.03152032
H       -0.01701189       1.90833442       0.06728483
H       -1.55977536       1.53395629      -0.69517213
H       -2.12386364      -0.88769263      -1.17962294
H       -1.99204166      -1.22931697       0.55714678
H       -0.96593398      -2.11443307      -0.58191188
H        2.26101924       0.36666215       1.41555272
H        2.47366090       1.15911706       0.00478322
H        1.78935795      -0.15764434      -1.07941760
15
Frame=15 idx=004796 GeodesicLength=1.1885046250194797 rxn_smarts="[C:1]([N:2]([C:3]([H:10])([H:11])[H:12])[C:4](=[O:5])[C:6]([H:13])([H:14])[H:15])([H:7])([H:8])[H:9]>>[C:1]([N:2]([C:3]([H:10])([H:11])[H:12])[C@:4]1([H:15])[O:5][C:6]1([H:13])[H:14])([H:7])([H:8])[H:9]"
C       -0.82985771       1.18968082       0.04903598
N       -0.40664967      -0.12804283      -0.33787213
C       -1.42779026      -1.14646284      -0.38776438
C        0.87545626      -0.56305441      -0.11296186
O        1.24348716      -1.36867988       0.84881427
C        1.99223786       0.23741481       0.36627739
H       -1.27252132       1.18626773       1.05176614
H       -0.01316242       1.90663547       0.01958744
H       -1.59388070       1.52656256      -0.65829816
H       -2.15237817      -0.87935249      -1.16182109
H       -1.96119929      -1.23549852       0.56605552
H       -0.97334562      -2.10941237      -0.61380831
H        2.22332246       0.39005644       1.41929499
H        2.46723783       1.15351571       0.02236726
H        1.82904359      -0.15963019      -1.07067307
15
Frame=16 idx=004796 GeodesicLength=1.2697339844368405 rxn_smarts="[C:1]([N:2]([C:3]([H:10])([H:11])[H:12])[C:4](=[O:5])[C:6]([H:13])([H:14])[H:15])([H:7])([H:8])[H:9]>>[C:1]([N:2]([C:3]([H:10])([H:11])[H:12])[C@:4]1([H:15])[O:5][C:6]1([H:13])[H:14])([H:7])([H:8])[H:9]"
C       -0.82238340       1.18430311       0.04418028
N       -0.40219341      -0.12694829      -0.37549312
C       -1.42903871      -1.14332505      -0.39651148
C        0.87091390      -0.57183215      -0.12059480
O        1.22032315      -1.34489537       0.87698378
C        1.98760323       0.22361138       0.36628697
H       -1.21360452       1.17357647       1.06836214
H       -0.01086094       1.90421305      -0.02484805
H       -1.62330332       1.51817140      -0.62155063
H       -2.17790864      -0.87084274      -1.14431657
H       -1.93218231      -1.24148910       0.57312451
H       -0.98132909      -2.10431547      -0.64386116
H        2.18779899       0.41237029       1.42057191
H        2.45908200       1.14830093       0.03867274
H        1.86708310      -0.16089846      -1.06100654
