16
Frame=0 idx=007663 GeodesicLength=0.0 rxn_smarts="[C:1]([O:2][C:3](/[C:4](=[N:5]\[O:6][H:13])[C:7]([H:14])([H:15])[H:16])([H:11])[H:12])([H:8])([H:9])[H:10]>>[C:1]([O:2][H:13])([H:8])([H:9])[H:10].[C:3](=[C:4]([N:5]=[O:6])[C:7]([H:14])([H:15])[H:16])([H:11])[H:12]"
C        1.87216294       0.59610036      -0.59053315
O        1.19255942       1.15798863       0.52258375
C       -0.20486037       0.08970487       1.22911306
C       -1.03735426      -0.23756160       0.15229340
N       -1.57285122       0.77654428      -0.54629478
O       -1.07095066       1.91670939      -0.31575662
C       -1.33781125      -1.63853590      -0.29673895
H        2.67036963      -0.04231298      -0.21516974
H        1.18998924       0.00895147      -1.21307425
H        2.29768403       1.39913212      -1.19363947
H       -0.47630378       0.94677466       1.83560095
H        0.34243078      -0.69031262       1.74593881
H        0.40752661       1.70982340       0.16670095
H       -1.68246288      -2.27483094       0.52030569
H       -0.46711231      -2.12127252      -0.74978598
H       -2.12301596      -1.59690266      -1.05154373
16
Frame=1 idx=007663 GeodesicLength=0.1316461857777715 rxn_smarts="[C:1]([O:2][C:3](/[C:4](=[N:5]\[O:6][H:13])[C:7]([H:14])([H:15])[H:16])([H:11])[H:12])([H:8])([H:9])[H:10]>>[C:1]([O:2][H:13])([H:8])([H:9])[H:10].[C:3](=[C:4]([N:5]=[O:6])[C:7]([H:14])([H:15])[H:16])([H:11])[H:12]"
C        1.87673290       0.58903543      -0.59880384
O        1.19823805       1.15516634       0.51135361
C       -0.20003644       0.08750554       1.23419621
C       -1.04730965      -0.23737261       0.16680950
N       -1.59481555       0.77872819      -0.52151015
O       -1.08642960       1.91932924      -0.29759259
C       -1.33217606      -1.63464748      -0.30061007
H        2.67680555      -0.04665540      -0.22274508
H        1.19272067       0.00039392      -1.21828072
H        2.30230183       1.39037817      -1.20477570
H       -0.46347580       0.94713150       1.84138258
H        0.32950426      -0.69664249       1.76292479
H        0.39177578       1.73317002       0.14914815
H       -1.71232364      -2.26767235       0.50320287
H       -0.44712216      -2.12394950      -0.71638846
H       -2.08439013      -1.59389851      -1.08831111
16
Frame=2 idx=007663 GeodesicLength=0.2633141024435718 rxn_smarts="[C:1]([O:2][C:3](/[C:4](=[N:5]\[O:6][H:13])[C:7]([H:14])([H:15])[H:16])([H:11])[H:12])([H:8])([H:9])[H:10]>>[C:1]([O:2][H:13])([H:8])([H:9])[H:10].[C:3](=[C:4]([N:5]=[O:6])[C:7]([H:14])([H:15])[H:16])([H:11])[H:12]"
C        1.88152476       0.58179049      -0.60712407
O        1.20424738       1.15156244       0.50039119
C       -0.19522128       0.08516960       1.23938612
C       -1.05701967      -0.23745883       0.18152943
N       -1.61648097       0.78043496      -0.49649116
O       -1.10211902       1.92163198      -0.27922852
C       -1.32632232      -1.63054859      -0.30455289
H        2.68427126      -0.05039122      -0.23079327
H        1.19601719      -0.00904803      -1.22320726
H        2.30610041       1.38178683      -1.21622414
H       -0.45063262       0.94764266       1.84677065
H        0.31528609      -0.70267917       1.78103510
H        0.37514689       1.75682401       0.13079924
H       -1.74143788      -2.26057979       0.48425681
H       -0.42890359      -2.12666800      -0.68314545
H       -2.04445662      -1.58946931      -1.12340178
16
Frame=3 idx=007663 GeodesicLength=0.39500293422146143 rxn_smarts="[C:1]([O:2][C:3](/[C:4](=[N:5]\[O:6][H:13])[C:7]([H:14])([H:15])[H:16])([H:11])[H:12])([H:8])([H:9])[H:10]>>[C:1]([O:2][H:13])([H:8])([H:9])[H:10].[C:3](=[C:4]([N:5]=[O:6])[C:7]([H:14])([H:15])[H:16])([H:11])[H:12]"
C        1.88654850       0.57434682      -0.61549170
O        1.21064686       1.14710641       0.48976237
C       -0.19041920       0.08268547       1.24469924
C       -1.06648384      -0.23781877       0.19645004
N       -1.63782441       0.78166142      -0.47126785
O       -1.11802781       1.92362203      -0.26062181
C       -1.32023232      -1.62623258      -0.30855384
H        2.69274958      -0.05359682      -0.23938730
H        1.19986505      -0.01933145      -1.22787264
H        2.30910721       1.37336318      -1.22793309
H       -0.43778060       0.94830671       1.85176245
H        0.29972327      -0.70834636       1.80026590
H        0.35756074       1.78082239       0.11158234
H       -1.76970784      -2.25351936       0.46352116
H       -0.41240381      -2.12943898      -0.65015219
H       -2.00332140      -1.58363008      -1.15676309
16
Frame=4 idx=007663 GeodesicLength=0.5267258895518748 rxn_smarts="[C:1]([O:2][C:3](/[C:4](=[N:5]\[O:6][H:13])[C:7]([H:14])([H:15])[H:16])([H:11])[H:12])([H:8])([H:9])[H:10]>>[C:1]([O:2][H:13])([H:8])([H:9])[H:10].[C:3](=[C:4]([N:5]=[O:6])[C:7]([H:14])([H:15])[H:16])([H:11])[H:12]"
C        1.89181807       0.56668884      -0.62390105
O        1.21751096       1.14172279       0.47955322
C       -0.18563402       0.08003583       1.25015376
C       -1.07569607      -0.23845176       0.21155838
N       -1.65881807       0.78240950      -0.44588016
O       -1.13416207       1.92531200      -0.24172219
C       -1.31389868      -1.62169776      -0.31260073
H        2.70224269      -0.05633238      -0.24860936
H        1.20425941      -0.03042180      -1.23228665
H        2.31132758       1.36512274      -1.23985329
H       -0.42492480       0.94911688       1.85635826
H        0.28277311      -0.71356978       1.82060010
H        0.33892787       1.80520832       0.09141625
H       -1.79705981      -2.24644776       0.44105706
H       -0.39757579      -2.13229155      -0.61748290
H       -1.96109038      -1.57640411      -1.18836069
16
Frame=5 idx=007663 GeodesicLength=0.6584456144842366 rxn_smarts="[C:1]([O:2][C:3](/[C:4](=[N:5]\[O:6][H:13])[C:7]([H:14])([H:15])[H:16])([H:11])[H:12])([H:8])([H:9])[H:10]>>[C:1]([O:2][H:13])([H:8])([H:9])[H:10].[C:3](=[C:4]([N:5]=[O:6])[C:7]([H:14])([H:15])[H:16])([H:11])[H:12]"
C        1.89733697       0.55879616      -0.63235316
O        1.22490955       1.13528132       0.46983998
C       -0.18088664       0.07719851       1.25576809
C       -1.08464774      -0.23935408       0.22683698
N       -1.67941340       0.78267644      -0.42038185
O       -1.15050325       1.92669021      -0.22247984
C       -1.30729985      -1.61693280      -0.31666940
H        2.71273575      -0.05866556      -0.25857278
H        1.20917806      -0.04226534      -1.23648120
H        2.31276488       1.35708841      -1.25190547
H       -0.41208580       0.95005829       1.86055181
H        0.26437910      -0.71825571       1.84201453
H        0.31915716       1.83003499       0.07024969
H       -1.82342282      -2.23929103       0.41694182
H       -0.38435487      -2.13521926      -0.58521040
H       -1.91784708      -1.56784055      -1.21814878
16
Frame=6 idx=007663 GeodesicLength=0.7901989401486543 rxn_smarts="[C:1]([O:2][C:3](/[C:4](=[N:5]\[O:6][H:13])[C:7]([H:14])([H:15])[H:16])([H:11])[H:12])([H:8])([H:9])[H:10]>>[C:1]([O:2][H:13])([H:8])([H:9])[H:10].[C:3](=[C:4]([N:5]=[O:6])[C:7]([H:14])([H:15])[H:16])([H:11])[H:12]"
C        1.90313331       0.55065455      -0.64081938
O        1.23295005       1.12770245       0.46075937
C       -0.17618441       0.07415216       1.26156257
C       -1.09332305      -0.24052419       0.24225310
N       -1.69958451       0.78247240      -0.39482432
O       -1.16705638       1.92778433      -0.20283782
C       -1.30044697      -1.61194426      -0.32075318
H        2.72426285      -0.06063796      -0.26935652
H        1.21463933      -0.05483942      -1.24043460
H        2.31340033       1.34928498      -1.26402715
H       -0.39926753       0.95112125       1.86434268
H        0.24452671      -0.72233093       1.86444981
H        0.29812752       1.85535144       0.04794166
H       -1.84871428      -2.23201276       0.39125853
H       -0.37271224      -2.13825745      -0.55342757
H       -1.87375072      -1.55797661      -1.24608718
16
Frame=7 idx=007663 GeodesicLength=0.9219660051928451 rxn_smarts="[C:1]([O:2][C:3](/[C:4](=[N:5]\[O:6][H:13])[C:7]([H:14])([H:15])[H:16])([H:11])[H:12])([H:8])([H:9])[H:10]>>[C:1]([O:2][H:13])([H:8])([H:9])[H:10].[C:3](=[C:4]([N:5]=[O:6])[C:7]([H:14])([H:15])[H:16])([H:11])[H:12]"
C        1.90922101       0.54224343      -0.64928233
O        1.24173850       1.11884004       0.45244416
C       -0.17155256       0.07087166       1.26756358
C       -1.10170637      -0.24195572       0.25777358
N       -1.71928705       0.78180537      -0.36926822
O       -1.18379638       1.92859911      -0.18273934
C       -1.29333381      -1.60672867      -0.32483373
H        2.73684365      -0.06230140      -0.28108756
H        1.22063618      -0.06810327      -1.24415186
H        2.31320136       1.34175174      -1.27612739
H       -0.38648478       0.95229053       1.86772833
H        0.22318400      -0.72570371       1.88785178
H        0.27571324       1.88121849       0.02437965
H       -1.87287469      -2.22454116       0.36409851
H       -0.36259156      -2.14140957      -0.52220219
H       -1.82891074      -1.54687686      -1.27214697
16
Frame=8 idx=007663 GeodesicLength=1.0537781632508745 rxn_smarts="[C:1]([O:2][C:3](/[C:4](=[N:5]\[O:6][H:13])[C:7]([H:14])([H:15])[H:16])([H:11])[H:12])([H:8])([H:9])[H:10]>>[C:1]([O:2][H:13])([H:8])([H:9])[H:10].[C:3](=[C:4]([N:5]=[O:6])[C:7]([H:14])([H:15])[H:16])([H:11])[H:12]"
C        1.91562404       0.53354738      -0.65771575
O        1.25142284       1.10854592       0.44507552
C       -0.16701237       0.06732652       1.27380479
C       -1.10977307      -0.24363816       0.27335090
N       -1.73847667       0.78070001      -0.34378303
O       -1.20069748       1.92916066      -0.16211710
C       -1.28597187      -1.60129253      -0.32890046
H        2.75054476      -0.06366672      -0.29391296
H        1.22718555      -0.08204567      -1.24761047
H        2.31207621       1.33454389      -1.28812866
H       -0.37374533       0.95354988       1.87071718
H        0.20033786      -0.72830547       1.91215161
H        0.25175802       1.90770364      -0.00058727
H       -1.89589158      -2.21679085       0.33555111
H       -0.35395932      -2.14472792      -0.49155949
H       -1.78342156      -1.53461057      -1.29633591
16
Frame=9 idx=007663 GeodesicLength=1.1855976280560911 rxn_smarts="[C:1]([O:2][C:3](/[C:4](=[N:5]\[O:6][H:13])[C:7]([H:14])([H:15])[H:16])([H:11])[H:12])([H:8])([H:9])[H:10]>>[C:1]([O:2][H:13])([H:8])([H:9])[H:10].[C:3](=[C:4]([N:5]=[O:6])[C:7]([H:14])([H:15])[H:16])([H:11])[H:12]"
C        1.92233928       0.52454538      -0.66610619
O        1.26213718       1.09654156       0.43878962
C       -0.16261501       0.06347938       1.28032229
C       -1.11750247      -0.24555915       0.28893547
N       -1.75706693       0.77916800      -0.31847175
O       -1.21766914       1.92944967      -0.14092947
C       -1.27835092      -1.59563086      -0.33291957
H        2.76537206      -0.06475747      -0.30804613
H        1.23425130      -0.09659988      -1.25083481
H        2.30994910       1.32774100      -1.29986519
H       -0.36106879       0.95487152       1.87329773
H        0.17595098      -0.73003401       1.93729662
H        0.22610965       1.93492293      -0.02704829
H       -1.91774151      -2.20865426       0.30572480
H       -0.34675691      -2.14819574      -0.46150880
H       -1.73733787      -1.52128808      -1.31863634
16
Frame=10 idx=007663 GeodesicLength=1.3174525061390765 rxn_smarts="[C:1]([O:2][C:3](/[C:4](=[N:5]\[O:6][H:13])[C:7]([H:14])([H:15])[H:16])([H:11])[H:12])([H:8])([H:9])[H:10]>>[C:1]([O:2][H:13])([H:8])([H:9])[H:10].[C:3](=[C:4]([N:5]=[O:6])[C:7]([H:14])([H:15])[H:16])([H:11])[H:12]"
C        1.92940784       0.51521227      -0.67439050
O        1.27409075       1.08265785       0.43387182
C       -0.15838695       0.05931117       1.28716564
C       -1.12486454      -0.24769566       0.30446695
N       -1.77503587       0.77725579      -0.29339497
O       -1.23467970       1.92951918      -0.11912311
C       -1.27048759      -1.58975662      -0.33689532
H        2.78140917      -0.06561892      -0.32364155
H        1.24186239      -0.11174528      -1.25378226
H        2.30671169       1.32141366      -1.31120429
H       -0.34845209       0.95625938       1.87548521
H        0.15002994      -0.73083133       1.96319119
H        0.19853784       1.96294121      -0.05530075
H       -1.93834150      -2.20008732       0.27474427
H       -0.34094673      -2.15183868      -0.43215615
H       -1.69085467      -1.50699670      -1.33903619
16
Frame=11 idx=007663 GeodesicLength=1.4493109914726334 rxn_smarts="[C:1]([O:2][C:3](/[C:4](=[N:5]\[O:6][H:13])[C:7]([H:14])([H:15])[H:16])([H:11])[H:12])([H:8])([H:9])[H:10]>>[C:1]([O:2][H:13])([H:8])([H:9])[H:10].[C:3](=[C:4]([N:5]=[O:6])[C:7]([H:14])([H:15])[H:16])([H:11])[H:12]"
C        1.93684447       0.50552148      -0.68252345
O        1.28749884       1.06656827       0.43057439
C       -0.15437831       0.05478856       1.29439152
C       -1.13183013      -0.25002239       0.31988821
N       -1.79231539       0.77500187      -0.26863519
O       -1.25161977       1.92937521      -0.09666754
C       -1.26237965      -1.58366846      -0.34080873
H        2.79870819      -0.06626340      -0.34095389
H        1.25000540      -0.12742766      -1.25644516
H        2.30222062       1.31567381      -1.32193438
H       -0.33588842       0.95770109       1.87727647
H        0.12253268      -0.73061915       1.98977658
H        0.16879848       1.99186209      -0.08560123
H       -1.95765419      -2.19100428       0.24273447
H       -0.33647070      -2.15564190      -0.40353597
H       -1.64407211      -1.49184515      -1.35753611
16
Frame=12 idx=007663 GeodesicLength=1.5811720017372457 rxn_smarts="[C:1]([O:2][C:3](/[C:4](=[N:5]\[O:6][H:13])[C:7]([H:14])([H:15])[H:16])([H:11])[H:12])([H:8])([H:9])[H:10]>>[C:1]([O:2][H:13])([H:8])([H:9])[H:10].[C:3](=[C:4]([N:5]=[O:6])[C:7]([H:14])([H:15])[H:16])([H:11])[H:12]"
C        1.94466553       0.49544340      -0.69044956
O        1.30263494       1.04787193       0.42920997
C       -0.15063737       0.04987599       1.30207286
C       -1.13836272      -0.25250531       0.33513653
N       -1.80883148       0.77246453      -0.24427960
O       -1.26835103       1.92903830      -0.07354901
C       -1.25402649      -1.57737030      -0.34464526
H        2.81733946      -0.06668394      -0.36029537
H        1.25866848      -0.14359520      -1.25881623
H        2.29627149       1.31066666      -1.33179301
H       -0.32334735       0.95919448       1.87867225
H        0.09340121      -0.72932976       2.01701328
H        0.13658475       2.02180676      -0.11827518
H       -1.97565690      -2.18131867       0.20982174
H       -0.33327397      -2.15960761      -0.37566441
H       -1.59707854      -1.47595126      -1.37415900
16
Frame=13 idx=007663 GeodesicLength=1.7130284451893105 rxn_smarts="[C:1]([O:2][C:3](/[C:4](=[N:5]\[O:6][H:13])[C:7]([H:14])([H:15])[H:16])([H:11])[H:12])([H:8])([H:9])[H:10]>>[C:1]([O:2][H:13])([H:8])([H:9])[H:10].[C:3](=[C:4]([N:5]=[O:6])[C:7]([H:14])([H:15])[H:16])([H:11])[H:12]"
C        1.95288465       0.48494193      -0.69809766
O        1.31982560       1.02604705       0.43014861
C       -0.14721645       0.04453434       1.31029727
C       -1.14442009      -0.25510288       0.35015017
N       -1.82450020       0.76971516      -0.22040901
O       -1.28468644       1.92852785      -0.04978659
C       -1.24542168      -1.57086308      -0.34838945
H        2.83737005      -0.06686506      -0.38204285
H        1.26782844      -0.16017475      -1.26090141
H        2.28861473       1.30658110      -1.34042101
H       -0.31076525       0.96074532       1.87966238
H        0.06254338      -0.72688867       2.04488149
H        0.10151658       2.05290903      -0.15374417
H       -1.99231065      -2.17095271       0.17614690
H       -0.33129023      -2.16371717      -0.34856768
H       -1.54997245      -1.45943745      -1.38892701
16
Frame=14 idx=007663 GeodesicLength=1.8448778656191056 rxn_smarts="[C:1]([O:2][C:3](/[C:4](=[N:5]\[O:6][H:13])[C:7]([H:14])([H:15])[H:16])([H:11])[H:12])([H:8])([H:9])[H:10]>>[C:1]([O:2][H:13])([H:8])([H:9])[H:10].[C:3](=[C:4]([N:5]=[O:6])[C:7]([H:14])([H:15])[H:16])([H:11])[H:12]"
C        1.96151086       0.47397389      -0.70537692
O        1.33946961       1.00040923       0.43382624
C       -0.14416313       0.03871695       1.31917115
C       -1.14994796      -0.25776448       0.36487258
N       -1.83922692       0.76684288      -0.19708372
O       -1.30037635       1.92786353      -0.02543480
C       -1.23655005      -1.56414127      -0.35202596
H        2.85885868      -0.06675824      -0.40665849
H        1.27745781      -0.17707416      -1.26272027
H        2.27892749       1.30365753      -1.34733057
H       -0.29802021       0.96236925       1.88021918
H        0.02981797      -0.72321219       2.07339129
H        0.06310251       2.08530265      -0.19256658
H       -2.00757816      -2.15982691       0.14185171
H       -0.33044590      -2.16794515      -0.32226277
H       -1.50283625      -1.44241350      -1.40187208
16
Frame=15 idx=007663 GeodesicLength=1.976717324215036 rxn_smarts="[C:1]([O:2][C:3](/[C:4](=[N:5]\[O:6][H:13])[C:7]([H:14])([H:15])[H:16])([H:11])[H:12])([H:8])([H:9])[H:10]>>[C:1]([O:2][H:13])([H:8])([H:9])[H:10].[C:3](=[C:4]([N:5]=[O:6])[C:7]([H:14])([H:15])[H:16])([H:11])[H:12]"
C        1.97054342       0.46248510      -0.71216726
O        1.36204704       0.97003003       0.44074930
C       -0.14152014       0.03236605       1.32882282
C       -1.15487803      -0.26042924       0.37925458
N       -1.85289776       0.76395863      -0.17434187
O       -1.31507628       1.92706388      -0.00061174
C       -1.22738631      -1.55719152      -0.35553700
H        2.88184166      -0.06627078      -0.43470537
H        1.28751468      -0.19416502      -1.26432705
H        2.26680390       1.30221069      -1.35182954
H       -0.28490476       0.96409589       1.88028201
H       -0.00497303      -0.71818703       2.10258979
H        0.02070408       2.11912483      -0.23546730
H       -2.02140850      -2.14786486       0.10709333
H       -0.33065056      -2.17224539      -0.29677659
H       -1.45575941      -1.42498126      -1.41302811
16
Frame=16 idx=007663 GeodesicLength=2.108550157450393 rxn_smarts="[C:1]([O:2][C:3](/[C:4](=[N:5]\[O:6][H:13])[C:7]([H:14])([H:15])[H:16])([H:11])[H:12])([H:8])([H:9])[H:10]>>[C:1]([O:2][H:13])([H:8])([H:9])[H:10].[C:3](=[C:4]([N:5]=[O:6])[C:7]([H:14])([H:15])[H:16])([H:11])[H:12]"
C        1.97996955       0.45040411      -0.71829829
O        1.38813227       0.93363305       0.45149983
C       -0.13931944       0.02540810       1.33940719
C       -1.15912642      -0.26302356       0.39326479
N       -1.86538322       0.76120419      -0.15217221
O       -1.32830937       1.92614741       0.02446988
C       -1.21789473      -1.54998262      -0.35890355
H        2.90631633      -0.06523631      -0.46685267
H        1.29794399      -0.21126665      -1.26582360
H        2.25173520       1.30264620      -1.35292096
H       -0.27107887       0.96597153       1.87973567
H       -0.04207900      -0.71165159       2.13256207
H       -0.02653645       2.15448792      -0.28342564
H       -2.03372516      -2.13499541       0.07205534
H       -0.33178689      -2.17653612      -0.27216756
H       -1.40885780      -1.40721025      -1.42243029
