13
Frame=0 idx=005504 GeodesicLength=0.0 rxn_smarts="[C:1]([C:2]([O:3][C:4]([C:5]#[N:6])([H:12])[H:13])([H:10])[H:11])([H:7])([H:8])[H:9]>>[C:1]1([H:7])([H:9])[C:2]([H:10])([H:11])[O:3][C:4]([H:12])([H:13])[C:5][N:6]1[H:8]"
C       -1.26331040      -0.67008773       0.10161958
C       -0.84338297       0.71529174      -0.26308290
O        0.21315505       1.16667456       0.59031167
C        1.47632196       0.71983925       0.22856208
C        1.60570998      -0.77089715       0.04581914
N        0.69322980      -1.55654795      -0.00340014
H       -1.88243133      -1.16207847      -0.64899162
H       -0.17536498      -2.08180239      -0.01090276
H       -1.65883350      -0.76614905       1.11055467
H       -1.64284246       1.45304898      -0.14216206
H       -0.51550800       0.76202574      -1.31138270
H        2.16823454       1.01862444       1.01523435
H        1.82502232       1.17205801      -0.71217929
13
Frame=1 idx=005504 GeodesicLength=0.11703260180463688 rxn_smarts="[C:1]([C:2]([O:3][C:4]([C:5]#[N:6])([H:12])[H:13])([H:10])[H:11])([H:7])([H:8])[H:9]>>[C:1]1([H:7])([H:9])[C:2]([H:10])([H:11])[O:3][C:4]([H:12])([H:13])[C:5][N:6]1[H:8]"
C       -1.26045977      -0.67607255       0.10639191
C       -0.83865317       0.70764981      -0.26790042
O        0.20938462       1.16507556       0.59050493
C        1.47745225       0.72404997       0.23379265
C        1.61360753      -0.76438641       0.04586820
N        0.70679803      -1.55817292      -0.00971365
H       -1.91514788      -1.14922001      -0.62588299
H       -0.19951931      -2.07430924      -0.03718257
H       -1.64000576      -0.77087551       1.12184797
H       -1.63684646       1.44916024      -0.16456407
H       -0.50768513       0.74136945      -1.31579742
H        2.16361526       1.02256254       1.02565066
H        1.82745980       1.18316907      -0.70301520
13
Frame=2 idx=005504 GeodesicLength=0.2338900537970314 rxn_smarts="[C:1]([C:2]([O:3][C:4]([C:5]#[N:6])([H:12])[H:13])([H:10])[H:11])([H:7])([H:8])[H:9]>>[C:1]1([H:7])([H:9])[C:2]([H:10])([H:11])[O:3][C:4]([H:12])([H:13])[C:5][N:6]1[H:8]"
C       -1.25772837      -0.68211942       0.11074052
C       -0.83392348       0.69995107      -0.27281322
O        0.20548354       1.16337062       0.59064676
C        1.47843373       0.72825257       0.23900249
C        1.62146871      -0.75783654       0.04603677
N        0.72048627      -1.55980053      -0.01560153
H       -1.94745067      -1.13540978      -0.60163407
H       -0.22390224      -2.06698084      -0.06383052
H       -1.62090929      -0.77595270       1.13255003
H       -1.63063110       1.44502020      -0.18707512
H       -0.49978047       0.72073497      -1.32011241
H        2.15882330       1.02655783       1.03596806
H        1.82963006       1.19421255      -0.69387776
13
Frame=3 idx=005504 GeodesicLength=0.35046910516858365 rxn_smarts="[C:1]([C:2]([O:3][C:4]([C:5]#[N:6])([H:12])[H:13])([H:10])[H:11])([H:7])([H:8])[H:9]>>[C:1]1([H:7])([H:9])[C:2]([H:10])([H:11])[O:3][C:4]([H:12])([H:13])[C:5][N:6]1[H:8]"
C       -1.25512264      -0.68822864       0.11467037
C       -0.82919200       0.69219300      -0.27781581
O        0.20145017       1.16155486       0.59074298
C        1.47926429       0.73245578       0.24418753
C        1.62929896      -0.75123384       0.04629654
N        0.73431056      -1.56143124      -0.02109156
H       -1.97920681      -1.12066238      -0.57626318
H       -0.24863900      -2.05984245      -0.09078014
H       -1.60156361      -0.78139435       1.14264494
H       -1.62418782       1.44063430      -0.20968622
H       -0.49179488       0.70012980      -1.32432477
H        2.15385766       1.03061128       1.04618484
H        1.83152511       1.20521387      -0.68476551
13
Frame=4 idx=005504 GeodesicLength=0.4667120206445334 rxn_smarts="[C:1]([C:2]([O:3][C:4]([C:5]#[N:6])([H:12])[H:13])([H:10])[H:11])([H:7])([H:8])[H:9]>>[C:1]1([H:7])([H:9])[C:2]([H:10])([H:11])[O:3][C:4]([H:12])([H:13])[C:5][N:6]1[H:8]"
C       -1.25264606      -0.69440393       0.11818353
C       -0.82445738       0.68437523      -0.28290525
O        0.19728230       1.15962295       0.59080064
C        1.47994318       0.73666877       0.24934484
C        1.63710156      -0.74456368       0.04661387
N        0.74829163      -1.56305082      -0.02620900
H       -2.01028356      -1.10499425      -0.54978859
H       -0.27386627      -2.05293746      -0.11796017
H       -1.58198576      -0.78721072       1.15211581
H       -1.61751121       1.43600716      -0.23238984
H       -0.48372971       0.67956413      -1.32843517
H        2.14871892       1.03472048       1.05630358
H        1.83314237       1.21620212      -0.67567426
13
Frame=5 idx=005504 GeodesicLength=0.5831181010543253 rxn_smarts="[C:1]([C:2]([O:3][C:4]([C:5]#[N:6])([H:12])[H:13])([H:10])[H:11])([H:7])([H:8])[H:9]>>[C:1]1([H:7])([H:9])[C:2]([H:10])([H:11])[O:3][C:4]([H:12])([H:13])[C:5][N:6]1[H:8]"
C       -1.25029007      -0.70065814       0.12129591
C       -0.81969681       0.67648251      -0.28808734
O        0.19297730       1.15758101       0.59081889
C        1.48047421       0.74093007       0.25447837
C        1.64491891      -0.73777671       0.04697596
N        0.76248382      -1.56467479      -0.03083970
H       -2.04060724      -1.08838830      -0.52215447
H       -0.29986426      -2.04636603      -0.14553805
H       -1.56214133      -0.79343013       1.16097664
H       -1.61057509       1.43112786      -0.25521322
H       -0.47555452       0.65900645      -1.33244673
H        2.14340211       1.03893590       1.06632858
H        1.83447299       1.22723029      -0.66659484
13
Frame=6 idx=005504 GeodesicLength=0.6993607238957716 rxn_smarts="[C:1]([C:2]([O:3][C:4]([C:5]#[N:6])([H:12])[H:13])([H:10])[H:11])([H:7])([H:8])[H:9]>>[C:1]1([H:7])([H:9])[C:2]([H:10])([H:11])[O:3][C:4]([H:12])([H:13])[C:5][N:6]1[H:8]"
C       -1.24805289      -0.70700123       0.12400207
C       -0.81491116       0.66850852      -0.29336265
O        0.18853349       1.15541888       0.59080264
C        1.48085798       0.74524018       0.25958907
C        1.65274775      -0.73086833       0.04735276
N        0.77691033      -1.56627497      -0.03504222
H       -2.07006369      -1.07086922      -0.49337258
H       -0.32674491      -2.04009907      -0.17340649
H       -1.54205542      -0.80006880       1.16920043
H       -1.60337830       1.42599174      -0.27815215
H       -0.46726956       0.63846263      -1.33636398
H        2.13790684       1.04324112       1.07627141
H        1.83551954       1.23831858      -0.65751832
13
Frame=7 idx=005504 GeodesicLength=0.815427153420085 rxn_smarts="[C:1]([C:2]([O:3][C:4]([C:5]#[N:6])([H:12])[H:13])([H:10])[H:11])([H:7])([H:8])[H:9]>>[C:1]1([H:7])([H:9])[C:2]([H:10])([H:11])[O:3][C:4]([H:12])([H:13])[C:5][N:6]1[H:8]"
C       -1.24592733      -0.71344366       0.12629665
C       -0.81009576       0.66043195      -0.29873220
O        0.18394434       1.15312011       0.59075536
C        1.48109229       0.74960591       0.26467925
C        1.66060026      -0.72382235       0.04771090
N        0.79161761      -1.56782965      -0.03883888
H       -2.09849357      -1.05244782      -0.46341949
H       -0.35472292      -2.03409294      -0.20151384
H       -1.52173460      -0.80714242       1.17674918
H       -1.59591595       1.42057191      -0.30121344
H       -0.45886507       0.61792104      -1.34018697
H        2.13222332       1.04763021       1.08614456
H        1.83627738       1.24949771      -0.64843108
13
Frame=8 idx=005504 GeodesicLength=0.9315482393259292 rxn_smarts="[C:1]([C:2]([O:3][C:4]([C:5]#[N:6])([H:12])[H:13])([H:10])[H:11])([H:7])([H:8])[H:9]>>[C:1]1([H:7])([H:9])[C:2]([H:10])([H:11])[O:3][C:4]([H:12])([H:13])[C:5][N:6]1[H:8]"
C       -1.24390969      -0.72000313       0.12819229
C       -0.80523426       0.65223054      -0.30420523
O        0.17920238       1.15068424       0.59067171
C        1.48117609       0.75405324       0.26975463
C        1.66850172      -0.71660384       0.04804713
N        0.80665959      -1.56933563      -0.04212686
H       -2.12576781      -1.03311143      -0.43222577
H       -0.38408331      -2.02835924      -0.23002535
H       -1.50114179      -0.81468191       1.18363034
H       -1.58817100       1.41484134      -0.32442613
H       -0.45031151       0.59734495      -1.34392074
H        2.12633948       1.05213808       1.09595686
H        1.83674012       1.26080279      -0.63932287
13
Frame=9 idx=005504 GeodesicLength=1.048448145603417 rxn_smarts="[C:1]([C:2]([O:3][C:4]([C:5]#[N:6])([H:12])[H:13])([H:10])[H:11])([H:7])([H:8])[H:9]>>[C:1]1([H:7])([H:9])[C:2]([H:10])([H:11])[O:3][C:4]([H:12])([H:13])[C:5][N:6]1[H:8]"
C       -1.24196556      -0.72672192       0.12978007
C       -0.80028361       0.64388837      -0.30979586
O        0.17431365       1.14813334       0.59054436
C        1.48112142       0.75864212       0.27482210
C        1.67650402      -0.70914074       0.04839860
N        0.82212614      -1.57077301      -0.04455799
H       -2.15195713      -1.01280452      -0.39980355
H       -0.41525263      -2.02299265      -0.25941481
H       -1.48009762      -0.82279650       1.18994537
H       -1.58010976       1.40878560      -0.34784509
H       -0.44156404       0.57663651      -1.34757383
H        2.12026189       1.05686950       1.10570418
H        1.83690324       1.27227390      -0.63020355
13
Frame=10 idx=005504 GeodesicLength=1.1655927726262372 rxn_smarts="[C:1]([C:2]([O:3][C:4]([C:5]#[N:6])([H:12])[H:13])([H:10])[H:11])([H:7])([H:8])[H:9]>>[C:1]1([H:7])([H:9])[C:2]([H:10])([H:11])[O:3][C:4]([H:12])([H:13])[C:5][N:6]1[H:8]"
C       -1.24010688      -0.73359748       0.13099448
C       -0.79525306       0.63536966      -0.31550982
O        0.16925698       1.14544067       0.59037378
C        1.48091649       0.76336387       0.27989261
C        1.68461327      -0.70143475       0.04873469
N        0.83805360      -1.57215179      -0.04631393
H       -2.17674261      -0.99157877      -0.36602442
H       -0.44844099      -2.01783653      -0.28947966
H       -1.45867748      -0.83146297       1.19557882
H       -1.57173561       1.40235185      -0.37147905
H       -0.43260718       0.55580739      -1.35114646
H        2.11396251       1.06179299       1.11541924
H        1.83676096       1.28393588      -0.62104029
13
Frame=11 idx=005504 GeodesicLength=1.2828549795880686 rxn_smarts="[C:1]([C:2]([O:3][C:4]([C:5]#[N:6])([H:12])[H:13])([H:10])[H:11])([H:7])([H:8])[H:9]>>[C:1]1([H:7])([H:9])[C:2]([H:10])([H:11])[O:3][C:4]([H:12])([H:13])[C:5][N:6]1[H:8]"
C       -1.23831997      -0.74065748       0.13186061
C       -0.79011747       0.62664965      -0.32136122
O        0.16402738       1.14261353       0.59014453
C        1.48056042       0.76824671       0.28497733
C        1.69285309      -0.69345357       0.04909876
N        0.85449208      -1.57346699      -0.04726306
H       -2.20006860      -0.96943498      -0.33080210
H       -0.48392651      -2.01284842      -0.32047982
H       -1.43681271      -0.84072815       1.20055358
H       -1.56302090       1.39550806      -0.39536801
H       -0.42340027       0.53480341      -1.35464350
H        2.10742642       1.06696472       1.12511164
H        1.83630703       1.29580350      -0.61182874
13
Frame=12 idx=005504 GeodesicLength=1.40035533681133 rxn_smarts="[C:1]([C:2]([O:3][C:4]([C:5]#[N:6])([H:12])[H:13])([H:10])[H:11])([H:7])([H:8])[H:9]>>[C:1]1([H:7])([H:9])[C:2]([H:10])([H:11])[O:3][C:4]([H:12])([H:13])[C:5][N:6]1[H:8]"
C       -1.23657646      -0.74792961       0.13239021
C       -0.78484958       0.61768369      -0.32736086
O        0.15861505       1.13964133       0.58985096
C        1.48005274       0.77332396       0.29008845
C        1.70127055      -0.68514886       0.04950597
N        0.87153520      -1.57471328      -0.04730888
H       -2.22178551      -0.94637061      -0.29406353
H       -0.52215494      -2.00794686      -0.35258117
H       -1.41443291      -0.85064761       1.20485201
H       -1.55394497       1.38818951      -0.41955217
H       -0.41389346       0.51356214      -1.35806354
H        2.10063384       1.07243876       1.13479864
H        1.83553044       1.30791742      -0.60255610
13
Frame=13 idx=005504 GeodesicLength=1.5178047113697735 rxn_smarts="[C:1]([C:2]([O:3][C:4]([C:5]#[N:6])([H:12])[H:13])([H:10])[H:11])([H:7])([H:8])[H:9]>>[C:1]1([H:7])([H:9])[C:2]([H:10])([H:11])[O:3][C:4]([H:12])([H:13])[C:5][N:6]1[H:8]"
C       -1.23486726      -0.75544650       0.13260143
C       -0.77942016       0.60843987      -0.33352773
O        0.15301201       1.13652272       0.58947795
C        1.47939011       0.77862627       0.29523839
C        1.70989654      -0.67648252       0.04999297
N        0.88923679      -1.57588147      -0.04633955
H       -2.24178020      -0.92239229      -0.25572407
H       -0.56348358      -2.00304363      -0.38599552
H       -1.39145751      -0.86129106       1.20848139
H       -1.54447646       1.38035217      -0.44407671
H       -0.40403731       0.49202075      -1.36141086
H        2.09356357       1.07827232       1.14449358
H        1.83442345       1.32030337      -0.59321127
13
Frame=14 idx=005504 GeodesicLength=1.6353748608736767 rxn_smarts="[C:1]([C:2]([O:3][C:4]([C:5]#[N:6])([H:12])[H:13])([H:10])[H:11])([H:7])([H:8])[H:9]>>[C:1]1([H:7])([H:9])[C:2]([H:10])([H:11])[O:3][C:4]([H:12])([H:13])[C:5][N:6]1[H:8]"
C       -1.23315364      -0.76325640       0.13247525
C       -0.77378575       0.59885313      -0.33989250
O        0.14719688       1.13324055       0.58901065
C        1.47856649       0.78420024       0.30045086
C        1.71879371      -0.66738763       0.05060029
N        0.90773613      -1.57695398      -0.04425689
H       -2.25986705      -0.89746600      -0.21563429
H       -0.60855755      -1.99800500      -0.42089640
H       -1.36774225      -0.87277712       1.21138449
H       -1.53458237       1.37189813      -0.46901235
H       -0.39374845       0.47009450      -1.36469151
H        2.08617129       1.08454403       1.15423101
H        1.83297255       1.33301555      -0.58376860
13
Frame=15 idx=005504 GeodesicLength=1.7527868817862005 rxn_smarts="[C:1]([C:2]([O:3][C:4]([C:5]#[N:6])([H:12])[H:13])([H:10])[H:11])([H:7])([H:8])[H:9]>>[C:1]1([H:7])([H:9])[C:2]([H:10])([H:11])[O:3][C:4]([H:12])([H:13])[C:5][N:6]1[H:8]"
C       -1.23141801      -0.77140673       0.13200520
C       -0.76790487       0.58887228      -0.34649192
O        0.14115065       1.12978423       0.58842726
C        1.47757129       0.79008662       0.30574916
C        1.72800648      -0.65780851       0.05138688
N        0.92713543      -1.57790951      -0.04097154
H       -2.27583990      -0.87159394      -0.17365772
H       -0.65796620      -1.99265032      -0.45745142
H       -1.34313981      -0.88524058       1.21351648
H       -1.52422407       1.36274823      -0.49443566
H       -0.38294908       0.44769710      -1.36791620
H        2.07841117       1.09132894       1.16404322
H        1.83116693       1.34609220      -0.57420374
13
Frame=16 idx=005504 GeodesicLength=1.869768497005641 rxn_smarts="[C:1]([C:2]([O:3][C:4]([C:5]#[N:6])([H:12])[H:13])([H:10])[H:11])([H:7])([H:8])[H:9]>>[C:1]1([H:7])([H:9])[C:2]([H:10])([H:11])[O:3][C:4]([H:12])([H:13])[C:5][N:6]1[H:8]"
C       -1.22963560      -0.77995692       0.13115930
C       -0.76173394       0.57843128      -0.35337670
O        0.13484288       1.12614027       0.58770226
C        1.47639252       0.79633155       0.31116694
C        1.73759463      -0.64768226       0.05242604
N        0.94757768      -1.57873349      -0.03640819
H       -2.28943936      -0.84477461      -0.12961992
H       -0.71243500      -1.98672339      -0.49578586
H       -1.31746540      -0.89885301       1.21478726
H       -1.51336905       1.35280235      -0.52044434
H       -0.37154986       0.42472691      -1.37110497
H        2.07022381       1.09871480       1.17398109
H        1.82899670       1.35957651      -0.56448291
