19
Frame=0 idx=009429 GeodesicLength=0.0 rxn_smarts="[C:1]([C:2]([O:3][C@@:4]1([H:13])[C:5]([H:14])([H:15])[C@:6]1([C:7]([H:17])([H:18])[H:19])[H:16])([H:11])[H:12])([H:8])([H:9])[H:10]>>[C:1]([C:2]([O:3][C:4]([C:5]([C:6][C:7]([H:17])([H:18])[H:19])([H:14])[H:15])([H:13])[H:16])([H:11])[H:12])([H:8])([H:9])[H:10]"
C        2.69883596       0.66001454       0.16315407
C        1.63063047      -0.32009635      -0.25662721
O        0.53716955      -0.20032725       0.63790190
C       -0.50254457      -1.06188907       0.35674147
C       -1.81333762      -0.66215768       1.00121495
C       -2.13935949      -0.41612833      -0.42925381
C       -1.88142146       1.01233092      -0.82361857
H        3.03085386       0.45109646       1.18069353
H        2.31513792       1.68033456       0.12832953
H        3.55934837       0.58996755      -0.50380785
H        2.01325195      -1.34926380      -0.23571772
H        1.28826397      -0.11359954      -1.27966435
H       -0.25988158      -2.12237994       0.46656116
H       -1.67346990       0.20008401       1.65611211
H       -2.34213965      -1.47222337       1.49514904
H       -0.80416241      -1.05221419      -0.78856362
H       -1.65676590       1.12418232      -1.88503714
H       -2.85472055       1.49081651      -0.66114551
H       -1.14568895       1.56145267      -0.22242198
19
Frame=1 idx=009429 GeodesicLength=0.06913161106987122 rxn_smarts="[C:1]([C:2]([O:3][C@@:4]1([H:13])[C:5]([H:14])([H:15])[C@:6]1([C:7]([H:17])([H:18])[H:19])[H:16])([H:11])[H:12])([H:8])([H:9])[H:10]>>[C:1]([C:2]([O:3][C:4]([C:5]([C:6][C:7]([H:17])([H:18])[H:19])([H:14])[H:15])([H:13])[H:16])([H:11])[H:12])([H:8])([H:9])[H:10]"
C        2.70443582       0.65829467       0.15952527
C        1.63868452      -0.32689495      -0.25491652
O        0.54012057      -0.19720111       0.63116113
C       -0.49846875      -1.06321434       0.35383839
C       -1.80677870      -0.66255697       0.99990002
C       -2.12960500      -0.40751840      -0.42912549
C       -1.89764496       1.02577459      -0.81461804
H        3.02961158       0.46259060       1.18190917
H        2.32125640       1.67817132       0.10890829
H        3.56944021       0.57963011      -0.50068808
H        2.02168378      -1.35563364      -0.21950036
H        1.30224196      -0.13176948      -1.28218167
H       -0.25040857      -2.12103937       0.47715698
H       -1.67110941       0.19460450       1.66195217
H       -2.34745051      -1.47472703       1.47798276
H       -0.81365798      -1.07226931      -0.80283841
H       -1.64867072       1.13748143      -1.87108145
H       -2.88154320       1.48920383      -0.67667833
H       -1.18213702       1.58707355      -0.20070583
19
Frame=2 idx=009429 GeodesicLength=0.13800984797747812 rxn_smarts="[C:1]([C:2]([O:3][C@@:4]1([H:13])[C:5]([H:14])([H:15])[C@:6]1([C:7]([H:17])([H:18])[H:19])[H:16])([H:11])[H:12])([H:8])([H:9])[H:10]>>[C:1]([C:2]([O:3][C:4]([C:5]([C:6][C:7]([H:17])([H:18])[H:19])([H:14])[H:15])([H:13])[H:16])([H:11])[H:12])([H:8])([H:9])[H:10]"
C        2.70987310       0.65667270       0.15552805
C        1.64653366      -0.33363032      -0.25325333
O        0.54318496      -0.19432645       0.62462668
C       -0.49430190      -1.06477931       0.35126970
C       -1.80030478      -0.66290814       0.99844420
C       -2.11908217      -0.39862740      -0.42926089
C       -1.91359450       1.03918715      -0.80543819
H        3.02851479       0.47421583       1.18243921
H        2.32716417       1.67586312       0.08931953
H        3.57914076       0.56962427      -0.49806971
H        2.02996676      -1.36173522      -0.20352722
H        1.31568235      -0.14988288      -1.28447992
H       -0.24094799      -2.11974030       0.48819665
H       -1.66882961       0.18901860       1.66771294
H       -2.35308926      -1.47673437       1.46037224
H       -0.82378277      -1.09336626      -0.81655177
H       -1.63846718       1.15187337      -1.85578429
H       -2.90765366       1.48691605      -0.69374964
H       -1.22000673       1.61235956      -0.17779422
19
Frame=3 idx=009429 GeodesicLength=0.20667098259314595 rxn_smarts="[C:1]([C:2]([O:3][C@@:4]1([H:13])[C:5]([H:14])([H:15])[C@:6]1([C:7]([H:17])([H:18])[H:19])[H:16])([H:11])[H:12])([H:8])([H:9])[H:10]>>[C:1]([C:2]([O:3][C:4]([C:5]([C:6][C:7]([H:17])([H:18])[H:19])([H:14])[H:15])([H:13])[H:16])([H:11])[H:12])([H:8])([H:9])[H:10]"
C        2.71517423       0.65513227       0.15117271
C        1.65420875      -0.34031672      -0.25161928
O        0.54638930      -0.19171174       0.61832185
C       -0.49002867      -1.06656832       0.34902294
C       -1.79389840      -0.66319596       0.99684179
C       -2.10776020      -0.38944926      -0.42966114
C       -1.92934301       1.05255220      -0.79611381
H        3.02757752       0.48596680       1.18230044
H        2.33288426       1.67339451       0.06955617
H        3.58848640       0.55992439      -0.49593622
H        2.03812777      -1.36758358      -0.18777286
H        1.32862793      -0.16795969      -1.28654310
H       -0.23150726      -2.11847362       0.49962477
H       -1.66662238       0.18335218       1.67337250
H       -2.35900668      -1.47821299       1.44231302
H       -0.83458723      -1.11544899      -0.82966586
H       -1.62629329       1.16747138      -1.83903062
H       -2.93299430       1.48391135      -0.71239602
H       -1.25943474       1.63721577      -0.15378729
19
Frame=4 idx=009429 GeodesicLength=0.2751760113614373 rxn_smarts="[C:1]([C:2]([O:3][C@@:4]1([H:13])[C:5]([H:14])([H:15])[C@:6]1([C:7]([H:17])([H:18])[H:19])[H:16])([H:11])[H:12])([H:8])([H:9])[H:10]>>[C:1]([C:2]([O:3][C:4]([C:5]([C:6][C:7]([H:17])([H:18])[H:19])([H:14])[H:15])([H:13])[H:16])([H:11])[H:12])([H:8])([H:9])[H:10]"
C        2.72037799       0.65365187       0.14647602
C        1.66175371      -0.34697462      -0.24999051
O        0.54976483      -0.18936165       0.61226984
C       -0.48563133      -1.06855979       0.34708204
C       -1.78753589      -0.66340319       0.99508667
C       -2.09560807      -0.37997475      -0.43032430
C       -1.94498269       1.06585136      -0.78668003
H        3.02682228       0.49784258       1.18152724
H        2.33844911       1.67074827       0.04960059
H        3.59753273       0.55048477      -0.49426246
H        2.04621137      -1.37320635      -0.17219624
H        1.34113807      -0.18603174      -1.28835845
H       -0.22209483      -2.11722839       0.51137451
H       -1.66447405       0.17763344       1.67890816
H       -2.36514234      -1.47912991       1.42379844
H       -0.84612013      -1.13843610      -0.84215760
H       -1.61236835       1.18439677      -1.82069853
H       -2.95749618       1.48016092      -0.73265510
H       -1.30059622       1.66153651      -0.12880028
19
Frame=5 idx=009429 GeodesicLength=0.34355799574362245 rxn_smarts="[C:1]([C:2]([O:3][C@@:4]1([H:13])[C:5]([H:14])([H:15])[C@:6]1([C:7]([H:17])([H:18])[H:19])[H:16])([H:11])[H:12])([H:8])([H:9])[H:10]>>[C:1]([C:2]([O:3][C:4]([C:5]([C:6][C:7]([H:17])([H:18])[H:19])([H:14])[H:15])([H:13])[H:16])([H:11])[H:12])([H:8])([H:9])[H:10]"
C        2.72553901       0.65219539       0.14147245
C        1.66920712      -0.35360795      -0.24835015
O        0.55335730      -0.18728387       0.60650866
C       -0.48108526      -1.07072570       0.34543981
C       -1.78118717      -0.66349541       0.99317922
C       -2.08259151      -0.37020126      -0.43124605
C       -1.96063599       1.07905007      -0.77718535
H        3.02630754       0.50976641       1.18014195
H        2.34392904       1.66789508       0.02952445
H        3.60632931       0.54127895      -0.49302127
H        2.05423636      -1.37861602      -0.15681795
H        1.35324500      -0.20406103      -1.28990229
H       -0.21271577      -2.11599292       0.52338357
H       -1.66236282       0.17192045       1.68428919
H       -2.37143420      -1.47942888       1.40484724
H       -0.85843688      -1.16222876      -0.85398456
H       -1.59695123       1.20274214      -1.80071205
H       -2.98109862       1.47558677      -0.75456118
H       -1.34365124       1.68520654      -0.10300569
19
Frame=6 idx=009429 GeodesicLength=0.4118756000264042 rxn_smarts="[C:1]([C:2]([O:3][C@@:4]1([H:13])[C:5]([H:14])([H:15])[C@:6]1([C:7]([H:17])([H:18])[H:19])[H:16])([H:11])[H:12])([H:8])([H:9])[H:10]>>[C:1]([C:2]([O:3][C:4]([C:5]([C:6][C:7]([H:17])([H:18])[H:19])([H:14])[H:15])([H:13])[H:16])([H:11])[H:12])([H:8])([H:9])[H:10]"
C        2.73072591       0.65072168       0.13620298
C        1.67663185      -0.36023792      -0.24667351
O        0.55721640      -0.18548463       0.60106458
C       -0.47636569      -1.07303161       0.34407112
C       -1.77481109      -0.66343327       0.99111512
C       -2.06868154      -0.36011201      -0.43241640
C       -1.97643581       1.09210591      -0.76768934
H        3.02608105       0.52169841       1.17820426
H        2.34939369       1.66480707       0.00935140
H        3.61496127       0.53224241      -0.49216542
H        2.06225444      -1.38384732      -0.14161290
H        1.36502952      -0.22205548      -1.29115822
H       -0.20337909      -2.11475559       0.53557223
H       -1.66025220       0.16627464       1.68948374
H       -2.37781009      -1.47905855       1.38547209
H       -0.87157573      -1.18670605      -0.86514284
H       -1.58044124       1.22262825      -1.77897298
H       -3.00373669       1.47015406      -0.77811813
H       -1.38880495       1.70808999      -0.07658780
19
Frame=7 idx=009429 GeodesicLength=0.48012790957453155 rxn_smarts="[C:1]([C:2]([O:3][C@@:4]1([H:13])[C:5]([H:14])([H:15])[C@:6]1([C:7]([H:17])([H:18])[H:19])[H:16])([H:11])[H:12])([H:8])([H:9])[H:10]>>[C:1]([C:2]([O:3][C:4]([C:5]([C:6][C:7]([H:17])([H:18])[H:19])([H:14])[H:15])([H:13])[H:16])([H:11])[H:12])([H:8])([H:9])[H:10]"
C        2.73602155       0.64917875       0.13072366
C        1.68409344      -0.36687647      -0.24493648
O        0.56140516      -0.18396903       0.59596341
C       -0.47143810      -1.07543721       0.34294693
C       -1.76836126      -0.66316014       0.98888554
C       -2.05384721      -0.34969199      -0.43383965
C       -1.99252868       1.10495558      -0.75827066
H        3.02620958       0.53354847       1.17576533
H        2.35495323       1.66144283      -0.01083929
H        3.62351464       0.52331783      -0.49163760
H        2.07030113      -1.38892852      -0.12658420
H        1.37657788      -0.23999161      -1.29210259
H       -0.19408800      -2.11350137       0.54786153
H       -1.65809835       0.16078477       1.69444166
H       -2.38420329      -1.47794569       1.36569778
H       -0.88557340      -1.21172268      -0.87561072
H       -1.56329573       1.24414537      -1.75543281
H       -3.02538683       1.46380309      -0.80326350
H       -1.43625575       1.73004802      -0.04976833
19
Frame=8 idx=009429 GeodesicLength=0.5483625885917218 rxn_smarts="[C:1]([C:2]([O:3][C@@:4]1([H:13])[C:5]([H:14])([H:15])[C@:6]1([C:7]([H:17])([H:18])[H:19])[H:16])([H:11])[H:12])([H:8])([H:9])[H:10]>>[C:1]([C:2]([O:3][C:4]([C:5]([C:6][C:7]([H:17])([H:18])[H:19])([H:14])[H:15])([H:13])[H:16])([H:11])[H:12])([H:8])([H:9])[H:10]"
C        2.74151586       0.64751155       0.12509084
C        1.69165303      -0.37353489      -0.24312489
O        0.56599710      -0.18274056       0.59124997
C       -0.46626779      -1.07789665       0.34205604
C       -1.76178790      -0.66261705       0.98649187
C       -2.03805058      -0.33891614      -0.43550532
C       -2.00908164       1.11753037      -0.74899167
H        3.02679129       0.54520732       1.17288732
H        2.36071553       1.65777731      -0.03094837
H        3.63207622       0.51444137      -0.49139651
H        2.07841124      -1.39390262      -0.11176363
H        1.38794275      -0.25781729      -1.29272386
H       -0.18484804      -2.11221818       0.56017905
H       -1.65585725       0.15554240       1.69912772
H       -2.39054142      -1.47602021       1.34555477
H       -0.90047086      -1.23712485      -0.88537061
H       -1.54595958       1.26737270      -1.73005556
H       -3.04599203       1.45649463      -0.82999246
H       -1.48624593       1.75091079      -0.02276470
19
Frame=9 idx=009429 GeodesicLength=0.6165859268085265 rxn_smarts="[C:1]([C:2]([O:3][C@@:4]1([H:13])[C:5]([H:14])([H:15])[C@:6]1([C:7]([H:17])([H:18])[H:19])[H:16])([H:11])[H:12])([H:8])([H:9])[H:10]>>[C:1]([C:2]([O:3][C:4]([C:5]([C:6][C:7]([H:17])([H:18])[H:19])([H:14])[H:15])([H:13])[H:16])([H:11])[H:12])([H:8])([H:9])[H:10]"
C        2.74728425       0.64567231       0.11935141
C        1.69938956      -0.38024727      -0.24123120
O        0.57102479      -0.18184764       0.58692250
C       -0.46085048      -1.08038523       0.34133810
C       -1.75501643      -0.66172988       0.98394428
C       -2.02125429      -0.32771720      -0.43737102
C       -2.02616528       1.12977901      -0.73995751
H        3.02786335       0.55662865       1.16963042
H        2.36673783       1.65374936      -0.05092399
H        3.64076675       0.50557608      -0.49137970
H        2.08667755      -1.39879043      -0.09713643
H        1.39923197      -0.27556310      -1.29304254
H       -0.17569198      -2.11089844       0.57242250
H       -1.65341376       0.15065163       1.70352021
H       -2.39673940      -1.47319789       1.32506252
H       -0.91631118      -1.26276476      -0.89443796
H       -1.52879604       1.29225992      -1.70266524
H       -3.06564812       1.44834395      -0.85833767
H       -1.53908910       1.77048093       0.00429132
19
Frame=10 idx=009429 GeodesicLength=0.6848555508983892 rxn_smarts="[C:1]([C:2]([O:3][C@@:4]1([H:13])[C:5]([H:14])([H:15])[C@:6]1([C:7]([H:17])([H:18])[H:19])[H:16])([H:11])[H:12])([H:8])([H:9])[H:10]>>[C:1]([C:2]([O:3][C:4]([C:5]([C:6][C:7]([H:17])([H:18])[H:19])([H:14])[H:15])([H:13])[H:16])([H:11])[H:12])([H:8])([H:9])[H:10]"
C        2.75348112       0.64356051       0.11359639
C        1.70738313      -0.38701468      -0.23922795
O        0.57660936      -0.18124111       0.58304209
C       -0.45511722      -1.08280872       0.34079128
C       -1.74799653      -0.66041096       0.98123220
C       -2.00341404      -0.31604954      -0.43945342
C       -2.04407939       1.14160935      -0.73122045
H        3.02959958       0.56760245       1.16608660
H        2.37325595       1.64932549      -0.07060587
H        3.64969947       0.49658563      -0.49152401
H        2.09509342      -1.40366178      -0.08275708
H        1.41051913      -0.29311768      -1.29301201
H       -0.16660441      -2.10950417       0.58450830
H       -1.65074661       0.14624704       1.70756306
H       -2.40272107      -1.46936434       1.30426499
H       -0.93313186      -1.28839118      -0.90281068
H       -1.51250388       1.31900869      -1.67339571
H       -3.08435658       1.43903489      -0.88815042
H       -1.59496956       1.78859012       0.03107269
19
Frame=11 idx=009429 GeodesicLength=0.7532102711523471 rxn_smarts="[C:1]([C:2]([O:3][C@@:4]1([H:13])[C:5]([H:14])([H:15])[C@:6]1([C:7]([H:17])([H:18])[H:19])[H:16])([H:11])[H:12])([H:8])([H:9])[H:10]>>[C:1]([C:2]([O:3][C:4]([C:5]([C:6][C:7]([H:17])([H:18])[H:19])([H:14])[H:15])([H:13])[H:16])([H:11])[H:12])([H:8])([H:9])[H:10]"
C        2.76026003       0.64107436       0.10792826
C        1.71572720      -0.39384619      -0.23710128
O        0.58284176      -0.18090310       0.57963058
C       -0.44902383      -1.08508315       0.34037491
C       -1.74064723      -0.65854956       0.97835732
C       -1.98449512      -0.30383693      -0.44173228
C       -2.06307698       1.15291771      -0.72287074
H        3.03214199       0.57792425       1.16235938
H        2.38048215       1.64444855      -0.08981599
H        3.65902568       0.48735415      -0.49173908
H        2.10369156      -1.40857105      -0.06867984
H        1.42191171      -0.31039511      -1.29262752
H       -0.15758943      -2.10799491       0.59633914
H       -1.64776087       0.14248906       1.71120121
H       -2.40838108      -1.46439279       1.28321487
H       -0.95096787      -1.31376502      -0.91051182
H       -1.49776843       1.34767299      -1.64231893
H       -3.10222561       1.42842346      -0.91928926
H       -1.65414563       1.80503329       0.05728106
19
Frame=12 idx=009429 GeodesicLength=0.8217202777225396 rxn_smarts="[C:1]([C:2]([O:3][C@@:4]1([H:13])[C:5]([H:14])([H:15])[C@:6]1([C:7]([H:17])([H:18])[H:19])[H:16])([H:11])[H:12])([H:8])([H:9])[H:10]>>[C:1]([C:2]([O:3][C:4]([C:5]([C:6][C:7]([H:17])([H:18])[H:19])([H:14])[H:15])([H:13])[H:16])([H:11])[H:12])([H:8])([H:9])[H:10]"
C        2.76776847       0.63811907       0.10243557
C        1.72451104      -0.40075950      -0.23484138
O        0.58982056      -0.18082173       0.57672058
C       -0.44252378      -1.08712911       0.34006138
C       -1.73288846      -0.65603651       0.97532323
C       -1.96444009      -0.29098122      -0.44418744
C       -2.08337978       1.16359422      -0.71499615
H        3.03564200       0.58741369       1.15855503
H        2.38861160       1.63907523      -0.10840425
H        3.66888676       0.47776094      -0.49195738
H        2.11251258      -1.41358835      -0.05495125
H        1.43350106      -0.32732616      -1.29189263
H       -0.14865351      -2.10634224       0.60782477
H       -1.64436888       0.13953481       1.71439740
H       -2.41362882      -1.45815937       1.26195326
H       -0.96986878      -1.33863280      -0.91756737
H       -1.48523243       1.37831448      -1.60948528
H       -3.11937134       1.41640012      -0.95165295
H       -1.71689821       1.81956442       0.08266487
19
Frame=13 idx=009429 GeodesicLength=0.8904561884849198 rxn_smarts="[C:1]([C:2]([O:3][C@@:4]1([H:13])[C:5]([H:14])([H:15])[C@:6]1([C:7]([H:17])([H:18])[H:19])[H:16])([H:11])[H:12])([H:8])([H:9])[H:10]>>[C:1]([C:2]([O:3][C:4]([C:5]([C:6][C:7]([H:17])([H:18])[H:19])([H:14])[H:15])([H:13])[H:16])([H:11])[H:12])([H:8])([H:9])[H:10]"
C        2.77612815       0.63461102       0.09715774
C        1.73383410      -0.40780336      -0.23243013
O        0.59761553      -0.18101658       0.57431219
C       -0.43558822      -1.08888767       0.33980636
C       -1.72463095      -0.65277040       0.97215664
C       -1.94318279      -0.27733976      -0.44677095
C       -2.10514063       1.17355201      -0.70768023
H        3.04018369       0.59598961       1.15472455
H        2.39779287       1.63312406      -0.12634200
H        3.67943228       0.46769738      -0.49211948
H        2.12162534      -1.41876167      -0.04154529
H        1.44541582      -0.34395452      -1.29080708
H       -0.13981978      -2.10452691       0.61884447
H       -1.64044073       0.13751913       1.71715939
H       -2.41836996      -1.45054972       1.24052486
H       -0.98988790      -1.36272378      -0.92401837
H       -1.47531743       1.41101684      -1.57476184
H       -3.13598315       1.40296969      -0.98535596
H       -1.78366625       1.83185463       0.10714514
19
Frame=14 idx=009429 GeodesicLength=0.9595287092612055 rxn_smarts="[C:1]([C:2]([O:3][C@@:4]1([H:13])[C:5]([H:14])([H:15])[C@:6]1([C:7]([H:17])([H:18])[H:19])[H:16])([H:11])[H:12])([H:8])([H:9])[H:10]>>[C:1]([C:2]([O:3][C:4]([C:5]([C:6][C:7]([H:17])([H:18])[H:19])([H:14])[H:15])([H:13])[H:16])([H:11])[H:12])([H:8])([H:9])[H:10]"
C        2.78559925       0.63037646       0.09227264
C        1.74379561      -0.41495232      -0.22988593
O        0.60638416      -0.18140088       0.57245466
C       -0.42814021      -1.09019859       0.33959196
C       -1.71576962      -0.64856529       0.96886728
C       -1.92066576      -0.26276872      -0.44945392
C       -2.12877217       1.18260158      -0.70102172
H        3.04608363       0.60321843       1.15106781
H        2.40841577       1.62656663      -0.14324442
H        3.69086023       0.45695162      -0.49212437
H        2.13100312      -1.42420438      -0.02867222
H        1.45771688      -0.36000912      -1.28939835
H       -0.13107321      -2.10246373       0.62931797
H       -1.63587244       0.13670532       1.71941918
H       -2.42248474      -1.44135950       1.21901250
H       -1.01108219      -1.38567992      -0.92988474
H       -1.46904335       1.44586280      -1.53845986
H       -3.15223612       1.38771029      -1.02012717
H       -1.85471886       1.84160930       0.13026871
19
Frame=15 idx=009429 GeodesicLength=1.0290690663320923 rxn_smarts="[C:1]([C:2]([O:3][C@@:4]1([H:13])[C:5]([H:14])([H:15])[C@:6]1([C:7]([H:17])([H:18])[H:19])[H:16])([H:11])[H:12])([H:8])([H:9])[H:10]>>[C:1]([C:2]([O:3][C:4]([C:5]([C:6][C:7]([H:17])([H:18])[H:19])([H:14])[H:15])([H:13])[H:16])([H:11])[H:12])([H:8])([H:9])[H:10]"
C        2.79641721       0.62525138       0.08792248
C        1.75450630      -0.42221216      -0.22722136
O        0.61625385      -0.18192202       0.57115079
C       -0.42011983      -1.09091580       0.33937190
C       -1.70618308      -0.64322830       0.96547820
C       -1.89681781      -0.24706829      -0.45218782
C       -2.15460210       1.19056721      -0.69513438
H        3.05357816       0.60875896       1.14774118
H        2.42083186       1.61933251      -0.15883956
H        3.70338695       0.44531797      -0.49185536
H        2.14064999      -1.43000614      -0.01646366
H        1.47051436      -0.37532863      -1.28769020
H       -0.12241678      -2.10006853       0.63912448
H       -1.63050824       0.13735285       1.72113598
H       -2.42584581      -1.43038154       1.19749647
H       -1.03351407      -1.40712745      -0.93521412
H       -1.46726713       1.48290756      -1.50073388
H       -3.16843993       1.37032413      -1.05582132
H       -1.93042391       1.84844630       0.15174019
19
Frame=16 idx=009429 GeodesicLength=1.0992666798152542 rxn_smarts="[C:1]([C:2]([O:3][C@@:4]1([H:13])[C:5]([H:14])([H:15])[C@:6]1([C:7]([H:17])([H:18])[H:19])[H:16])([H:11])[H:12])([H:8])([H:9])[H:10]>>[C:1]([C:2]([O:3][C:4]([C:5]([C:6][C:7]([H:17])([H:18])[H:19])([H:14])[H:15])([H:13])[H:16])([H:11])[H:12])([H:8])([H:9])[H:10]"
C        2.80882604       0.61906934       0.08422690
C        1.76607046      -0.42959031      -0.22446308
O        0.62735237      -0.18252477       0.57040702
C       -0.41147490      -1.09088961       0.33911815
C       -1.69575110      -0.63656322       0.96205023
C       -1.87156619      -0.23000097      -0.45488528
C       -2.18294492       1.19725480      -0.69013212
H        3.06293999       0.61226747       1.14488923
H        2.43539369       1.61136265      -0.17286712
H        3.71723046       0.43257625      -0.49124260
H        2.15057023      -1.43626783      -0.00507972
H        1.48389169      -0.38975583      -1.28572793
H       -0.11385942      -2.09725895       0.64815351
H       -1.62418605       0.13972893       1.72232256
H       -2.42833021      -1.41740546       1.17609380
H       -1.05726547      -1.42666074      -0.94005065
H       -1.47072177       1.52227893      -1.46161748
H       -3.18487985       1.35053652      -1.09254526
H       -2.01129503       1.85184281       0.17134983
