16
Frame=0 idx=011237 GeodesicLength=0.0 rxn_smarts="[C:1]([C@@:2]([O:3][H:12])([C@@:4]([C:5]([H:14])([H:15])[H:16])([C:6]#[N:7])[H:13])[H:11])([H:8])([H:9])[H:10]>>[C:1](/[C:2]([O:3][H:12])=[C:4](/[C:5]([H:14])([H:15])[H:16])[C:6]#[N:7])([H:8])([H:9])[H:10].[H:11][H:13]"
C       -1.83783446       0.06007862      -0.29576714
C       -0.47915481      -0.41233718       0.12799528
O       -0.23515666      -1.73285949       0.07066842
C        0.67581483       0.43412340      -0.11455734
C        2.06061732      -0.13030406       0.07383979
C        0.46841769       1.63769462      -0.82242293
N        0.29660132       2.63500974      -1.37906268
H       -2.00308545       1.09652814      -0.01071487
H       -2.62084562      -0.56427668       0.13449329
H       -1.87420589      -0.00744220      -1.38565556
H       -0.70401928      -0.29329519       1.67357009
H       -1.01845279      -2.22692236       0.33730419
H        0.00387921       0.32692860       1.18722000
H        2.78572081       0.67940803       0.14600374
H        2.36399578      -0.79059147      -0.74209228
H        2.11770807      -0.71174249       0.99917801
16
Frame=1 idx=011237 GeodesicLength=0.08769844671883356 rxn_smarts="[C:1]([C@@:2]([O:3][H:12])([C@@:4]([C:5]([H:14])([H:15])[H:16])([C:6]#[N:7])[H:13])[H:11])([H:8])([H:9])[H:10]>>[C:1](/[C:2]([O:3][H:12])=[C:4](/[C:5]([H:14])([H:15])[H:16])[C:6]#[N:7])([H:8])([H:9])[H:10].[H:11][H:13]"
C       -1.83494844       0.04814514      -0.31674805
C       -0.48265915      -0.40753882       0.14455557
O       -0.23642709      -1.73119245       0.10577791
C        0.67302380       0.43708065      -0.09611116
C        2.05920909      -0.13529223       0.05562560
C        0.46890437       1.64790613      -0.79713540
N        0.30662647       2.65125499      -1.34504214
H       -2.01251580       1.09067943      -0.06290550
H       -2.62413528      -0.56389106       0.12049910
H       -1.85603774      -0.05117487      -1.40460670
H       -0.71541876      -0.26724813       1.69558039
H       -1.02477639      -2.22411669       0.35776217
H        0.01464691       0.34892713       1.22334087
H        2.78748377       0.66968667       0.14785498
H        2.34893376      -0.76593283      -0.78814670
H        2.12809048      -0.74729303       0.95969908
16
Frame=2 idx=011237 GeodesicLength=0.17532883497830365 rxn_smarts="[C:1]([C@@:2]([O:3][H:12])([C@@:4]([C:5]([H:14])([H:15])[H:16])([C:6]#[N:7])[H:13])[H:11])([H:8])([H:9])[H:10]>>[C:1](/[C:2]([O:3][H:12])=[C:4](/[C:5]([H:14])([H:15])[H:16])[C:6]#[N:7])([H:8])([H:9])[H:10].[H:11][H:13]"
C       -1.83116648       0.03563199      -0.33817803
C       -0.48642566      -0.40260420       0.16111496
O       -0.23795782      -1.72915675       0.14160223
C        0.67018677       0.44019618      -0.07688467
C        2.05689501      -0.14028168       0.03688226
C        0.46924442       1.65834601      -0.77086552
N        0.31610295       2.66778280      -1.30949392
H       -2.02020921       1.08353323      -0.11662477
H       -2.62706746      -0.56343262       0.10547334
H       -1.83627639      -0.09578959      -1.42286739
H       -0.72695643      -0.23986470       1.71732829
H       -1.03101349      -2.22116617       0.37862068
H        0.02651463       0.37091739       1.26045752
H        2.78929638       0.65867284       0.14848789
H        2.33167332      -0.74059445      -0.83356301
H        2.13715945      -0.78219030       0.91851014
16
Frame=3 idx=011237 GeodesicLength=0.26293447980935153 rxn_smarts="[C:1]([C@@:2]([O:3][H:12])([C@@:4]([C:5]([H:14])([H:15])[H:16])([C:6]#[N:7])[H:13])[H:11])([H:8])([H:9])[H:10]>>[C:1](/[C:2]([O:3][H:12])=[C:4](/[C:5]([H:14])([H:15])[H:16])[C:6]#[N:7])([H:8])([H:9])[H:10].[H:11][H:13]"
C       -1.82638534       0.02252473      -0.36007243
C       -0.49046814      -0.39754084       0.17767420
O       -0.23980233      -1.72672948       0.17816988
C        0.66730657       0.44343955      -0.05680380
C        2.05356757      -0.14522651       0.01759645
C        0.46941442       1.66898318      -0.74351950
N        0.32494812       2.68447233      -1.27246242
H       -2.02592532       1.07504536      -0.17194364
H       -2.62957574      -0.56288240       0.08933342
H       -1.81476205      -0.14129426      -1.44035836
H       -0.73855112      -0.21105195       1.73878471
H       -1.03722046      -2.21805074       0.39987588
H        0.03959468       0.39282390       1.29868637
H        2.79106364       0.64641720       0.14788331
H        2.31207231      -0.71445155      -0.87833906
H        2.14472320      -0.81647850       0.87549500
16
Frame=4 idx=011237 GeodesicLength=0.3505533046923487 rxn_smarts="[C:1]([C@@:2]([O:3][H:12])([C@@:4]([C:5]([H:14])([H:15])[H:16])([C:6]#[N:7])[H:13])[H:11])([H:8])([H:9])[H:10]>>[C:1](/[C:2]([O:3][H:12])=[C:4](/[C:5]([H:14])([H:15])[H:16])[C:6]#[N:7])([H:8])([H:9])[H:10].[H:11][H:13]"
C       -1.82051151       0.00880899      -0.38243128
C       -0.49480888      -0.39236143       0.19420832
O       -0.24200282      -1.72390168       0.21545848
C        0.66438313       0.44677108      -0.03582753
C        2.04911771      -0.15007866      -0.00222442
C        0.46937950       1.67978916      -0.71503150
N        0.33308182       2.70117362      -1.23403523
H       -2.02939832       1.06517434      -0.22888754
H       -2.63161923      -0.56219798       0.07202874
H       -1.79141431      -0.18766040      -1.45698357
H       -0.75005400      -0.18072748       1.75990948
H       -1.04343075      -2.21476698       0.42148991
H        0.05399361       0.41457281       1.33810773
H        2.79266938       0.63297788       0.14604811
H        2.29005485      -0.68738197      -0.92239803
H        2.15055981      -0.85019130       0.83056832
16
Frame=5 idx=011237 GeodesicLength=0.4382546418556555 rxn_smarts="[C:1]([C@@:2]([O:3][H:12])([C@@:4]([C:5]([H:14])([H:15])[H:16])([C:6]#[N:7])[H:13])[H:11])([H:8])([H:9])[H:10]>>[C:1](/[C:2]([O:3][H:12])=[C:4](/[C:5]([H:14])([H:15])[H:16])[C:6]#[N:7])([H:8])([H:9])[H:10].[H:11][H:13]"
C       -1.81353641      -0.00549794      -0.40519993
C       -0.49949141      -0.38709024       0.21063933
O       -0.24465150      -1.72062350       0.25345910
C        0.66144820       0.45013239      -0.01398089
C        2.04348929      -0.15480849      -0.02251441
C        0.46914431       1.69066867      -0.68546517
N        0.34039011       2.71785986      -1.19427163
H       -2.03043451       1.05386868      -0.28732830
H       -2.63311691      -0.56134478       0.05346332
H       -1.76643201      -0.23491105      -1.47260527
H       -0.76135026      -0.14877856       1.78054770
H       -1.04972184      -2.21130123       0.44332782
H        0.06995805       0.43605547       1.37876349
H        2.79393908       0.61834030       0.14297735
H        2.26587303      -0.65929434      -0.96561558
H        2.15449277      -0.88327524       0.78380306
16
Frame=6 idx=011237 GeodesicLength=0.5260528194737729 rxn_smarts="[C:1]([C@@:2]([O:3][H:12])([C@@:4]([C:5]([H:14])([H:15])[H:16])([C:6]#[N:7])[H:13])[H:11])([H:8])([H:9])[H:10]>>[C:1](/[C:2]([O:3][H:12])=[C:4](/[C:5]([H:14])([H:15])[H:16])[C:6]#[N:7])([H:8])([H:9])[H:10].[H:11][H:13]"
C       -1.80534304      -0.02041123      -0.42838849
C       -0.50452485      -0.38173720       0.22696540
O       -0.24777886      -1.71690532       0.29208677
C        0.65847150       0.45347797       0.00877310
C        2.03655365      -0.15935571      -0.04325732
C        0.46865412       1.70158991      -0.65476284
N        0.34679277       2.73432893      -1.15331189
H       -2.02873659       1.04111204      -0.34734910
H       -2.63403853      -0.56025997       0.03365466
H       -1.73964477      -0.28300827      -1.48714452
H       -0.77214473      -0.11517805       1.80073087
H       -1.05608990      -2.20766209       0.46538536
H        0.08749734       0.45724779       1.42070235
H        2.79478400       0.60259942       0.13881562
H        2.23931922      -0.63003289      -1.00793015
H        2.15622869      -0.91580534       0.73503017
16
Frame=7 idx=011237 GeodesicLength=0.6139590330275877 rxn_smarts="[C:1]([C@@:2]([O:3][H:12])([C@@:4]([C:5]([H:14])([H:15])[H:16])([C:6]#[N:7])[H:13])[H:11])([H:8])([H:9])[H:10]>>[C:1](/[C:2]([O:3][H:12])=[C:4](/[C:5]([H:14])([H:15])[H:16])[C:6]#[N:7])([H:8])([H:9])[H:10].[H:11][H:13]"
C       -1.79589020      -0.03592583      -0.45193837
C       -0.50994242      -0.37632359       0.24313006
O       -0.25145271      -1.71273809       0.33121284
C        0.65544860       0.45674287       0.03239251
C        2.02820312      -0.16364801      -0.06438578
C        0.46788774       1.71246265      -0.62300412
N        0.35219471       2.75046025      -1.11131550
H       -2.02400466       1.02687137      -0.40888657
H       -2.63433692      -0.55886004       0.01260765
H       -1.71108808      -0.33195440      -1.50044252
H       -0.78210144      -0.07994370       1.82042472
H       -1.06257546      -2.20385386       0.48755102
H        0.10669242       0.47810664       1.46390142
H        2.79507220       0.58577892       0.13371907
H        2.21044306      -0.59943606      -1.04919435
H        2.15545004      -0.94773912       0.68422792
16
Frame=8 idx=011237 GeodesicLength=0.7019942378892596 rxn_smarts="[C:1]([C@@:2]([O:3][H:12])([C@@:4]([C:5]([H:14])([H:15])[H:16])([C:6]#[N:7])[H:13])[H:11])([H:8])([H:9])[H:10]>>[C:1](/[C:2]([O:3][H:12])=[C:4](/[C:5]([H:14])([H:15])[H:16])[C:6]#[N:7])([H:8])([H:9])[H:10].[H:11][H:13]"
C       -1.78518934      -0.05199750      -0.47576323
C       -0.51577389      -0.37088506       0.25903832
O       -0.25569988      -1.70815072       0.37060884
C        0.65235843       0.45986404       0.05679738
C        2.01840182      -0.16764151      -0.08575531
C        0.46680843       1.72320478      -0.59032004
N        0.35648081       2.76608011      -1.06858117
H       -2.01603460       1.01116673      -0.47174622
H       -2.63400812      -0.55706812      -0.00961024
H       -1.68098727      -0.38161994      -1.51237027
H       -0.79080066      -0.04316055       1.83958503
H       -1.06915706      -2.19992661       0.50963136
H        0.12757771       0.49865550       1.50827416
H        2.79468922       0.56794052       0.12790752
H        2.17945696      -0.56742824      -1.08916466
H        2.15187745      -0.97903343       0.63146853
16
Frame=9 idx=011237 GeodesicLength=0.7902639205573899 rxn_smarts="[C:1]([C@@:2]([O:3][H:12])([C@@:4]([C:5]([H:14])([H:15])[H:16])([C:6]#[N:7])[H:13])[H:11])([H:8])([H:9])[H:10]>>[C:1](/[C:2]([O:3][H:12])=[C:4](/[C:5]([H:14])([H:15])[H:16])[C:6]#[N:7])([H:8])([H:9])[H:10].[H:11][H:13]"
C       -1.77333678      -0.06855003      -0.49974017
C       -0.52210530      -0.36542792       0.27460735
O       -0.26062969      -1.70309939       0.41005621
C        0.64920951       0.46277729       0.08188278
C        2.00717694      -0.17128077      -0.10717047
C        0.46542930       1.73370486      -0.55687471
N        0.35954472       2.78106723      -1.02555695
H       -2.00468394       0.99394015      -0.53559539
H       -2.63302285      -0.55473596      -0.03301833
H       -1.64983404      -0.43197662      -1.52277675
H       -0.79788562      -0.00512231       1.85817713
H       -1.07591878      -2.19588821       0.53132338
H        0.15039818       0.51888319       1.55373227
H        2.79346050       0.54903685       0.12159772
H        2.14688792      -0.53386945      -1.12760006
H        2.14530992      -1.00945893       0.57695601
16
Frame=10 idx=011237 GeodesicLength=0.8786944965063015 rxn_smarts="[C:1]([C@@:2]([O:3][H:12])([C@@:4]([C:5]([H:14])([H:15])[H:16])([C:6]#[N:7])[H:13])[H:11])([H:8])([H:9])[H:10]>>[C:1](/[C:2]([O:3][H:12])=[C:4](/[C:5]([H:14])([H:15])[H:16])[C:6]#[N:7])([H:8])([H:9])[H:10].[H:11][H:13]"
C       -1.76035583      -0.08552980      -0.52378321
C       -0.52891775      -0.36000559       0.28974764
O       -0.26620372      -1.69769051       0.44921952
C        0.64594191       0.46541193       0.10751316
C        1.99447957      -0.17450086      -0.12850188
C        0.46368901       1.74386525      -0.52289933
N        0.36131503       2.79519291      -0.98255422
H       -1.98974124       0.97529005      -0.60025305
H       -2.63144478      -0.55176680      -0.05740675
H       -1.61770765      -0.48281365      -1.53154196
H       -0.80283707       0.03394476       1.87628637
H       -1.08275698      -2.19183861       0.55246110
H        0.17494751       0.53895250       1.60006760
H        2.79135117       0.52919893       0.11513815
H        2.11281222      -0.49872543      -1.16424480
H        2.13542859      -1.03898511       0.52075167
16
Frame=11 idx=011237 GeodesicLength=0.9672982862578903 rxn_smarts="[C:1]([C@@:2]([O:3][H:12])([C@@:4]([C:5]([H:14])([H:15])[H:16])([C:6]#[N:7])[H:13])[H:11])([H:8])([H:9])[H:10]>>[C:1](/[C:2]([O:3][H:12])=[C:4](/[C:5]([H:14])([H:15])[H:16])[C:6]#[N:7])([H:8])([H:9])[H:10].[H:11][H:13]"
C       -1.74634274      -0.10285717      -0.54776322
C       -0.53625552      -0.35464343       0.30437561
O       -0.27244587      -1.69197732       0.48776100
C        0.64251773       0.46771580       0.13354273
C        1.98035323      -0.17724642      -0.14954882
C        0.46156842       1.75358807      -0.48863706
N        0.36171326       2.80830238      -0.94007940
H       -1.97112050       0.95525655      -0.66534992
H       -2.62929826      -0.54805023      -0.08271075
H       -1.58500294      -0.53394970      -1.53857417
H       -0.80516892       0.07360076       1.89401456
H       -1.08967663      -2.18783810       0.57278265
H        0.20122911       0.55901755       1.64707554
H        2.78827827       0.50844896       0.10882877
H        2.07762486      -0.46195680      -1.19881545
H        2.12202650      -1.06741091       0.46309796
16
Frame=12 idx=011237 GeodesicLength=1.0560620859644152 rxn_smarts="[C:1]([C@@:2]([O:3][H:12])([C@@:4]([C:5]([H:14])([H:15])[H:16])([C:6]#[N:7])[H:13])[H:11])([H:8])([H:9])[H:10]>>[C:1](/[C:2]([O:3][H:12])=[C:4](/[C:5]([H:14])([H:15])[H:16])[C:6]#[N:7])([H:8])([H:9])[H:10].[H:11][H:13]"
C       -1.73143906      -0.12043197      -0.57156300
C       -0.54414466      -0.34937690       0.31839592
O       -0.27933801      -1.68604403       0.52533811
C        0.63888918       0.46964077       0.15979693
C        1.96488475      -0.17948764      -0.17010577
C        0.45903349       1.76278985      -0.45436419
N        0.36068975       2.82024317      -0.89858357
H       -1.94884833       0.93392524      -0.73046461
H       -2.62666043      -0.54349462      -0.10882345
H       -1.55215769      -0.58514364      -1.54383554
H       -0.80447278       0.11338906       1.91146804
H       -1.09662379      -2.18397744       0.59201281
H        0.22920024       0.57930006       1.69449996
H        2.78419704       0.48685015       0.10293250
H        2.04177898      -0.42364468      -1.23103127
H        2.10501132      -1.09453737       0.40432714
16
Frame=13 idx=011237 GeodesicLength=1.1451016646691514 rxn_smarts="[C:1]([C@@:2]([O:3][H:12])([C@@:4]([C:5]([H:14])([H:15])[H:16])([C:6]#[N:7])[H:13])[H:11])([H:8])([H:9])[H:10]>>[C:1](/[C:2]([O:3][H:12])=[C:4](/[C:5]([H:14])([H:15])[H:16])[C:6]#[N:7])([H:8])([H:9])[H:10].[H:11][H:13]"
C       -1.71584125      -0.13814159      -0.59507437
C       -0.55266457      -0.34418535       0.33176328
O       -0.28692346      -1.67989846       0.56169145
C        0.63502732       0.47116437       0.18611922
C        1.94820560      -0.18119611      -0.18997901
C        0.45608701       1.77140815      -0.42031057
N        0.35825480       2.83094436      -0.85858384
H       -1.92305151       0.91126958      -0.79517603
H       -2.62354538      -0.53797404      -0.13575775
H       -1.51972164      -0.63625807      -1.54729616
H       -0.80055208       0.15261519       1.92882113
H       -1.10363773      -2.18029346       0.60990151
H        0.25904513       0.60004115       1.74212072
H        2.77903563       0.46436465       0.09768056
H        2.00587408      -0.38383871      -1.26067907
H        2.08440806      -1.12002165       0.34475894
16
Frame=14 idx=011237 GeodesicLength=1.234335231171394 rxn_smarts="[C:1]([C@@:2]([O:3][H:12])([C@@:4]([C:5]([H:14])([H:15])[H:16])([C:6]#[N:7])[H:13])[H:11])([H:8])([H:9])[H:10]>>[C:1](/[C:2]([O:3][H:12])=[C:4](/[C:5]([H:14])([H:15])[H:16])[C:6]#[N:7])([H:8])([H:9])[H:10].[H:11][H:13]"
C       -1.69963879      -0.15592218      -0.61823662
C       -0.56179367      -0.33912924       0.34439151
O       -0.29512748      -1.67369776       0.59651859
C        0.63085755       0.47224540       0.21235005
C        1.93038375      -0.18235870      -0.20903233
C        0.45266738       1.77938871      -0.38672335
N        0.35435390       2.84032040      -0.82035437
H       -1.89379784       0.88746427      -0.85914128
H       -2.62005206      -0.53149314      -0.16340881
H       -1.48789492      -0.68699493      -1.54901511
H       -0.79305272       0.19094628       1.94624551
H       -1.11063055      -2.17689227       0.62631614
H        0.29060061       0.62151409       1.78965353
H        2.77282641       0.44110151       0.09325921
H        1.97012345      -0.34273052      -1.28755217
H        2.06017500      -1.14376192       0.28472950
16
Frame=15 idx=011237 GeodesicLength=1.3238333074767519 rxn_smarts="[C:1]([C@@:2]([O:3][H:12])([C@@:4]([C:5]([H:14])([H:15])[H:16])([C:6]#[N:7])[H:13])[H:11])([H:8])([H:9])[H:10]>>[C:1](/[C:2]([O:3][H:12])=[C:4](/[C:5]([H:14])([H:15])[H:16])[C:6]#[N:7])([H:8])([H:9])[H:10].[H:11][H:13]"
C       -1.68296572      -0.17370742      -0.64100607
C       -0.57157011      -0.33420587       0.35625006
O       -0.30394633      -1.66749813       0.62965474
C        0.62632667       0.47287393       0.23836625
C        1.91153106      -0.18297317      -0.22715074
C        0.44874778       1.78671099      -0.35376663
N        0.34899599       2.84837027      -0.78417761
H       -1.86125258       0.86255414      -0.92202745
H       -2.61620555      -0.52403601      -0.19182480
H       -1.45699011      -0.73717995      -1.54907866
H       -0.78187914       0.22787562       1.96393729
H       -1.11761809      -2.17381149       0.64115836
H        0.32397623       0.64396757       1.83687669
H        2.76554923       0.41707707       0.08976110
H        1.93488783      -0.30049175      -1.31153895
H        2.03241284      -1.16552579       0.22456641
16
Frame=16 idx=011237 GeodesicLength=1.4136892374201069 rxn_smarts="[C:1]([C@@:2]([O:3][H:12])([C@@:4]([C:5]([H:14])([H:15])[H:16])([C:6]#[N:7])[H:13])[H:11])([H:8])([H:9])[H:10]>>[C:1](/[C:2]([O:3][H:12])=[C:4](/[C:5]([H:14])([H:15])[H:16])[C:6]#[N:7])([H:8])([H:9])[H:10].[H:11][H:13]"
C       -1.66594326      -0.19143769      -0.66336725
C       -0.58202928      -0.32940914       0.36731889
O       -0.31336714      -1.66135334       0.66099328
C        0.62138488       0.47305466       0.26407414
C        1.89176169      -0.18305773      -0.24425062
C        0.44429473       1.79338050      -0.32155552
N        0.34219270       2.85511389      -0.75023541
H       -1.82561760       0.83658542      -0.98355326
H       -2.61203749      -0.51561717      -0.22106066
H       -1.42726466      -0.78665484      -1.54760395
H       -0.76704119       0.26296433       1.98206051
H       -1.12460915      -2.17108200       0.65437073
H        0.35930345       0.66765979       1.88358277
H        2.75720842       0.39231309       0.08722413
H        1.90047045      -0.25733140      -1.33257489
H        2.00129347      -1.18512837       0.16457709
