15
Frame=0 idx=007228 GeodesicLength=0.0 rxn_smarts="[O:1]([C:2]([C@@:3]1([H:11])[C:4]([H:12])([H:13])[C:5]([H:14])([H:15])[C:6]1=[O:7])([H:9])[H:10])[H:8]>>[C:4](=[C:5]([H:14])[H:15])([H:12])[H:13].[O:1]([C:2]([C@@:3]1([H:11])[C-:6]=[O+:7]1)([H:9])[H:10])[H:8]"
O        2.25220836       0.41199798       0.24598205
C        1.38306441      -0.60767910      -0.19492022
C        0.14641702      -0.54628346       0.64748069
C       -0.89090261       1.35191551      -0.00986654
C       -1.93838907       0.77754524      -0.63469628
C       -0.99622238      -1.49582161       0.26651887
O       -0.47888935      -2.36142665       0.94002169
H        3.07091301       0.35570601      -0.24841503
H        1.83414786      -1.60048512      -0.08612306
H        1.10555756      -0.48202149      -1.25162902
H        0.29751458      -0.32212547       1.70007781
H       -0.99802018       1.74962416       0.99265876
H       -0.00991646       1.66974280      -0.55581713
H       -1.89454561       0.48937413      -1.67745643
H       -2.88293710       0.60993710      -0.13381613
15
Frame=1 idx=007228 GeodesicLength=0.04098252452259678 rxn_smarts="[O:1]([C:2]([C@@:3]1([H:11])[C:4]([H:12])([H:13])[C:5]([H:14])([H:15])[C:6]1=[O:7])([H:9])[H:10])[H:8]>>[C:4](=[C:5]([H:14])[H:15])([H:12])[H:13].[O:1]([C:2]([C@@:3]1([H:11])[C-:6]=[O+:7]1)([H:9])[H:10])[H:8]"
O        2.25433561       0.40792658       0.23988075
C        1.38801923      -0.61542462      -0.19858575
C        0.14866371      -0.55172032       0.63851730
C       -0.89285413       1.35257218       0.00248838
C       -1.93504470       0.76422159      -0.62857427
C       -0.99331877      -1.50156471       0.26340292
O       -0.47516007      -2.35900867       0.94883398
H        3.07301953       0.35336460      -0.25479978
H        1.84068090      -1.60700976      -0.08582998
H        1.11503683      -0.49319214      -1.25685953
H        0.27896463      -0.30619176       1.68864506
H       -1.01334231       1.76408067       0.99800068
H       -0.01409964       1.68179374      -0.54047260
H       -1.88640512       0.49483061      -1.67641751
H       -2.88849568       0.61532202      -0.13822964
15
Frame=2 idx=007228 GeodesicLength=0.08194353278535396 rxn_smarts="[O:1]([C:2]([C@@:3]1([H:11])[C:4]([H:12])([H:13])[C:5]([H:14])([H:15])[C:6]1=[O:7])([H:9])[H:10])[H:8]>>[C:4](=[C:5]([H:14])[H:15])([H:12])[H:13].[O:1]([C:2]([C@@:3]1([H:11])[C-:6]=[O+:7]1)([H:9])[H:10])[H:8]"
O        2.25642152       0.40388311       0.23319766
C        1.39274389      -0.62318266      -0.20230384
C        0.15103371      -0.55703247       0.63003817
C       -0.89501385       1.35318751       0.01545630
C       -1.93131603       0.75099943      -0.62270784
C       -0.99046996      -1.50710334       0.26103741
O       -0.47133471      -2.35638055       0.95799094
H        3.07488218       0.35094849      -0.26208380
H        1.84703758      -1.61350937      -0.08563189
H        1.12394765      -0.50463178      -1.26205065
H        0.26114864      -0.29083415       1.67699281
H       -1.02983828       1.77839425       1.00345496
H       -0.01844430       1.69409852      -0.52399627
H       -1.87701333       0.50029635      -1.67522145
H       -2.89378471       0.62086665      -0.14417251
15
Frame=3 idx=007228 GeodesicLength=0.12286111127409291 rxn_smarts="[O:1]([C:2]([C@@:3]1([H:11])[C:4]([H:12])([H:13])[C:5]([H:14])([H:15])[C:6]1=[O:7])([H:9])[H:10])[H:8]>>[C:4](=[C:5]([H:14])[H:15])([H:12])[H:13].[O:1]([C:2]([C@@:3]1([H:11])[C-:6]=[O+:7]1)([H:9])[H:10])[H:8]"
O        2.25841769       0.39993584       0.22603330
C        1.39729174      -0.63094772      -0.20602152
C        0.15348812      -0.56224450       0.62197212
C       -0.89733359       1.35375196       0.02891505
C       -1.92732096       0.73793767      -0.61699301
C       -0.98766246      -1.51246727       0.25922429
O       -0.46743524      -2.35359499       0.96731264
H        3.07651870       0.34852885      -0.27005803
H        1.85330442      -1.61995296      -0.08539568
H        1.13244089      -0.51638133      -1.26718112
H        0.24396959      -0.27612245       1.66513873
H       -1.04723339       1.79265580       1.00884089
H       -0.02297090       1.70650347      -0.50669095
H       -1.86671307       0.50580240      -1.67377226
H       -2.89876153       0.62659523      -0.15132447
15
Frame=4 idx=007228 GeodesicLength=0.1637129223713329 rxn_smarts="[O:1]([C:2]([C@@:3]1([H:11])[C:4]([H:12])([H:13])[C:5]([H:14])([H:15])[C:6]1=[O:7])([H:9])[H:10])[H:8]>>[C:4](=[C:5]([H:14])[H:15])([H:12])[H:13].[O:1]([C:2]([C@@:3]1([H:11])[C-:6]=[O+:7]1)([H:9])[H:10])[H:8]"
O        2.26028793       0.39614402       0.21849558
C        1.40172006      -0.63871206      -0.20968663
C        0.15599106      -0.56737752       0.61424224
C       -0.89976527       1.35426165       0.04274040
C       -1.92318398       0.72508598      -0.61132651
C       -0.98488137      -1.51768399       0.25775998
O       -0.46348882      -2.35070189       0.97662005
H        3.07796296       0.34616144      -0.27849976
H        1.85956371      -1.62631030      -0.08499553
H        1.14067529      -0.52846821      -1.27222842
H        0.22732748      -0.26211931       1.65309350
H       -1.06525099       1.80695800       1.01398012
H       -0.02769755       1.71886854      -0.48886828
H       -1.85586281       0.51137259      -1.67198017
H       -2.90339771       0.63252105      -0.15934658
15
Frame=5 idx=007228 GeodesicLength=0.20448359325742438 rxn_smarts="[O:1]([C:2]([C@@:3]1([H:11])[C:4]([H:12])([H:13])[C:5]([H:14])([H:15])[C:6]1=[O:7])([H:9])[H:10])[H:8]>>[C:4](=[C:5]([H:14])[H:15])([H:12])[H:13].[O:1]([C:2]([C@@:3]1([H:11])[C-:6]=[O+:7]1)([H:9])[H:10])[H:8]"
O        2.26200529       0.39255877       0.21070020
C        1.40608988      -0.64646665      -0.21324595
C        0.15851146      -0.57245000       0.60676663
C       -0.90225986       1.35471676       0.05680751
C       -1.91904180       0.71248415      -0.60560684
C       -0.98210674      -1.52278084       0.25643689
O       -0.45952612      -2.34774885       0.98573558
H        3.07926071       0.34388900      -0.28717301
H        1.86589338      -1.63255307      -0.08431067
H        1.14881829      -0.54090832      -1.27716554
H        0.21112285      -0.24887819       1.64085440
H       -1.08360825       1.82139350       1.01869993
H       -0.03263590       1.73106560      -0.47084905
H       -1.84483841       0.51702932      -1.66976970
H       -2.90768481       0.63864884      -0.16788036
15
Frame=6 idx=007228 GeodesicLength=0.24512637993119407 rxn_smarts="[O:1]([C:2]([C@@:3]1([H:11])[C:4]([H:12])([H:13])[C:5]([H:14])([H:15])[C:6]1=[O:7])([H:9])[H:10])[H:8]>>[C:4](=[C:5]([H:14])[H:15])([H:12])[H:13].[O:1]([C:2]([C@@:3]1([H:11])[C-:6]=[O+:7]1)([H:9])[H:10])[H:8]"
O        2.26353293       0.38925346       0.20281203
C        1.41049007      -0.65420086      -0.21662389
C        0.16101864      -0.57749572       0.59943457
C       -0.90474944       1.35510397       0.07094711
C       -1.91507644       0.70018072      -0.59969444
C       -0.97930061      -1.52780704       0.25497412
O       -0.45558903      -2.34480411       0.99442316
H        3.08047331       0.34177826      -0.29574686
H        1.87240420      -1.63864701      -0.08317178
H        1.15710886      -0.55372414      -1.28195366
H        0.19521533      -0.23646801       1.62837059
H       -1.10192418       1.83609568       1.02276238
H       -0.03779295       1.74290783      -0.45306540
H       -1.83417838       0.52281006      -1.66704101
H       -2.91163231       0.64501691      -0.17642694
15
Frame=7 idx=007228 GeodesicLength=0.2853647119030643 rxn_smarts="[O:1]([C:2]([C@@:3]1([H:11])[C:4]([H:12])([H:13])[C:5]([H:14])([H:15])[C:6]1=[O:7])([H:9])[H:10])[H:8]>>[C:4](=[C:5]([H:14])[H:15])([H:12])[H:13].[O:1]([C:2]([C@@:3]1([H:11])[C-:6]=[O+:7]1)([H:9])[H:10])[H:8]"
O        2.26479126       0.38630395       0.19511010
C        1.41504993      -0.66189404      -0.21968922
C        0.16344585      -0.58253476       0.59207970
C       -0.90717481       1.35540312       0.08474488
C       -1.91144370       0.68817899      -0.59344811
C       -0.97643768      -1.53277653       0.25288036
O       -0.45181357      -2.34194999       1.00224535
H        3.08167333       0.33991192      -0.30368810
H        1.87926488      -1.64451626      -0.08130825
H        1.16593361      -0.56696279      -1.28649574
H        0.17932246      -0.22499605       1.61553253
H       -1.11961495       1.85129936       1.02575446
H       -0.04323972       1.75417338      -0.43622926
H       -1.82474873       0.52884158      -1.66346714
H       -2.91500815       0.65151812      -0.18402157
15
Frame=8 idx=007228 GeodesicLength=0.32552012157368304 rxn_smarts="[O:1]([C:2]([C@@:3]1([H:11])[C:4]([H:12])([H:13])[C:5]([H:14])([H:15])[C:6]1=[O:7])([H:9])[H:10])[H:8]>>[C:4](=[C:5]([H:14])[H:15])([H:12])[H:13].[O:1]([C:2]([C@@:3]1([H:11])[C-:6]=[O+:7]1)([H:9])[H:10])[H:8]"
O        2.26590103       0.38358649       0.18730907
C        1.41962895      -0.66955631      -0.22259130
C        0.16585322      -0.58752512       0.58485061
C       -0.90960094       1.35567656       0.09865741
C       -1.90799401       0.67648166      -0.58703351
C       -0.97356284      -1.53765935       0.25066437
O       -0.44808231      -2.33909341       1.00967761
H        3.08281419       0.33816240      -0.31157196
H        1.88625828      -1.65023605      -0.07904754
H        1.17488723      -0.58051359      -1.29088725
H        0.16377071      -0.21430888       1.60251904
H       -1.13727861       1.86671603       1.02813396
H       -0.04888271       1.76515587      -0.41957476
H       -1.81559750       0.53491699      -1.65947071
H       -2.91811468       0.65819671      -0.19163505
15
Frame=9 idx=007228 GeodesicLength=0.36560792490823574 rxn_smarts="[O:1]([C:2]([C@@:3]1([H:11])[C:4]([H:12])([H:13])[C:5]([H:14])([H:15])[C:6]1=[O:7])([H:9])[H:10])[H:8]>>[C:4](=[C:5]([H:14])[H:15])([H:12])[H:13].[O:1]([C:2]([C@@:3]1([H:11])[C-:6]=[O+:7]1)([H:9])[H:10])[H:8]"
O        2.26687352       0.38103982       0.17922835
C        1.42413153      -0.67718543      -0.22541368
C        0.16824362      -0.59242153       0.57781608
C       -0.91211414       1.35595642       0.11284742
C       -1.90456809       0.66506652      -0.58059629
C       -0.97072934      -1.54240304       0.24856149
O       -0.44437092      -2.33617155       1.01693250
H        3.08383860       0.33643823      -0.31968980
H        1.89326570      -1.65581989      -0.07654827
H        1.18374155      -0.59434258      -1.29516765
H        0.14867883      -0.20429403       1.58943992
H       -1.15521908       1.88215774       1.03009572
H       -0.05471917       1.77604256      -0.40269153
H       -1.80618100       0.54097589      -1.65512846
H       -2.92087162       0.66496088      -0.19968581
15
Frame=10 idx=007228 GeodesicLength=0.40565688037119096 rxn_smarts="[O:1]([C:2]([C@@:3]1([H:11])[C:4]([H:12])([H:13])[C:5]([H:14])([H:15])[C:6]1=[O:7])([H:9])[H:10])[H:8]>>[C:4](=[C:5]([H:14])[H:15])([H:12])[H:13].[O:1]([C:2]([C@@:3]1([H:11])[C-:6]=[O+:7]1)([H:9])[H:10])[H:8]"
O        2.26771391       0.37860386       0.17067491
C        1.42845440      -0.68477927      -0.22824152
C        0.17062636      -0.59717675       0.57104947
C       -0.91479316       1.35626943       0.12749920
C       -1.90098620       0.65392262      -0.57429760
C       -0.96798811      -1.54694855       0.24682850
O       -0.44063765      -2.33311636       1.02423565
H        3.08466535       0.33465859      -0.32836710
H        1.90016759      -1.66127859      -0.07397203
H        1.19224427      -0.60842323      -1.29937936
H        0.13417568      -0.19485163       1.57642982
H       -1.17376610       1.89743205       1.03184305
H       -0.06074530       1.78699229      -0.38513213
H       -1.79591401       0.54695504      -1.65053231
H       -2.92321702       0.67174050      -0.20863856
15
Frame=11 idx=007228 GeodesicLength=0.4455215120001643 rxn_smarts="[O:1]([C:2]([C@@:3]1([H:11])[C:4]([H:12])([H:13])[C:5]([H:14])([H:15])[C:6]1=[O:7])([H:9])[H:10])[H:8]>>[C:4](=[C:5]([H:14])[H:15])([H:12])[H:13].[O:1]([C:2]([C@@:3]1([H:11])[C-:6]=[O+:7]1)([H:9])[H:10])[H:8]"
O        2.26837501       0.37642668       0.16210616
C        1.43285858      -0.69233902      -0.23086109
C        0.17294183      -0.60188507       0.56428266
C       -0.91748084       1.35656271       0.14211806
C       -1.89766262       0.64309535      -0.56778143
C       -0.96523672      -1.55141726       0.24472156
O       -0.43703016      -2.33008451       1.03097063
H        3.08547131       0.33302103      -0.33679156
H        1.90726942      -1.66654942      -0.07085134
H        1.20107076      -0.62286100      -1.30340328
H        0.11987585      -0.18615288       1.56324173
H       -1.19200799       1.91294189       1.03280111
H       -0.06699911       1.79757357      -0.36801510
H       -1.78625991       0.55305949      -1.64540989
H       -2.92518543       0.67860843      -0.21712821
15
Frame=12 idx=007228 GeodesicLength=0.4853304555571126 rxn_smarts="[O:1]([C:2]([C@@:3]1([H:11])[C:4]([H:12])([H:13])[C:5]([H:14])([H:15])[C:6]1=[O:7])([H:9])[H:10])[H:8]>>[C:4](=[C:5]([H:14])[H:15])([H:12])[H:13].[O:1]([C:2]([C@@:3]1([H:11])[C-:6]=[O+:7]1)([H:9])[H:10])[H:8]"
O        2.26888435       0.37440941       0.15322667
C        1.43718768      -0.69986657      -0.23340453
C        0.17521791      -0.60648202       0.55765576
C       -0.92027930       1.35688518       0.15702385
C       -1.89435654       0.63256111      -0.56127570
C       -0.96254496      -1.55573244       0.24267796
O       -0.43347216      -2.32697740       1.03752029
H        3.08613990       0.33141121      -0.34549029
H        1.91438365      -1.67166508      -0.06745461
H        1.20982285      -0.63760449      -1.30730686
H        0.10600292      -0.17804528       1.55005947
H       -1.21046618       1.92838466       1.03335138
H       -0.07344330       1.80806244      -0.35063935
H       -1.77629920       0.55916028      -1.63997406
H       -2.92677762       0.68549898      -0.22596999
15
Frame=13 idx=007228 GeodesicLength=0.5250837374808066 rxn_smarts="[O:1]([C:2]([C@@:3]1([H:11])[C:4]([H:12])([H:13])[C:5]([H:14])([H:15])[C:6]1=[O:7])([H:9])[H:10])[H:8]>>[C:4](=[C:5]([H:14])[H:15])([H:12])[H:13].[O:1]([C:2]([C@@:3]1([H:11])[C-:6]=[O+:7]1)([H:9])[H:10])[H:8]"
O        2.26923672       0.37252017       0.14385943
C        1.44135218      -0.70736134      -0.23594852
C        0.17746030      -0.61094155       0.55124852
C       -0.92327412       1.35723680       0.17238419
C       -1.89090362       0.62231553      -0.55490264
C       -0.95996176      -1.55986594       0.24093629
O       -0.42993000      -2.32374460       1.04409594
H        3.08659989       0.32978142      -0.35475576
H        1.92141485      -1.67663459      -0.06392659
H        1.21827908      -0.65263835      -1.31113459
H        0.09265000      -0.17043188       1.53697616
H       -1.22942781       1.94358503       1.03365426
H       -0.08008222       1.81857249      -0.33259670
H       -1.76549979       0.56520923      -1.63429313
H       -2.92791369       0.69239758      -0.23559686
15
Frame=14 idx=007228 GeodesicLength=0.5648091557974848 rxn_smarts="[O:1]([C:2]([C@@:3]1([H:11])[C:4]([H:12])([H:13])[C:5]([H:14])([H:15])[C:6]1=[O:7])([H:9])[H:10])[H:8]>>[C:4](=[C:5]([H:14])[H:15])([H:12])[H:13].[O:1]([C:2]([C@@:3]1([H:11])[C-:6]=[O+:7]1)([H:9])[H:10])[H:8]"
O        2.26938769       0.37074950       0.13390315
C        1.44530202      -0.71482846      -0.23851963
C        0.17966997      -0.61526244       0.54508777
C       -0.92651109       1.35760344       0.18828226
C       -1.88722695       0.61234765      -0.54872480
C       -0.95749056      -1.56380561       0.23959704
O       -0.42635917      -2.32037046       1.05078148
H        3.08676350       0.32812543      -0.36474115
H        1.92832778      -1.68145150      -0.06029654
H        1.22632777      -0.66798038      -1.31488817
H        0.07985815      -0.16326447       1.52404623
H       -1.24899332       1.95845923       1.03378351
H       -0.08692025       1.82913768      -0.31368757
H       -1.75359939       0.57121322      -1.62840927
H       -2.92853615       0.69932716      -0.24621431
15
Frame=15 idx=007228 GeodesicLength=0.6044806462161373 rxn_smarts="[O:1]([C:2]([C@@:3]1([H:11])[C:4]([H:12])([H:13])[C:5]([H:14])([H:15])[C:6]1=[O:7])([H:9])[H:10])[H:8]>>[C:4](=[C:5]([H:14])[H:15])([H:12])[H:13].[O:1]([C:2]([C@@:3]1([H:11])[C-:6]=[O+:7]1)([H:9])[H:10])[H:8]"
O        2.26935942       0.36912646       0.12353306
C        1.44914335      -0.72225785      -0.24105248
C        0.18182871      -0.61945025       0.53905569
C       -0.92993181       1.35799268       0.20453151
C       -1.88349940       0.60268059      -0.54261964
C       -0.95509941      -1.56757617       0.23837903
O       -0.42282794      -2.31688548       1.05736456
H        3.08675940       0.32644979      -0.37510455
H        1.93522367      -1.68609010      -0.05642688
H        1.23423138      -0.68363173      -1.31853488
H        0.06748286      -0.15657100       1.51118782
H       -1.26883074       1.97312763       1.03354950
H       -0.09396081       1.83960773      -0.29433810
H       -1.74117351       0.57723596      -1.62223847
H       -2.92870518       0.70624175      -0.25728618
15
Frame=16 idx=007228 GeodesicLength=0.6441405223907666 rxn_smarts="[O:1]([C:2]([C@@:3]1([H:11])[C:4]([H:12])([H:13])[C:5]([H:14])([H:15])[C:6]1=[O:7])([H:9])[H:10])[H:8]>>[C:4](=[C:5]([H:14])[H:15])([H:12])[H:13].[O:1]([C:2]([C@@:3]1([H:11])[C-:6]=[O+:7]1)([H:9])[H:10])[H:8]"
O        2.26912387       0.36764073       0.11257988
C        1.45280040      -0.72965645      -0.24360439
C        0.18393542      -0.62349638       0.53322386
C       -0.93361297       1.35838944       0.22128249
C       -1.87958598       0.59330031      -0.53669529
C       -0.95283116      -1.57116474       0.23748503
O       -0.41929896      -2.31326172       1.06401633
H        3.08649345       0.32475489      -0.38613191
H        1.94204069      -1.69054998      -0.05240519
H        1.24180289      -0.69962140      -1.32210337
H        0.05559366      -0.15027001       1.49849396
H       -1.28916061       1.98743741       1.03310971
H       -0.10120540       1.85006694      -0.27419280
H       -1.72774903       0.58325166      -1.61584619
H       -2.92834626       0.71317930      -0.26921212
