6
Frame=0 idx=004935 GeodesicLength=0.0 rxn_smarts="[C:1](#[C:2][C:3]#[N:4])[C:5]#[N:6]>>[C:1]1([C:5]#[N:6])=[N:4][C:3]#[C:2]1"
C        0.01813278       0.11673301       0.34322983
C        0.65336996       1.17713762       0.83031726
C        1.62270015       0.28752746      -0.31051130
N        1.27175810      -0.85694222      -0.20218438
C       -1.25949185      -0.22055923      -0.14261381
N       -2.30646917      -0.50389665      -0.51823758
6
Frame=1 idx=004935 GeodesicLength=0.08570067725176113 rxn_smarts="[C:1](#[C:2][C:3]#[N:4])[C:5]#[N:6]>>[C:1]1([C:5]#[N:6])=[N:4][C:3]#[C:2]1"
C        0.00682490       0.10890856       0.33990619
C        0.64854643       1.16511365       0.81640363
C        1.63554032       0.29620203      -0.30431132
N        1.30684304      -0.85473199      -0.19622413
C       -1.27009222      -0.22874413      -0.14571959
N       -2.32766247      -0.48674814      -0.51005478
6
Frame=2 idx=004935 GeodesicLength=0.1714290628408843 rxn_smarts="[C:1](#[C:2][C:3]#[N:4])[C:5]#[N:6]>>[C:1]1([C:5]#[N:6])=[N:4][C:3]#[C:2]1"
C       -0.00467027       0.10056254       0.33560635
C        0.64324084       1.15236990       0.80227668
C        1.64875959       0.30506638      -0.29783860
N        1.34305153      -0.85209564      -0.18958600
C       -1.28103725      -0.23698052      -0.14988857
N       -2.34934444      -0.46892267      -0.50056987
6
Frame=3 idx=004935 GeodesicLength=0.2570368301118723 rxn_smarts="[C:1](#[C:2][C:3]#[N:4])[C:5]#[N:6]>>[C:1]1([C:5]#[N:6])=[N:4][C:3]#[C:2]1"
C       -0.01634507       0.09179972       0.33022453
C        0.63775137       1.13871258       0.78794020
C        1.66232738       0.31402610      -0.29095745
N        1.38013532      -0.84887714      -0.18228422
C       -1.29250115      -0.24466086      -0.15513245
N       -2.37136784      -0.45100040      -0.48979061
6
Frame=4 idx=004935 GeodesicLength=0.3426589444224772 rxn_smarts="[C:1](#[C:2][C:3]#[N:4])[C:5]#[N:6]>>[C:1]1([C:5]#[N:6])=[N:4][C:3]#[C:2]1"
C       -0.02829471       0.08274903       0.32346685
C        0.63197582       1.12417222       0.77364063
C        1.67644045       0.32304389      -0.28344994
N        1.41812271      -0.84532783      -0.17434516
C       -1.30445134      -0.25121677      -0.16237436
N       -2.39379292      -0.43342053      -0.47693803
6
Frame=5 idx=004935 GeodesicLength=0.4283659771629383 rxn_smarts="[C:1](#[C:2][C:3]#[N:4])[C:5]#[N:6]>>[C:1]1([C:5]#[N:6])=[N:4][C:3]#[C:2]1"
C       -0.04044305       0.07331859       0.31559619
C        0.62615989       1.10856682       0.75902846
C        1.69086086       0.33208247      -0.27559292
N        1.45693384      -0.84109035      -0.16576348
C       -1.31721476      -0.25686160      -0.17002950
N       -2.41629677      -0.41601594      -0.46323874
6
Frame=6 idx=004935 GeodesicLength=0.5138420498728089 rxn_smarts="[C:1](#[C:2][C:3]#[N:4])[C:5]#[N:6]>>[C:1]1([C:5]#[N:6])=[N:4][C:3]#[C:2]1"
C       -0.05274567       0.06344242       0.30692089
C        0.62041242       1.09222664       0.74414903
C        1.70530341       0.34129227      -0.26777008
N        1.49650036      -0.83637386      -0.15660995
C       -1.33087159      -0.26221689      -0.17715630
N       -2.43859893      -0.39837058      -0.44953359
6
Frame=7 idx=004935 GeodesicLength=0.5994391774831482 rxn_smarts="[C:1](#[C:2][C:3]#[N:4])[C:5]#[N:6]>>[C:1]1([C:5]#[N:6])=[N:4][C:3]#[C:2]1"
C       -0.06524934       0.05307658       0.29717179
C        0.61452730       1.07499893       0.72901606
C        1.72002234       0.35060243      -0.25980035
N        1.53714635      -0.83116705      -0.14679949
C       -1.34545801      -0.26680943      -0.18433672
N       -2.46098864      -0.38070145      -0.43525129
6
Frame=8 idx=004935 GeodesicLength=0.6847731518964552 rxn_smarts="[C:1](#[C:2][C:3]#[N:4])[C:5]#[N:6]>>[C:1]1([C:5]#[N:6])=[N:4][C:3]#[C:2]1"
C       -0.07784241       0.04212759       0.28655659
C        0.60893890       1.05663884       0.71326806
C        1.73461903       0.36013399      -0.25184664
N        1.57849852      -0.82498731      -0.13630062
C       -1.36105645      -0.27146067      -0.19018198
N       -2.48315760      -0.36245244      -0.42149541
6
Frame=9 idx=004935 GeodesicLength=0.7699930799784525 rxn_smarts="[C:1](#[C:2][C:3]#[N:4])[C:5]#[N:6]>>[C:1]1([C:5]#[N:6])=[N:4][C:3]#[C:2]1"
C       -0.09062841       0.03073976       0.27456715
C        0.60324397       1.03747872       0.69741620
C        1.74959126       0.36975211      -0.24359088
N        1.62102301      -0.81850131      -0.12511882
C       -1.37760216      -0.27492309      -0.19647265
N       -2.50562766      -0.34454619      -0.40680100
6
Frame=10 idx=004935 GeodesicLength=0.855457668016072 rxn_smarts="[C:1](#[C:2][C:3]#[N:4])[C:5]#[N:6]>>[C:1]1([C:5]#[N:6])=[N:4][C:3]#[C:2]1"
C       -0.10355279       0.01855412       0.26166785
C        0.59780695       1.01675465       0.68064194
C        1.76446436       0.37965036      -0.23545168
N        1.66453009      -0.81059836      -0.11313111
C       -1.39530593      -0.27888464      -0.20059777
N       -2.52794268      -0.32547613      -0.39312923
6
Frame=11 idx=004935 GeodesicLength=0.9409159808909587 rxn_smarts="[C:1](#[C:2][C:3]#[N:4])[C:5]#[N:6]>>[C:1]1([C:5]#[N:6])=[N:4][C:3]#[C:2]1"
C       -0.11669545       0.00588437       0.24712931
C        0.59222917       0.99504907       0.66359513
C        1.77973174       0.38975823      -0.22698971
N        1.70943226      -0.80226600      -0.10036153
C       -1.41403953      -0.28211273      -0.20461426
N       -2.55065819      -0.30631293      -0.37875895
6
Frame=12 idx=004935 GeodesicLength=1.0256263057404027 rxn_smarts="[C:1](#[C:2][C:3]#[N:4])[C:5]#[N:6]>>[C:1]1([C:5]#[N:6])=[N:4][C:3]#[C:2]1"
C       -0.13002256      -0.00706054       0.23019587
C        0.58684553       0.97218578       0.64631109
C        1.79541610       0.39996585      -0.21761122
N        1.75511815      -0.79345507      -0.08660480
C       -1.43362176      -0.28365716      -0.20984386
N       -2.57373545      -0.28797885      -0.36244708
6
Frame=13 idx=004935 GeodesicLength=1.1108461042865252 rxn_smarts="[C:1](#[C:2][C:3]#[N:4])[C:5]#[N:6]>>[C:1]1([C:5]#[N:6])=[N:4][C:3]#[C:2]1"
C       -0.14339324      -0.02097370       0.21096776
C        0.58178534       0.94677788       0.62768310
C        1.81106301       0.41034376      -0.20755624
N        1.80204483      -0.78240954      -0.07152392
C       -1.45436997      -0.28543956      -0.21364665
N       -2.59712998      -0.26829883      -0.34592406
6
Frame=14 idx=004935 GeodesicLength=1.195897029750289 rxn_smarts="[C:1](#[C:2][C:3]#[N:4])[C:5]#[N:6]>>[C:1]1([C:5]#[N:6])=[N:4][C:3]#[C:2]1"
C       -0.15699779      -0.03531361       0.18832535
C        0.57652060       0.91978847       0.60850309
C        1.82729382       0.42102646      -0.19635662
N        1.85048108      -0.77066004      -0.05507029
C       -1.47610953      -0.28637761      -0.21825241
N       -2.62118819      -0.24846367      -0.32714911
6
Frame=15 idx=004935 GeodesicLength=1.2807536541802218 rxn_smarts="[C:1](#[C:2][C:3]#[N:4])[C:5]#[N:6]>>[C:1]1([C:5]#[N:6])=[N:4][C:3]#[C:2]1"
C       -0.17077900      -0.05065209       0.16243226
C        0.57087497       0.89098877       0.58854464
C        1.84356603       0.43248395      -0.18466587
N        1.90068031      -0.75772451      -0.03751301
C       -1.49925018      -0.28890778      -0.22000717
N       -2.64509213      -0.22618834      -0.30879084
6
Frame=16 idx=004935 GeodesicLength=1.3658624851206729 rxn_smarts="[C:1](#[C:2][C:3]#[N:4])[C:5]#[N:6]>>[C:1]1([C:5]#[N:6])=[N:4][C:3]#[C:2]1"
C       -0.18467731      -0.06582060       0.13096073
C        0.56577595       0.85912605       0.56721253
C        1.86031201       0.44389800      -0.17066697
N        1.95153503      -0.74286261      -0.01790218
C       -1.52339000      -0.29014235      -0.22254027
N       -2.66955567      -0.20419848      -0.28706385
