9
Frame=0 idx=005527 GeodesicLength=0.0 rxn_smarts="[N:1]([c:2]1[n:3][o:4][n:5][c:6]1[H:9])([H:7])[H:8]>>[N:1]([C:2]([N:3]=[O:4])=[C:6]=[N:5][H:9])([H:7])[H:8]"
N       -1.64774526      -0.26362198      -0.09456406
C       -0.26670878      -0.18211876      -0.01389335
N        0.58519353      -1.18890501       0.11515747
O        1.79393454      -1.06255264       0.20356166
N        1.80065458       1.02730659      -0.00385894
C        0.57916189       0.96880866      -0.09378142
H       -2.07154741      -0.71598839       0.69993374
H       -1.98709401      -0.66284619      -0.95613310
H        1.21415091       2.07991773       0.14357801
9
Frame=1 idx=005527 GeodesicLength=0.03920934911228784 rxn_smarts="[N:1]([c:2]1[n:3][o:4][n:5][c:6]1[H:9])([H:7])[H:8]>>[N:1]([C:2]([N:3]=[O:4])=[C:6]=[N:5][H:9])([H:7])[H:8]"
N       -1.64554572      -0.26286784      -0.08820411
C       -0.26459917      -0.18522883      -0.00183786
N        0.58302476      -1.19797501       0.12731716
O        1.79484903      -1.05526144       0.20636754
N        1.79893852       1.02196658      -0.01624300
C        0.57483758       0.96593226      -0.08482917
H       -2.07126326      -0.73900516       0.69124600
H       -1.98335647      -0.63259370      -0.96333827
H        1.21311472       2.08503313       0.12952171
9
Frame=2 idx=005527 GeodesicLength=0.07826544814263901 rxn_smarts="[N:1]([c:2]1[n:3][o:4][n:5][c:6]1[H:9])([H:7])[H:8]>>[N:1]([C:2]([N:3]=[O:4])=[C:6]=[N:5][H:9])([H:7])[H:8]"
N       -1.64318252      -0.26219114      -0.08251833
C       -0.26239274      -0.18828367       0.01015849
N        0.58076804      -1.20680463       0.14193913
O        1.79572398      -1.04861781       0.20521905
N        1.79703935       1.01660052      -0.02625117
C        0.57078714       0.96301021      -0.07587727
H       -2.07129484      -0.76000372       0.68195271
H       -1.97877019      -0.60399464      -0.96968880
H        1.21132178       2.09028488       0.11506620
9
Frame=3 idx=005527 GeodesicLength=0.11735844773306076 rxn_smarts="[N:1]([c:2]1[n:3][o:4][n:5][c:6]1[H:9])([H:7])[H:8]>>[N:1]([C:2]([N:3]=[O:4])=[C:6]=[N:5][H:9])([H:7])[H:8]"
N       -1.64075127      -0.26168305      -0.07717586
C       -0.26022047      -0.19124842       0.02238039
N        0.57850551      -1.21540698       0.15743068
O        1.79642065      -1.04210015       0.20356798
N        1.79483877       1.01111191      -0.03814075
C        0.56666327       0.96029586      -0.06562426
H       -2.07148591      -0.78047018       0.67172598
H       -1.97348822      -0.57580405      -0.97549112
H        1.20951767       2.09530507       0.10132695
9
Frame=4 idx=005527 GeodesicLength=0.1564468420680151 rxn_smarts="[N:1]([c:2]1[n:3][o:4][n:5][c:6]1[H:9])([H:7])[H:8]>>[N:1]([C:2]([N:3]=[O:4])=[C:6]=[N:5][H:9])([H:7])[H:8]"
N       -1.63823993      -0.26125761      -0.07153833
C       -0.25789729      -0.19432729       0.03355586
N        0.57651466      -1.22423878       0.17015312
O        1.79680317      -1.03545950       0.20501422
N        1.79245369       1.00549088      -0.05027458
C        0.56272003       0.95756674      -0.05522034
H       -2.07078825      -0.80126213       0.66115945
H       -1.96887296      -0.54671877      -0.98004942
H        1.20730688       2.10020646       0.08720003
9
Frame=5 idx=005527 GeodesicLength=0.19549653432777714 rxn_smarts="[N:1]([c:2]1[n:3][o:4][n:5][c:6]1[H:9])([H:7])[H:8]>>[N:1]([C:2]([N:3]=[O:4])=[C:6]=[N:5][H:9])([H:7])[H:8]"
N       -1.63559011      -0.26085010      -0.06627227
C       -0.25543577      -0.19738869       0.04395746
N        0.57455639      -1.23297556       0.18314352
O        1.79706640      -1.02916216       0.20547427
N        1.78996516       0.99987394      -0.06106233
C        0.55906479       0.95478614      -0.04549003
H       -2.06981529      -0.82059030       0.65046981
H       -1.96418701      -0.51871003      -0.98364717
H        1.20437544       2.10501676       0.07342674
9
Frame=6 idx=005527 GeodesicLength=0.2345625700914311 rxn_smarts="[N:1]([c:2]1[n:3][o:4][n:5][c:6]1[H:9])([H:7])[H:8]>>[N:1]([C:2]([N:3]=[O:4])=[C:6]=[N:5][H:9])([H:7])[H:8]"
N       -1.63284602      -0.26049321      -0.06123180
C       -0.25287825      -0.20043361       0.05380624
N        0.57267002      -1.24163391       0.19599287
O        1.79719488      -1.02301115       0.20589446
N        1.78733463       0.99418657      -0.07163505
C        0.55559638       0.95200435      -0.03600338
H       -2.06857956      -0.83904425       0.63949328
H       -1.95946578      -0.49124989      -0.98640855
H        1.20097371       2.10967509       0.06009193
9
Frame=7 idx=005527 GeodesicLength=0.2736800067461771 rxn_smarts="[N:1]([c:2]1[n:3][o:4][n:5][c:6]1[H:9])([H:7])[H:8]>>[N:1]([C:2]([N:3]=[O:4])=[C:6]=[N:5][H:9])([H:7])[H:8]"
N       -1.63002264      -0.26015991      -0.05612959
C       -0.25015992      -0.20356539       0.06259672
N        0.57094628      -1.25045845       0.20713381
O        1.79719446      -1.01681543       0.20801340
N        1.78468799       0.98844163      -0.08161912
C        0.55235835       0.94913770      -0.02727736
H       -2.06670981      -0.85705355       0.62845628
H       -1.95532462      -0.46372595      -0.98805090
H        1.19702990       2.11419934       0.04687676
9
Frame=8 idx=005527 GeodesicLength=0.3126391874528067 rxn_smarts="[N:1]([c:2]1[n:3][o:4][n:5][c:6]1[H:9])([H:7])[H:8]>>[N:1]([C:2]([N:3]=[O:4])=[C:6]=[N:5][H:9])([H:7])[H:8]"
N       -1.62709943      -0.25991426      -0.05139950
C       -0.24746007      -0.20655279       0.07193377
N        0.56916675      -1.25896829       0.21993358
O        1.79702594      -1.01105630       0.20809959
N        1.78179580       0.98263895      -0.09173062
C        0.54922512       0.94637489      -0.01776214
H       -2.06510676      -0.87434882       0.61664263
H       -1.95032342      -0.43686849      -0.98936919
H        1.19277607       2.11869512       0.03365188
9
Frame=9 idx=005527 GeodesicLength=0.3516584580522258 rxn_smarts="[N:1]([c:2]1[n:3][o:4][n:5][c:6]1[H:9])([H:7])[H:8]>>[N:1]([C:2]([N:3]=[O:4])=[C:6]=[N:5][H:9])([H:7])[H:8]"
N       -1.62410185      -0.25969317      -0.04649370
C       -0.24461195      -0.20963997       0.08059313
N        0.56753910      -1.26769730       0.23111758
O        1.79676949      -1.00533412       0.20967164
N        1.77892748       0.97677934      -0.10095084
C        0.54631325       0.94351938      -0.00845534
H       -2.06297432      -0.89158990       0.60450764
H       -1.94578655      -0.40949536      -0.98963424
H        1.18792536       2.12315109       0.01964414
9
Frame=10 idx=005527 GeodesicLength=0.39075344790921523 rxn_smarts="[N:1]([c:2]1[n:3][o:4][n:5][c:6]1[H:9])([H:7])[H:8]>>[N:1]([C:2]([N:3]=[O:4])=[C:6]=[N:5][H:9])([H:7])[H:8]"
N       -1.62098395      -0.25953345      -0.04157744
C       -0.24173907      -0.21269897       0.09002768
N        0.56593651      -1.27644173       0.24266539
O        1.79644291      -0.99994480       0.21054743
N        1.77576835       0.97078408      -0.11011845
C        0.54355801       0.94071168       0.00261328
H       -2.06090609      -0.90901573       0.59118405
H       -1.94056057      -0.38147059      -0.98935935
H        1.18248390       2.12760952       0.00401741
9
Frame=11 idx=005527 GeodesicLength=0.4298865257172101 rxn_smarts="[N:1]([c:2]1[n:3][o:4][n:5][c:6]1[H:9])([H:7])[H:8]>>[N:1]([C:2]([N:3]=[O:4])=[C:6]=[N:5][H:9])([H:7])[H:8]"
N       -1.61773843      -0.25937162      -0.03628724
C       -0.23867059      -0.21593445       0.09893341
N        0.56449945      -1.28559568       0.25213030
O        1.79611175      -0.99466096       0.21308144
N        1.77272072       0.96477746      -0.11750594
C        0.54107675       0.93776034       0.01411190
H       -2.05822521      -0.92675339       0.57719602
H       -1.93582906      -0.35219223      -0.98778567
H        1.17605463       2.13197055      -0.01387422
9
Frame=12 idx=005527 GeodesicLength=0.4690147434785676 rxn_smarts="[N:1]([c:2]1[n:3][o:4][n:5][c:6]1[H:9])([H:7])[H:8]>>[N:1]([C:2]([N:3]=[O:4])=[C:6]=[N:5][H:9])([H:7])[H:8]"
N       -1.61436965      -0.25924602      -0.03117339
C       -0.23555845      -0.21906856       0.10827647
N        0.56305422      -1.29458031       0.26245931
O        1.79567893      -0.98972780       0.21443748
N        1.76955162       0.95873616      -0.12464511
C        0.53880875       0.93483399       0.02614688
H       -2.05557138      -0.94401205       0.56234342
H       -1.93050391      -0.32304003      -0.98562788
H        1.16890987       2.13610463      -0.03221717
9
Frame=13 idx=005527 GeodesicLength=0.5081764144651377 rxn_smarts="[N:1]([c:2]1[n:3][o:4][n:5][c:6]1[H:9])([H:7])[H:8]>>[N:1]([C:2]([N:3]=[O:4])=[C:6]=[N:5][H:9])([H:7])[H:8]"
N       -1.61097184      -0.25912027      -0.02602870
C       -0.23228690      -0.22227963       0.11633297
N        0.56175590      -1.30371830       0.27133098
O        1.79528338      -0.98467249       0.21755747
N        1.76660645       0.95270240      -0.13110981
C        0.53670474       0.93180842       0.03639433
H       -2.05232390      -0.96059044       0.54760291
H       -1.92601198      -0.29406326      -0.98228650
H        1.16124414       2.13993357      -0.04979365
9
Frame=14 idx=005527 GeodesicLength=0.5472869202214357 rxn_smarts="[N:1]([c:2]1[n:3][o:4][n:5][c:6]1[H:9])([H:7])[H:8]>>[N:1]([C:2]([N:3]=[O:4])=[C:6]=[N:5][H:9])([H:7])[H:8]"
N       -1.60748884      -0.25906237      -0.02106769
C       -0.22897557      -0.22540075       0.12432469
N        0.56042023      -1.31263339       0.28065563
O        1.79477849      -0.97974242       0.22028605
N        1.76362382       0.94662382      -0.13764464
C        0.53476378       0.92876967       0.04619132
H       -2.04895969      -0.97654579       0.53232848
H       -1.92132449      -0.26552469      -0.97824466
H        1.15316226       2.14351592      -0.06682919
9
Frame=15 idx=005527 GeodesicLength=0.5864636076704303 rxn_smarts="[N:1]([c:2]1[n:3][o:4][n:5][c:6]1[H:9])([H:7])[H:8]>>[N:1]([C:2]([N:3]=[O:4])=[C:6]=[N:5][H:9])([H:7])[H:8]"
N       -1.60394658      -0.25903888      -0.01604930
C       -0.22555783      -0.22856161       0.13190886
N        0.55917280      -1.32163529       0.28934141
O        1.79429904      -0.97486835       0.22371058
N        1.76075190       0.94052622      -0.14355595
C        0.53297866       0.92567396       0.05560950
H       -2.04527195      -0.99223570       0.51651171
H       -1.91689024      -0.23671321      -0.97319900
H        1.14446421       2.14685285      -0.08427782
9
Frame=16 idx=005527 GeodesicLength=0.6256149880574495 rxn_smarts="[N:1]([c:2]1[n:3][o:4][n:5][c:6]1[H:9])([H:7])[H:8]>>[N:1]([C:2]([N:3]=[O:4])=[C:6]=[N:5][H:9])([H:7])[H:8]"
N       -1.60041716      -0.25907878      -0.01125105
C       -0.22208597      -0.23169402       0.13852812
N        0.55794576      -1.33050667       0.29783507
O        1.79377405      -0.96993399       0.22773667
N        1.75802922       0.93439938      -0.14953201
C        0.53124452       0.92256933       0.06329389
H       -2.04130029      -1.00698999       0.50087350
H       -1.91293783      -0.20884495      -0.96740873
H        1.13574770       2.15007968      -0.10007546
