16
Frame=0 idx=010308 GeodesicLength=0.0 rxn_smarts="[C:1]([N:2]1[C@:3]2([H:11])[C:4]([H:12])([H:13])[C@@:5]1([H:14])[C:6]([H:15])=[C:7]2[H:16])([H:8])([H:9])[H:10]>>[C:1]([N:2]1[C:3]([H:11])=[C:7]([H:16])[C@@:6]2([H:15])[C:4]([H:12])([H:13])[C@@:5]12[H:14])([H:8])([H:9])[H:10]"
C        1.94169584      -0.54088495      -0.02663078
N        0.88445081       0.45799663       0.07773276
C        0.00719111       0.23605965       1.19853424
C       -1.15693925       1.46036526      -0.44420173
C       -0.19897056       0.37617606      -0.89306282
C       -1.07881141      -0.76167133      -0.47296407
C       -0.96307019      -0.74279084       0.89731696
H        1.56455010      -1.57007849      -0.11012169
H        2.56124943      -0.31663669      -0.89657685
H        2.57219204      -0.47854044       0.86203202
H        0.34871613       0.48286379       2.19750185
H       -1.21234974       2.37266057      -1.04426034
H       -2.06517053       1.20425664       0.07160205
H        0.11696676       0.42214419      -1.93557687
H       -1.73661765      -1.34581486      -1.09801791
H       -1.58508293      -1.25610524       1.61669314
16
Frame=1 idx=010308 GeodesicLength=0.051445231424432435 rxn_smarts="[C:1]([N:2]1[C@:3]2([H:11])[C:4]([H:12])([H:13])[C@@:5]1([H:14])[C:6]([H:15])=[C:7]2[H:16])([H:8])([H:9])[H:10]>>[C:1]([N:2]1[C:3]([H:11])=[C:7]([H:16])[C@@:6]2([H:15])[C:4]([H:12])([H:13])[C@@:5]12[H:14])([H:8])([H:9])[H:10]"
C        1.94488554      -0.54002096      -0.02487772
N        0.88443447       0.45448309       0.07564518
C        0.00126964       0.24266212       1.19341340
C       -1.15629740       1.44667976      -0.44001527
C       -0.19436306       0.37192526      -0.90008377
C       -1.09245020      -0.75084087      -0.47507009
C       -0.96271076      -0.74569588       0.89555779
H        1.57133790      -1.57018053      -0.11228066
H        2.56758226      -0.31242645      -0.89171652
H        2.57114722      -0.47702852       0.86669777
H        0.34393720       0.48985137       2.19202140
H       -1.20928030       2.35820901      -1.04084452
H       -2.06611560       1.21968557       0.08693230
H        0.12228324       0.41615234      -1.94197276
H       -1.74796439      -1.33804249      -1.09965774
H       -1.57769573      -1.26541283       1.61625121
16
Frame=2 idx=010308 GeodesicLength=0.10289310116058804 rxn_smarts="[C:1]([N:2]1[C@:3]2([H:11])[C:4]([H:12])([H:13])[C@@:5]1([H:14])[C:6]([H:15])=[C:7]2[H:16])([H:8])([H:9])[H:10]>>[C:1]([N:2]1[C:3]([H:11])=[C:7]([H:16])[C@@:6]2([H:15])[C:4]([H:12])([H:13])[C@@:5]12[H:14])([H:8])([H:9])[H:10]"
C        1.94811769      -0.53894224      -0.02319008
N        0.88420638       0.45085595       0.07362703
C       -0.00467414       0.24886795       1.18835507
C       -1.15573459       1.43298324      -0.43591459
C       -0.19004418       0.36741642      -0.90693855
C       -1.10602936      -0.74018435      -0.47702562
C       -0.96249376      -0.74874570       0.89373925
H        1.57849319      -1.57016252      -0.11442783
H        2.57375373      -0.30779871      -0.88697872
H        2.57022859      -0.47512999       0.87119773
H        0.33908515       0.49643658       2.18661745
H       -1.20586257       2.34382835      -1.03743001
H       -2.06627127       1.23564332       0.10211184
H        0.12733245       0.40977349      -1.94820879
H       -1.75930895      -1.33037325      -1.10115061
H       -1.57079837      -1.27446854       1.61561643
16
Frame=3 idx=010308 GeodesicLength=0.15433461107461266 rxn_smarts="[C:1]([N:2]1[C@:3]2([H:11])[C:4]([H:12])([H:13])[C@@:5]1([H:14])[C:6]([H:15])=[C:7]2[H:16])([H:8])([H:9])[H:10]>>[C:1]([N:2]1[C:3]([H:11])=[C:7]([H:16])[C@@:6]2([H:15])[C:4]([H:12])([H:13])[C@@:5]12[H:14])([H:8])([H:9])[H:10]"
C        1.95138898      -0.53765271      -0.02157182
N        0.88377470       0.44711743       0.07168170
C       -0.01063669       0.25468420       1.18336919
C       -1.15524989       1.41929365      -0.43186819
C       -0.18601387       0.36266704      -0.91361828
C       -1.11952854      -0.72971398      -0.47883439
C       -0.96242329      -0.75193508       0.89186788
H        1.58600698      -1.57002595      -0.11654197
H        2.57974051      -0.30278218      -0.88238919
H        2.56945091      -0.47284055       0.87551678
H        0.33417632       0.50260782       2.18130099
H       -1.20211129       2.32952652      -1.03399720
H       -2.06563869       1.25208168       0.11706250
H        0.13211182       0.40304310      -1.95427516
H       -1.77062430      -1.32282065      -1.10250782
H       -1.56442365      -1.28325037       1.61480497
16
Frame=4 idx=010308 GeodesicLength=0.2057795229572726 rxn_smarts="[C:1]([N:2]1[C@:3]2([H:11])[C:4]([H:12])([H:13])[C@@:5]1([H:14])[C:6]([H:15])=[C:7]2[H:16])([H:8])([H:9])[H:10]>>[C:1]([N:2]1[C:3]([H:11])=[C:7]([H:16])[C@@:6]2([H:15])[C:4]([H:12])([H:13])[C@@:5]12[H:14])([H:8])([H:9])[H:10]"
C        1.95469887      -0.53615389      -0.02001809
N        0.88314399       0.44326534       0.06980562
C       -0.01662124       0.26012174       1.17845850
C       -1.15483358       1.40562903      -0.42786463
C       -0.18227075       0.35768167      -0.92012498
C       -1.13294892      -0.71943870      -0.48050096
C       -0.96250622      -0.75525886       0.88994742
H        1.59387571      -1.56976741      -0.11863267
H        2.58555609      -0.29736586      -0.87793106
H        2.56880208      -0.47017488       0.87967062
H        0.32920018       0.50839249       2.17607371
H       -1.19803107       2.31529702      -1.03056500
H       -2.06419882       1.26898399       0.13174422
H        0.13662539       0.39596031      -1.96017414
H       -1.78197841      -1.31533402      -1.10372097
H       -1.55851329      -1.29183797       1.61383239
16
Frame=5 idx=010308 GeodesicLength=0.2572189648651193 rxn_smarts="[C:1]([N:2]1[C@:3]2([H:11])[C:4]([H:12])([H:13])[C@@:5]1([H:14])[C:6]([H:15])=[C:7]2[H:16])([H:8])([H:9])[H:10]>>[C:1]([N:2]1[C:3]([H:11])=[C:7]([H:16])[C@@:6]2([H:15])[C:4]([H:12])([H:13])[C@@:5]12[H:14])([H:8])([H:9])[H:10]"
C        1.95804557      -0.53444828      -0.01853235
N        0.88232296       0.43930123       0.06800339
C       -0.02262284       0.26518672       1.17362991
C       -1.15448807       1.39199927      -0.42387664
C       -0.17881226       0.35247730      -0.92644973
C       -1.14626963      -0.70936631      -0.48202907
C       -0.96274049      -0.75871444       0.88798296
H        1.60209122      -1.56938452      -0.12068190
H        2.59117835      -0.29157422      -0.87362702
H        2.56829692      -0.46712936       0.88364506
H        0.32417988       0.51376762       2.17094252
H       -1.19363869       2.30114278      -1.02710973
H       -2.06195759       1.28629491       0.14608722
H        0.14087095       0.38855672      -1.96589410
H       -1.79334300      -1.30792471      -1.10480224
H       -1.55311326      -1.30018472       1.61271171
16
Frame=6 idx=010308 GeodesicLength=0.3086636628067177 rxn_smarts="[C:1]([N:2]1[C@:3]2([H:11])[C:4]([H:12])([H:13])[C@@:5]1([H:14])[C:6]([H:15])=[C:7]2[H:16])([H:8])([H:9])[H:10]>>[C:1]([N:2]1[C:3]([H:11])=[C:7]([H:16])[C@@:6]2([H:15])[C:4]([H:12])([H:13])[C@@:5]12[H:14])([H:8])([H:9])[H:10]"
C        1.96142288      -0.53253855      -0.01710685
N        0.88131431       0.43522381       0.06627031
C       -0.02864746       0.26989527       1.16888447
C       -1.15420405       1.37842044      -0.41990344
C       -0.17563521       0.34705827      -0.93259890
C       -1.15949908      -0.69949989      -0.48342354
C       -0.96313428      -0.76229215       0.88597913
H        1.61064110      -1.56887352      -0.12269048
H        2.59661434      -0.28540334      -0.86945907
H        2.56791621      -0.46371312       0.88745915
H        0.31910340       0.51876612       2.16590759
H       -1.18892706       2.28706491      -1.02364675
H       -2.05890314       1.30400469       0.16006047
H        0.14485668       0.38082558      -1.97144236
H       -1.80478608      -1.30053948      -1.10574540
H       -1.54813257      -1.30839905       1.61145569
16
Frame=7 idx=010308 GeodesicLength=0.360103301058289 rxn_smarts="[C:1]([N:2]1[C@:3]2([H:11])[C:4]([H:12])([H:13])[C@@:5]1([H:14])[C:6]([H:15])=[C:7]2[H:16])([H:8])([H:9])[H:10]>>[C:1]([N:2]1[C:3]([H:11])=[C:7]([H:16])[C@@:6]2([H:15])[C:4]([H:12])([H:13])[C@@:5]12[H:14])([H:8])([H:9])[H:10]"
C        1.96483533      -0.53042548      -0.01574806
N        0.88012958       0.43103283       0.06461335
C       -0.03468703       0.27424707       1.16422994
C       -1.15398337       1.36489810      -0.41591560
C       -0.17273283       0.34144083      -0.93856224
C       -1.17261635      -0.68984634      -0.48468754
C       -0.96368007      -0.76599784       0.88394092
H        1.61952671      -1.56823057      -0.12465598
H        2.60185252      -0.27886802      -0.86544782
H        2.56768026      -0.45992920       0.89109631
H        0.31399107       0.52336103       2.16097777
H       -1.18392184       2.27305641      -1.02015810
H       -2.05504509       1.32205343       0.17360708
H        0.14858135       0.37279965      -1.97680656
H       -1.81627974      -1.29319230      -1.10655999
H       -1.54365052      -1.31639960       1.61007652
16
Frame=8 idx=010308 GeodesicLength=0.4115482355625185 rxn_smarts="[C:1]([N:2]1[C@:3]2([H:11])[C:4]([H:12])([H:13])[C@@:5]1([H:14])[C:6]([H:15])=[C:7]2[H:16])([H:8])([H:9])[H:10]>>[C:1]([N:2]1[C:3]([H:11])=[C:7]([H:16])[C@@:6]2([H:15])[C:4]([H:12])([H:13])[C@@:5]12[H:14])([H:8])([H:9])[H:10]"
C        1.96827964      -0.52811191      -0.01444921
N        0.87877326       0.42672828       0.06303078
C       -0.04074741       0.27825738       1.15966943
C       -1.15381794       1.35144700      -0.41191053
C       -0.17010019       0.33563120      -0.94434481
C       -1.18563219      -0.68040317      -0.48582546
C       -0.96438544      -0.76982456       0.88187301
H        1.62873755      -1.56745295      -0.12658604
H        2.60690273      -0.27196078      -0.86157657
H        2.56757294      -0.45579083       0.89457500
H        0.30883391       0.52757844       2.15615636
H       -1.17862902       2.25910686      -1.01667146
H       -2.05036674       1.34043265       0.18671089
H        0.15205601       0.36447382      -1.98199183
H       -1.82788356      -1.28583613      -1.10724540
H       -1.53959355      -1.32427531       1.60858583
16
Frame=9 idx=010308 GeodesicLength=0.4630065943190105 rxn_smarts="[C:1]([N:2]1[C@:3]2([H:11])[C:4]([H:12])([H:13])[C@@:5]1([H:14])[C:6]([H:15])=[C:7]2[H:16])([H:8])([H:9])[H:10]>>[C:1]([N:2]1[C:3]([H:11])=[C:7]([H:16])[C@@:6]2([H:15])[C:4]([H:12])([H:13])[C@@:5]12[H:14])([H:8])([H:9])[H:10]"
C        1.97175285      -0.52559774      -0.01320315
N        0.87725021       0.42230843       0.06152387
C       -0.04683178       0.28193799       1.15520535
C       -1.15369870       1.33808037      -0.40788524
C       -0.16773010       0.32963414      -0.94994851
C       -1.19855457      -0.67116401      -0.48684140
C       -0.96525569      -0.77376713       0.87977909
H        1.63826765      -1.56653403      -0.12848245
H        2.61176773      -0.26467817      -0.85783217
H        2.56758195      -0.45130549       0.89791019
H        0.30362637       0.53143369       2.15144630
H       -1.17305784       2.24520424      -1.01321388
H       -2.04485451       1.35913194       0.19935047
H        0.15529120       0.35584154      -1.98699899
H       -1.83965854      -1.27842148      -1.10779864
H       -1.53589623      -1.33210429       1.60698916
16
Frame=10 idx=010308 GeodesicLength=0.5144713928920566 rxn_smarts="[C:1]([N:2]1[C@:3]2([H:11])[C:4]([H:12])([H:13])[C@@:5]1([H:14])[C:6]([H:15])=[C:7]2[H:16])([H:8])([H:9])[H:10]>>[C:1]([N:2]1[C:3]([H:11])=[C:7]([H:16])[C@@:6]2([H:15])[C:4]([H:12])([H:13])[C@@:5]12[H:14])([H:8])([H:9])[H:10]"
C        1.97524878      -0.52288933      -0.01201106
N        0.87556657       0.41777122       0.06009496
C       -0.05293441       0.28529443       1.15083851
C       -1.15362982       1.32480198      -0.40382344
C       -0.16561880       0.32346522      -0.95536887
C       -1.21137377      -0.66212429      -0.48773602
C       -0.96628147      -0.77782119       0.87766135
H        1.64810361      -1.56546917      -0.13034407
H        2.61643265      -0.25703472      -0.85421785
H        2.56770811      -0.44648662       0.90109544
H        0.29838428       0.53491655       2.14684529
H       -1.16722724       2.23134434      -1.00976928
H       -2.03851542       1.37810644       0.21149067
H        0.15828445       0.34692970      -1.99181986
H       -1.85156337      -1.27096160      -1.10822773
H       -1.53258413      -1.33984295       1.60529197
16
Frame=11 idx=010308 GeodesicLength=0.5659352771210406 rxn_smarts="[C:1]([N:2]1[C@:3]2([H:11])[C:4]([H:12])([H:13])[C@@:5]1([H:14])[C:6]([H:15])=[C:7]2[H:16])([H:8])([H:9])[H:10]>>[C:1]([N:2]1[C:3]([H:11])=[C:7]([H:16])[C@@:6]2([H:15])[C:4]([H:12])([H:13])[C@@:5]12[H:14])([H:8])([H:9])[H:10]"
C        1.97876655      -0.51999197      -0.01088141
N        0.87373606       0.41312299       0.05874982
C       -0.05905402       0.28834096       1.14658300
C       -1.15360963       1.31162318      -0.39970589
C       -0.16375429       0.31714406      -0.96060421
C       -1.22408546      -0.65328433      -0.48851324
C       -0.96746719      -0.78198585       0.87553128
H        1.65822936      -1.56426166      -0.13217830
H        2.62089342      -0.24904987      -0.85075665
H        2.56795749      -0.44134351       0.90412205
H        0.29311931       0.53802761       2.14237312
H       -1.16115062       2.21753066      -1.00632867
H       -2.03136897       1.39730970       0.22310059
H        0.16104842       0.33776935      -1.99645699
H       -1.86356273      -1.26348821      -1.10855030
H       -1.52969770      -1.34746310       1.60351581
16
Frame=12 idx=010308 GeodesicLength=0.6173901596864962 rxn_smarts="[C:1]([N:2]1[C@:3]2([H:11])[C:4]([H:12])([H:13])[C@@:5]1([H:14])[C:6]([H:15])=[C:7]2[H:16])([H:8])([H:9])[H:10]>>[C:1]([N:2]1[C:3]([H:11])=[C:7]([H:16])[C@@:6]2([H:15])[C:4]([H:12])([H:13])[C@@:5]12[H:14])([H:8])([H:9])[H:10]"
C        1.98229258      -0.51691377      -0.00981168
N        0.87176247       0.40836114       0.05749091
C       -0.06518293       0.29108344       1.14243430
C       -1.15364177       1.29854659      -0.39552377
C       -0.16213188       0.31068952      -0.96564883
C       -1.23667738      -0.64463159      -0.48917394
C       -0.96879677      -0.78625303       0.87338806
H        1.66862555      -1.56290433      -0.13397671
H        2.62512376      -0.24074630      -0.84744711
H        2.56832142      -0.43589612       0.90698610
H        0.28784878       0.54075358       2.13801967
H       -1.15485596       2.20375350      -1.00288777
H       -2.02342384       1.41669832       0.23415771
H        0.16358076       0.32839453      -2.00089719
H       -1.87560356      -1.25600797      -1.10877364
H       -1.52724126      -1.35492750       1.60166388
16
Frame=13 idx=010308 GeodesicLength=0.6688296430818882 rxn_smarts="[C:1]([N:2]1[C@:3]2([H:11])[C:4]([H:12])([H:13])[C@@:5]1([H:14])[C:6]([H:15])=[C:7]2[H:16])([H:8])([H:9])[H:10]>>[C:1]([N:2]1[C:3]([H:11])=[C:7]([H:16])[C@@:6]2([H:15])[C:4]([H:12])([H:13])[C@@:5]12[H:14])([H:8])([H:9])[H:10]"
C        1.98584514      -0.51365711      -0.00881625
N        0.86966670       0.40349872       0.05631886
C       -0.07133419       0.29354623       1.13841668
C       -1.15372116       1.28559647      -0.39126104
C       -0.16073058       0.30411044      -0.97051584
C       -1.24916833      -0.63617960      -0.48972338
C       -0.97030136      -0.79063323       0.87125181
H        1.67929153      -1.56141542      -0.13576885
H        2.62916645      -0.23212384      -0.84431675
H        2.56881195      -0.43014370       0.90968823
H        0.28255638       0.54313036       2.13382432
H       -1.14833898       2.19003450      -0.99945197
H       -2.01469928       1.43626053       0.24466697
H        0.16591988       0.31880748      -2.00517154
H       -1.88771511      -1.24855266      -1.10891348
H       -1.52524906      -1.36227917       1.59977224
16
Frame=14 idx=010308 GeodesicLength=0.7202694593186094 rxn_smarts="[C:1]([N:2]1[C@:3]2([H:11])[C:4]([H:12])([H:13])[C@@:5]1([H:14])[C:6]([H:15])=[C:7]2[H:16])([H:8])([H:9])[H:10]>>[C:1]([N:2]1[C:3]([H:11])=[C:7]([H:16])[C@@:6]2([H:15])[C:4]([H:12])([H:13])[C@@:5]12[H:14])([H:8])([H:9])[H:10]"
C        1.98937643      -0.51022960      -0.00786071
N        0.86742891       0.39850696       0.05524565
C       -0.07747487       0.29571015       1.13449262
C       -1.15384295       1.27274726      -0.38692242
C       -0.15956969       0.29742648      -0.97517448
C       -1.26152504      -0.62786538      -0.49015938
C       -0.97191191      -0.79508793       0.86909110
H        1.69019284      -1.55974366      -0.13751385
H        2.63292595      -0.22320585      -0.84129913
H        2.56939198      -0.42412542       0.91223918
H        0.27729447       0.54510410       2.12971797
H       -1.14165028       2.17630110      -0.99602704
H       -2.00517463       1.45589591       0.25454033
H        0.16800471       0.30903900      -2.00920805
H       -1.89985901      -1.24101241      -1.10895015
H       -1.52360691      -1.36946072       1.59778835
16
Frame=15 idx=010308 GeodesicLength=0.7716992678736121 rxn_smarts="[C:1]([N:2]1[C@:3]2([H:11])[C:4]([H:12])([H:13])[C@@:5]1([H:14])[C:6]([H:15])=[C:7]2[H:16])([H:8])([H:9])[H:10]>>[C:1]([N:2]1[C:3]([H:11])=[C:7]([H:16])[C@@:6]2([H:15])[C:4]([H:12])([H:13])[C@@:5]12[H:14])([H:8])([H:9])[H:10]"
C        1.99292634      -0.50662834      -0.00697002
N        0.86507699       0.39340960       0.05426171
C       -0.08363847       0.29761006       1.13070104
C       -1.15400034       1.26003985      -0.38249863
C       -0.15861647       0.29063124      -0.97965915
C       -1.27379630      -0.61972615      -0.49048635
C       -0.97369744      -0.79964613       0.86694093
H        1.70134751      -1.55792835      -0.13926539
H        2.63649820      -0.21396581      -0.83843626
H        2.57007785      -0.41782326       0.91464706
H        0.27200654       0.54674274       2.12577086
H       -1.13476694       2.16260078      -0.99264743
H       -1.99485351       1.47566891       0.26385500
H        0.16990786       0.29905745      -2.01307918
H       -1.91211186      -1.23344446      -1.10890241
H       -1.52235997      -1.37659813       1.59576823
16
Frame=16 idx=010308 GeodesicLength=0.8231406532622138 rxn_smarts="[C:1]([N:2]1[C@:3]2([H:11])[C:4]([H:12])([H:13])[C@@:5]1([H:14])[C:6]([H:15])=[C:7]2[H:16])([H:8])([H:9])[H:10]>>[C:1]([N:2]1[C:3]([H:11])=[C:7]([H:16])[C@@:6]2([H:15])[C:4]([H:12])([H:13])[C@@:5]12[H:14])([H:8])([H:9])[H:10]"
C        1.99647893      -0.50285003      -0.00612587
N        0.86260253       0.38818955       0.05337108
C       -0.08981705       0.29923953       1.12702825
C       -1.15418485       1.24746520      -0.37799614
C       -0.15787671       0.28372123      -0.98396268
C       -1.28598677      -0.61173088      -0.49070391
C       -0.97563823      -0.80429569       0.86478878
H        1.71275013      -1.55594107      -0.14101715
H        2.63985587      -0.20438774      -0.83568541
H        2.57084940      -0.41124245       0.91692770
H        0.26670478       0.54803378       2.12195799
H       -1.12769334       2.14889757      -0.98932950
H       -1.98370508       1.49554763       0.27257955
H        0.17160790       0.28884315      -2.01676268
H       -1.92451824      -1.22576760      -1.10875616
H       -1.52142925      -1.38372218       1.59368613
