15
Frame=0 idx=008908 GeodesicLength=0.0 rxn_smarts="[C:1]([n:2]1[c:3]([H:11])[c:4]([H:12])[c:5]([H:13])[c:6]1[N:7]([H:14])[H:15])([H:8])([H:9])[H:10]>>[C:1]([N:2]1[C+:3]([H:11])[C:4]([H:12])([H:13])[C-:5]=[C:6]1[N:7]([H:14])[H:15])([H:8])([H:9])[H:10]"
C       -1.28413532      -1.24935053       0.32124748
N       -0.09022028      -0.43787230       0.17353774
C        1.15978873      -0.87918759       0.29355052
C        2.00417142       0.20603784      -0.04959004
C        1.17244969       1.44241037      -0.28646273
C       -0.09827339       0.90023070      -0.18025160
N       -1.35216455       1.50167834      -0.41152055
H       -1.97453637      -1.00506848      -0.48424896
H       -1.01616300      -2.30281956       0.28079601
H       -1.77147136      -1.03838120       1.27372615
H        1.37623292      -1.89104576       0.59948559
H        3.06830765       0.22125316       0.14108844
H        1.84122484       0.43576421      -1.18611538
H       -1.83546917       1.74166632       0.44510380
H       -1.19974180       2.35468447      -0.93034648
15
Frame=1 idx=008908 GeodesicLength=0.060690405360932266 rxn_smarts="[C:1]([n:2]1[c:3]([H:11])[c:4]([H:12])[c:5]([H:13])[c:6]1[N:7]([H:14])[H:15])([H:8])([H:9])[H:10]>>[C:1]([N:2]1[C+:3]([H:11])[C:4]([H:12])([H:13])[C-:5]=[C:6]1[N:7]([H:14])[H:15])([H:8])([H:9])[H:10]"
C       -1.28605007      -1.25114456       0.32792863
N       -0.09166310      -0.44325769       0.16772835
C        1.15844818      -0.88614432       0.27733487
C        2.00406386       0.20384327      -0.04821986
C        1.17157750       1.43683136      -0.27795226
C       -0.09950549       0.89862531      -0.17923353
N       -1.35361756       1.49994124      -0.41060200
H       -1.98246892      -1.00814018      -0.47274985
H       -1.02148419      -2.30558456       0.28856179
H       -1.76546524      -1.03558601       1.28340039
H        1.37534650      -1.90035079       0.57547663
H        3.06304866       0.22307442       0.16965573
H        1.85965149       0.46732084      -1.19580986
H       -1.82556437       1.76070244       0.44614746
H       -1.20631724       2.33986923      -0.95166649
15
Frame=2 idx=008908 GeodesicLength=0.12126761285213888 rxn_smarts="[C:1]([n:2]1[c:3]([H:11])[c:4]([H:12])[c:5]([H:13])[c:6]1[N:7]([H:14])[H:15])([H:8])([H:9])[H:10]>>[C:1]([N:2]1[C+:3]([H:11])[C:4]([H:12])([H:13])[C-:5]=[C:6]1[N:7]([H:14])[H:15])([H:8])([H:9])[H:10]"
C       -1.28783300      -1.25289961       0.33468429
N       -0.09315672      -0.44848877       0.16235540
C        1.15700825      -0.89287458       0.26125742
C        2.00391674       0.20139702      -0.04719220
C        1.17075221       1.43102800      -0.26976973
C       -0.10069955       0.89704050      -0.17807045
N       -1.35497600       1.49822917      -0.40970828
H       -1.99007470      -1.01120906      -0.46124680
H       -1.02652080      -2.30823590       0.29645583
H       -1.75952920      -1.03285525       1.29296886
H        1.37429838      -1.90943346       0.55133289
H        3.05705791       0.22403678       0.19770505
H        1.87831439       0.49990561      -1.20474723
H       -1.81560324       1.77977033       0.44648278
H       -1.21295468       2.32458922      -0.97250783
15
Frame=3 idx=008908 GeodesicLength=0.1818341006350106 rxn_smarts="[C:1]([n:2]1[c:3]([H:11])[c:4]([H:12])[c:5]([H:13])[c:6]1[N:7]([H:14])[H:15])([H:8])([H:9])[H:10]>>[C:1]([N:2]1[C+:3]([H:11])[C:4]([H:12])([H:13])[C-:5]=[C:6]1[N:7]([H:14])[H:15])([H:8])([H:9])[H:10]"
C       -1.28949608      -1.25466420       0.34147129
N       -0.09469126      -0.45357641       0.15745280
C        1.15548745      -0.89941056       0.24537506
C        2.00376331       0.19868592      -0.04656391
C        1.16999268       1.42503596      -0.26194797
C       -0.10185745       0.89551597      -0.17673680
N       -1.35626697       1.49660399      -0.40882559
H       -1.99736763      -1.01430287      -0.44983318
H       -1.03126978      -2.31085748       0.30442401
H       -1.75369848      -1.03024812       1.30239844
H        1.37310777      -1.91828678       0.52735268
H        3.05043227       0.22409258       0.22509048
H        1.89714720       0.53353487      -1.21294089
H       -1.80558730       1.79892392       0.44615060
H       -1.21969574       2.30895323      -0.99286701
15
Frame=4 idx=008908 GeodesicLength=0.24237178851850225 rxn_smarts="[C:1]([n:2]1[c:3]([H:11])[c:4]([H:12])[c:5]([H:13])[c:6]1[N:7]([H:14])[H:15])([H:8])([H:9])[H:10]>>[C:1]([N:2]1[C+:3]([H:11])[C:4]([H:12])([H:13])[C-:5]=[C:6]1[N:7]([H:14])[H:15])([H:8])([H:9])[H:10]"
C       -1.29105337      -1.25642360       0.34833264
N       -0.09626669      -0.45853737       0.15298622
C        1.15387008      -0.90576420       0.22966523
C        2.00360150       0.19572268      -0.04631474
C        1.16929707       1.41885226      -0.25444991
C       -0.10297706       0.89402661      -0.17526385
N       -1.35748017       1.49502889      -0.40798926
H       -2.00438156      -1.01742177      -0.43844211
H       -1.03576544      -2.31342989       0.31252342
H       -1.74795564      -1.02772014       1.31174597
H        1.37175117      -1.92695782       0.50334366
H        3.04317669       0.22327147       0.25182312
H        1.91621501       0.56830309      -1.22027460
H       -1.79551150       1.81813405       0.44510584
H       -1.22652007       2.29291573      -1.01279163
15
Frame=5 idx=008908 GeodesicLength=0.30288435257245216 rxn_smarts="[C:1]([n:2]1[c:3]([H:11])[c:4]([H:12])[c:5]([H:13])[c:6]1[N:7]([H:14])[H:15])([H:8])([H:9])[H:10]>>[C:1]([N:2]1[C+:3]([H:11])[C:4]([H:12])([H:13])[C-:5]=[C:6]1[N:7]([H:14])[H:15])([H:8])([H:9])[H:10]"
C       -1.29251609      -1.25817921       0.35527595
N       -0.09788042      -0.46338391       0.14894527
C        1.15215017      -0.91194539       0.21415225
C        2.00343607       0.19251035      -0.04645192
C        1.16866697       1.41247614      -0.24729053
C       -0.10405759       0.89256275      -0.17367294
N       -1.35861698       1.49349636      -0.40720199
H       -2.01113378      -1.02056950      -0.42706673
H       -1.04002533      -2.31595780       0.32076738
H       -1.74230777      -1.02525788       1.32102450
H        1.37021511      -1.93546622       0.47927549
H        3.03532047       0.22159062       0.27785996
H        1.93554282       0.60425760      -1.22666201
H       -1.78535599       1.83740160       0.44334870
H       -1.23343766       2.27646450      -1.03230338
15
Frame=6 idx=008908 GeodesicLength=0.36335462520821626 rxn_smarts="[C:1]([n:2]1[c:3]([H:11])[c:4]([H:12])[c:5]([H:13])[c:6]1[N:7]([H:14])[H:15])([H:8])([H:9])[H:10]>>[C:1]([N:2]1[C+:3]([H:11])[C:4]([H:12])([H:13])[C-:5]=[C:6]1[N:7]([H:14])[H:15])([H:8])([H:9])[H:10]"
C       -1.29389589      -1.25991997       0.36235752
N       -0.09953303      -0.46812861       0.14530529
C        1.15031885      -0.91797060       0.19881863
C        2.00326891       0.18905641      -0.04693356
C        1.16809962       1.40590820      -0.24042928
C       -0.10510115       0.89111153      -0.17198238
N       -1.35967813       1.49198117      -0.40651422
H       -2.01766546      -1.02375307      -0.41563061
H       -1.04407841      -2.31843377       0.32923239
H       -1.73672737      -1.02281380       1.33030361
H        1.36847981      -1.94388994       0.45487503
H        3.02689451       0.21907341       0.30320064
H        1.95519136       0.64149801      -1.23193073
H       -1.77512905       1.85672861       0.44080429
H       -1.24044458       2.25955242      -1.05147662
15
Frame=7 idx=008908 GeodesicLength=0.423786690901999 rxn_smarts="[C:1]([n:2]1[c:3]([H:11])[c:4]([H:12])[c:5]([H:13])[c:6]1[N:7]([H:14])[H:15])([H:8])([H:9])[H:10]>>[C:1]([N:2]1[C+:3]([H:11])[C:4]([H:12])([H:13])[C-:5]=[C:6]1[N:7]([H:14])[H:15])([H:8])([H:9])[H:10]"
C       -1.29520514      -1.26170127       0.36926230
N       -0.10120627      -0.47273283       0.14220925
C        1.14839286      -0.92375784       0.18409663
C        2.00312191       0.18532304      -0.04801997
C        1.16762903       1.39908759      -0.23431924
C       -0.10608658       0.88969435      -0.17016176
N       -1.36066571       1.49056809      -0.40561340
H       -2.02379062      -1.02695864      -0.40462128
H       -1.04786543      -2.32089553       0.33753826
H       -1.73151558      -1.02057284       1.33917534
H        1.36656230      -1.95189352       0.43155279
H        3.01802341       0.21577155       0.32732323
H        1.97493118       0.67962975      -1.23638878
H       -1.76467690       1.87608966       0.43790053
H       -1.24764845       2.24234844      -1.06993390
15
Frame=8 idx=008908 GeodesicLength=0.4841651914905384 rxn_smarts="[C:1]([n:2]1[c:3]([H:11])[c:4]([H:12])[c:5]([H:13])[c:6]1[N:7]([H:14])[H:15])([H:8])([H:9])[H:10]>>[C:1]([N:2]1[C+:3]([H:11])[C:4]([H:12])([H:13])[C-:5]=[C:6]1[N:7]([H:14])[H:15])([H:8])([H:9])[H:10]"
C       -1.29646951      -1.26352942       0.37596284
N       -0.10289522      -0.47721085       0.13964937
C        1.14637291      -0.92933386       0.17004129
C        2.00300317       0.18131160      -0.04973399
C        1.16726118       1.39201248      -0.22899700
C       -0.10700852       0.88830269      -0.16821277
N       -1.36157775       1.48925539      -0.40446725
H       -2.02951766      -1.03019261      -0.39409264
H       -1.05142609      -2.32335527       0.34566342
H       -1.72672633      -1.01852981       1.34761063
H        1.36446498      -1.95949950       0.40945017
H        3.00879941       0.21174702       0.35009248
H        1.99476240       0.71868218      -1.23997719
H       -1.75396263       1.89549721       0.43467060
H       -1.25508032       2.22484274      -1.08765995
15
Frame=9 idx=008908 GeodesicLength=0.5444972575882231 rxn_smarts="[C:1]([n:2]1[c:3]([H:11])[c:4]([H:12])[c:5]([H:13])[c:6]1[N:7]([H:14])[H:15])([H:8])([H:9])[H:10]>>[C:1]([N:2]1[C+:3]([H:11])[C:4]([H:12])([H:13])[C-:5]=[C:6]1[N:7]([H:14])[H:15])([H:8])([H:9])[H:10]"
C       -1.29771268      -1.26540465       0.38244830
N       -0.10459583      -0.48158069       0.13760575
C        1.14426077      -0.93472824       0.15669186
C        2.00291799       0.17702187      -0.05209894
C        1.16699833       1.38468020      -0.22449532
C       -0.10786283       0.88692134      -0.16615885
N       -1.36241294       1.48803869      -0.40305723
H       -2.03486714      -1.03345881      -0.38407035
H       -1.05480263      -2.32581870       0.35360756
H       -1.72239106      -1.01666530       1.35560165
H        1.36219395      -1.96674441       0.38863243
H        2.99928983       0.20705918       0.37143694
H        2.01470700       0.75870245      -1.24263016
H       -1.74294735       1.91495028       0.43113482
H       -1.26277541       2.20702680      -1.10464846
15
Frame=10 idx=008908 GeodesicLength=0.6047933624508257 rxn_smarts="[C:1]([n:2]1[c:3]([H:11])[c:4]([H:12])[c:5]([H:13])[c:6]1[N:7]([H:14])[H:15])([H:8])([H:9])[H:10]>>[C:1]([N:2]1[C+:3]([H:11])[C:4]([H:12])([H:13])[C-:5]=[C:6]1[N:7]([H:14])[H:15])([H:8])([H:9])[H:10]"
C       -1.29896284      -1.26731825       0.38876751
N       -0.10631359      -0.48586474       0.13604158
C        1.14205333      -0.93998265       0.14401626
C        2.00288136       0.17245776      -0.05510462
C        1.16684653       1.37709684      -0.22078165
C       -0.10865208       0.88553310      -0.16402771
N       -1.36317971       1.48689791      -0.40142593
H       -2.03990022      -1.03676721      -0.37449081
H       -1.05805085      -2.32828628       0.36143983
H       -1.71849712      -1.01492782       1.36321694
H        1.35974596      -1.97371684       0.36891390
H        2.98955895       0.20175735       0.39135135
H        2.03487059       0.79980752      -1.24420039
H       -1.73164846       1.93444132       0.42723169
H       -1.27075185       2.18887198      -1.12094794
15
Frame=11 idx=008908 GeodesicLength=0.6649298393085482 rxn_smarts="[C:1]([n:2]1[c:3]([H:11])[c:4]([H:12])[c:5]([H:13])[c:6]1[N:7]([H:14])[H:15])([H:8])([H:9])[H:10]>>[C:1]([N:2]1[C+:3]([H:11])[C:4]([H:12])([H:13])[C-:5]=[C:6]1[N:7]([H:14])[H:15])([H:8])([H:9])[H:10]"
C       -1.30022470      -1.26929381       0.39473609
N       -0.10801598      -0.49006052       0.13500233
C        1.13977441      -0.94509407       0.13225773
C        2.00286207       0.16759215      -0.05890114
C        1.16679010       1.36922320      -0.21810979
C       -0.10935115       0.88413074      -0.16184207
N       -1.36384949       1.48588334      -0.39937788
H       -2.04450464      -1.04010552      -0.36564958
H       -1.06116297      -2.33077689       0.36896672
H       -1.71521117      -1.01338514       1.37021960
H        1.35716418      -1.98030415       0.35107765
H        2.97969369       0.19593828       0.40955645
H        2.05499390       0.84182565      -1.24476578
H       -1.71985403       1.95399892       0.42321057
H       -1.27910423       2.17042782      -1.13638089
15
Frame=12 idx=008908 GeodesicLength=0.7251118923927893 rxn_smarts="[C:1]([n:2]1[c:3]([H:11])[c:4]([H:12])[c:5]([H:13])[c:6]1[N:7]([H:14])[H:15])([H:8])([H:9])[H:10]>>[C:1]([N:2]1[C+:3]([H:11])[C:4]([H:12])([H:13])[C-:5]=[C:6]1[N:7]([H:14])[H:15])([H:8])([H:9])[H:10]"
C       -1.30151158      -1.27125189       0.40087912
N       -0.10975841      -0.49424050       0.13427065
C        1.13735889      -0.95020299       0.12073122
C        2.00286712       0.16245817      -0.06318275
C        1.16681161       1.36113123      -0.21586897
C       -0.11000546       0.88267152      -0.15966353
N       -1.36444859       1.48484128      -0.39742990
H       -2.04903171      -1.04349931      -0.35672338
H       -1.06426558      -2.33324019       0.37679483
H       -1.71206590      -1.01175269       1.37729200
H        1.35433956      -1.98697587       0.33297996
H        2.96960108       0.18946533       0.42663839
H        2.07566990       0.88555991      -1.24352364
H       -1.70787390       1.97362173       0.41834184
H       -1.28768702       2.15141426      -1.15153585
15
Frame=13 idx=008908 GeodesicLength=0.785214189169342 rxn_smarts="[C:1]([n:2]1[c:3]([H:11])[c:4]([H:12])[c:5]([H:13])[c:6]1[N:7]([H:14])[H:15])([H:8])([H:9])[H:10]>>[C:1]([N:2]1[C+:3]([H:11])[C:4]([H:12])([H:13])[C-:5]=[C:6]1[N:7]([H:14])[H:15])([H:8])([H:9])[H:10]"
C       -1.30287658      -1.27327816       0.40654444
N       -0.11148421      -0.49835388       0.13405403
C        1.13488619      -0.95520979       0.11030226
C        2.00292426       0.15700284      -0.06842015
C        1.16696273       1.35270344      -0.21494884
C       -0.11055073       0.88116212      -0.15750425
N       -1.36495488       1.48393596      -0.39492587
H       -2.05312704      -1.04693070      -0.34874425
H       -1.06731978      -2.33573165       0.38420888
H       -1.70970121      -1.01030935       1.38358886
H        1.35141096      -1.99322023       0.31740551
H        2.95955981       0.18264006       0.44173901
H        2.09634207       0.93017999      -1.24123756
H       -1.69529351       1.99322550       0.41353729
H       -1.29677807       2.13218385      -1.16559935
15
Frame=14 idx=008908 GeodesicLength=0.8453203684314005 rxn_smarts="[C:1]([n:2]1[c:3]([H:11])[c:4]([H:12])[c:5]([H:13])[c:6]1[N:7]([H:14])[H:15])([H:8])([H:9])[H:10]>>[C:1]([N:2]1[C+:3]([H:11])[C:4]([H:12])([H:13])[C-:5]=[C:6]1[N:7]([H:14])[H:15])([H:8])([H:9])[H:10]"
C       -1.30429704      -1.27531147       0.41221138
N       -0.11322395      -0.50246852       0.13416807
C        1.13230891      -0.96026175       0.10033567
C        2.00300371       0.15123421      -0.07435321
C        1.16719132       1.34400697      -0.21485700
C       -0.11103043       0.87958056      -0.15544267
N       -1.36539490       1.48307159      -0.39232502
H       -2.05707258      -1.05042870      -0.34098609
H       -1.07038859      -2.33823402       0.39178451
H       -1.70766113      -1.00879340       1.38973807
H        1.34829390      -1.99949674       0.30236704
H        2.94944460       0.17530634       0.45541704
H        2.11744410       0.97640369      -1.23703249
H       -1.68232269       2.01291901       0.40814072
H       -1.30629523       2.11247222      -1.17916603
15
Frame=15 idx=008908 GeodesicLength=0.9054066075448737 rxn_smarts="[C:1]([n:2]1[c:3]([H:11])[c:4]([H:12])[c:5]([H:13])[c:6]1[N:7]([H:14])[H:15])([H:8])([H:9])[H:10]>>[C:1]([N:2]1[C+:3]([H:11])[C:4]([H:12])([H:13])[C-:5]=[C:6]1[N:7]([H:14])[H:15])([H:8])([H:9])[H:10]"
C       -1.30574590      -1.27726124       0.41829831
N       -0.11500600      -0.50661493       0.13446943
C        1.12955899      -0.96542849       0.09024493
C        2.00306726       0.14516195      -0.08085672
C        1.16747096       1.33506070      -0.21516930
C       -0.11146261       0.87788834      -0.15351236
N       -1.36574420       1.48210034      -0.39002282
H       -2.06109600      -1.05396354      -0.33275794
H       -1.07352535      -2.34064652       0.39997715
H       -1.70553808      -1.00700048       1.39626415
H        1.34484785      -2.00607217       0.28618472
H        2.93908343       0.16729995       0.46806257
H        2.13928592       1.02487057      -1.22998139
H       -1.66911936       2.03268217       0.40152576
H       -1.31607692       2.09192335      -1.19272648
15
Frame=16 idx=008908 GeodesicLength=0.9654688001137025 rxn_smarts="[C:1]([n:2]1[c:3]([H:11])[c:4]([H:12])[c:5]([H:13])[c:6]1[N:7]([H:14])[H:15])([H:8])([H:9])[H:10]>>[C:1]([N:2]1[C+:3]([H:11])[C:4]([H:12])([H:13])[C-:5]=[C:6]1[N:7]([H:14])[H:15])([H:8])([H:9])[H:10]"
C       -1.30727635      -1.27922372       0.42414168
N       -0.11678636      -0.51077125       0.13504828
C        1.12671272      -0.97064654       0.08082320
C        2.00313282       0.13872372      -0.08835071
C        1.16783085       1.32573351      -0.21689841
C       -0.11179982       0.87606919      -0.15185717
N       -1.36600830       1.48120304      -0.38736910
H       -2.06487718      -1.05754762      -0.32508623
H       -1.07670580      -2.34305202       0.40808187
H       -1.70391615      -1.00517294       1.40233816
H        1.34124763      -2.01246282       0.27178925
H        2.92875255       0.15895467       0.47887291
H        2.16143031       1.07475376      -1.22082451
H       -1.65526323       2.05239975       0.39467000
H       -1.32647370       2.07103927      -1.20537922
