17
Frame=0 idx=008622 GeodesicLength=0.0 rxn_smarts="[C:1]([C@@:2]1([H:11])[C:3]([H:12])([H:13])[C@@:4]2([O:5][H:14])[C:6]([H:15])([H:16])[C@@:7]12[H:17])([H:8])([H:9])[H:10]>>[C:1]([C@@:2]1([H:11])[C:3]([H:12])([H:13])[C@:4]([O:5][H:14])([H:17])[C:6]([H:15])([H:16])[C:7]1)([H:8])([H:9])[H:10]"
C        2.01828617       0.60512127      -0.08907006
C        0.93549994      -0.43255187      -0.36158427
C        0.02163273      -0.81444977       0.83181000
C       -1.25467851      -0.45329010       0.09800532
O       -2.48956518      -0.86775875       0.56330992
C       -1.03359752       0.91643148      -0.47592076
C       -0.12139905       0.09087944      -1.36627791
H        2.75381268       0.20704719       0.61209043
H        1.61441171       1.52284492       0.34246747
H        2.54050732       0.86875546      -1.01056873
H        1.41490267      -1.32045906      -0.77673340
H        0.15889748      -0.23621537       1.74965776
H        0.08214124      -1.87446375       1.07713171
H       -3.10283733      -0.13214130       0.53005121
H       -1.89085282       1.33764294      -0.99834787
H       -0.58030729       1.63064925       0.20816645
H       -1.06685428      -1.04804194      -0.93418725
17
Frame=1 idx=008622 GeodesicLength=0.06286625256287097 rxn_smarts="[C:1]([C@@:2]1([H:11])[C:3]([H:12])([H:13])[C@@:4]2([O:5][H:14])[C:6]([H:15])([H:16])[C@@:7]12[H:17])([H:8])([H:9])[H:10]>>[C:1]([C@@:2]1([H:11])[C:3]([H:12])([H:13])[C@:4]([O:5][H:14])([H:17])[C:6]([H:15])([H:16])[C:7]1)([H:8])([H:9])[H:10]"
C        2.02643171       0.60283038      -0.08197778
C        0.93682806      -0.42524690      -0.35892133
C        0.01811588      -0.81042498       0.82909882
C       -1.25652954      -0.45823490       0.08645468
O       -2.49042925      -0.87513544       0.55377887
C       -1.04260833       0.91421848      -0.48552131
C       -0.11692541       0.09517018      -1.36343331
H        2.75831927       0.19750898       0.61893524
H        1.62671217       1.52143599       0.35171590
H        2.55083802       0.86629049      -1.00226122
H        1.40731881      -1.31518720      -0.78182425
H        0.14792550      -0.22873768       1.74596547
H        0.08455269      -1.86907352       1.07864106
H       -3.08605627      -0.12527463       0.59001642
H       -1.89828255       1.32916216      -1.01519934
H       -0.59672398       1.63440995       0.19768989
H       -1.06948678      -1.05371135      -0.96315781
17
Frame=2 idx=008622 GeodesicLength=0.1257696712174018 rxn_smarts="[C:1]([C@@:2]1([H:11])[C:3]([H:12])([H:13])[C@@:4]2([O:5][H:14])[C:6]([H:15])([H:16])[C@@:7]12[H:17])([H:8])([H:9])[H:10]>>[C:1]([C@@:2]1([H:11])[C:3]([H:12])([H:13])[C@:4]([O:5][H:14])([H:17])[C:6]([H:15])([H:16])[C:7]1)([H:8])([H:9])[H:10]"
C        2.03465686       0.60020470      -0.07512433
C        0.93786014      -0.41783606      -0.35613761
C        0.01455990      -0.80597176       0.82678399
C       -1.25838891      -0.46274242       0.07547786
O       -2.49160484      -0.88123777       0.54484824
C       -1.05172020       0.91235873      -0.49471148
C       -0.11297094       0.09973938      -1.36018477
H        2.76295282       0.18740450       0.62526509
H        1.63961590       1.51980064       0.36092236
H        2.56101549       0.86332136      -0.99436611
H        1.39917548      -1.30983302      -0.78673053
H        0.13720728      -0.22071537       1.74247417
H        0.08665281      -1.86317924       1.08070750
H       -3.06785260      -0.12229401       0.64702789
H       -1.90574785       1.32111288      -1.03150889
H       -0.61307970       1.63850859       0.18739957
H       -1.07233164      -1.05864111      -0.99214293
17
Frame=3 idx=008622 GeodesicLength=0.18866525795954775 rxn_smarts="[C:1]([C@@:2]1([H:11])[C:3]([H:12])([H:13])[C@@:4]2([O:5][H:14])[C:6]([H:15])([H:16])[C@@:7]12[H:17])([H:8])([H:9])[H:10]>>[C:1]([C@@:2]1([H:11])[C:3]([H:12])([H:13])[C@:4]([O:5][H:14])([H:17])[C:6]([H:15])([H:16])[C:7]1)([H:8])([H:9])[H:10]"
C        2.04296129       0.59726061      -0.06851187
C        0.93862782      -0.41031451      -0.35323088
C        0.01098699      -0.80110303       0.82486159
C       -1.26024472      -0.46686469       0.06506577
O       -2.49301352      -0.88627593       0.53646820
C       -1.06092393       0.91079247      -0.50349742
C       -0.10949666       0.10455455      -1.35652833
H        2.76769725       0.17677265       0.63108359
H        1.65310836       1.51793032       0.37007192
H        2.57104435       0.85987702      -0.98687970
H        1.39052080      -1.30437799      -0.79142932
H        0.12674403      -0.21215578       1.73917778
H        0.08850810      -1.85678860       1.08333053
H       -3.04855538      -0.12280362       0.70120881
H       -1.91321186       1.31342990      -1.04732363
H       -0.62939546       1.64289761       0.17729084
H       -1.07535745      -1.06283098      -1.02115788
17
Frame=4 idx=008622 GeodesicLength=0.251558117361993 rxn_smarts="[C:1]([C@@:2]1([H:11])[C:3]([H:12])([H:13])[C@@:4]2([O:5][H:14])[C:6]([H:15])([H:16])[C@@:7]12[H:17])([H:8])([H:9])[H:10]>>[C:1]([C@@:2]1([H:11])[C:3]([H:12])([H:13])[C@:4]([O:5][H:14])([H:17])[C:6]([H:15])([H:16])[C:7]1)([H:8])([H:9])[H:10]"
C        2.05135381       0.59400516      -0.06214039
C        0.93916200      -0.40268407      -0.35020211
C        0.00742322      -0.79582722       0.82333507
C       -1.26208708      -0.47063539       0.05521392
O       -2.49458786      -0.89041050       0.52864910
C       -1.07022329       0.90948971      -0.51188669
C       -0.10648058       0.10959361      -1.35247755
H        2.77255550       0.16563170       0.63639944
H        1.66718688       1.51582175       0.37916115
H        2.58093113       0.85597435      -0.97980324
H        1.38139713      -1.29882262      -0.79591140
H        0.11654782      -0.20305578       1.73608351
H        0.09018359      -1.84991208       1.08651917
H       -3.02845954      -0.12652357       0.75260740
H       -1.92066492       1.30607908      -1.06268367
H       -0.64569770       1.64756133       0.16736336
H       -1.07854012      -1.06628546      -1.05022708
17
Frame=5 idx=008622 GeodesicLength=0.31445540552985063 rxn_smarts="[C:1]([C@@:2]1([H:11])[C:3]([H:12])([H:13])[C@@:4]2([O:5][H:14])[C:6]([H:15])([H:16])[C@@:7]12[H:17])([H:8])([H:9])[H:10]>>[C:1]([C@@:2]1([H:11])[C:3]([H:12])([H:13])[C@:4]([O:5][H:14])([H:17])[C:6]([H:15])([H:16])[C:7]1)([H:8])([H:9])[H:10]"
C        2.05982757       0.59045917      -0.05599112
C        0.93949028      -0.39494720      -0.34705365
C        0.00388520      -0.79017612       0.82218970
C       -1.26391070      -0.47412250       0.04588821
O       -2.49628275      -0.89390130       0.52136797
C       -1.07965114       0.90839191      -0.51990165
C       -0.10390505       0.11482835      -1.34805365
H        2.77751799       0.15401665       0.64124077
H        1.68181759       1.51347580       0.38820949
H        2.59067616       0.85165666      -0.97310650
H        1.37185968      -1.29316369      -0.80017359
H        0.10660522      -0.19344102       1.73318419
H        0.09174188      -1.84258246       1.09025410
H       -3.00762032      -0.13288635       0.80136614
H       -1.92813718       1.29898153      -1.07764521
H       -0.66206680       1.65245457       0.15762404
H       -1.08184763      -1.06904399      -1.07939924
17
Frame=6 idx=008622 GeodesicLength=0.3773441111408493 rxn_smarts="[C:1]([C@@:2]1([H:11])[C:3]([H:12])([H:13])[C@@:4]2([O:5][H:14])[C:6]([H:15])([H:16])[C@@:7]12[H:17])([H:8])([H:9])[H:10]>>[C:1]([C@@:2]1([H:11])[C:3]([H:12])([H:13])[C@:4]([O:5][H:14])([H:17])[C:6]([H:15])([H:16])[C:7]1)([H:8])([H:9])[H:10]"
C        2.06838398       0.58661938      -0.05007036
C        0.93963500      -0.38709746      -0.34378641
C        0.00038430      -0.78414077       0.82142551
C       -1.26570221      -0.47733479       0.03708525
O       -2.49805688      -0.89677691       0.51458056
C       -1.08917687       0.90748210      -0.52756213
C       -0.10172764       0.12024516      -1.34326772
H        2.78256465       0.14193204       0.64561076
H        1.69699872       1.51087471       0.39720183
H        2.60028286       0.84692870      -0.96679538
H        1.36193711      -1.28738797      -0.80419432
H        0.09691443      -0.18329807       1.73047559
H        0.09320932      -1.83478399       1.09454490
H       -2.98634307      -0.14186430       0.84765700
H       -1.93557997       1.29211861      -1.09224370
H       -0.67848378       1.65756357       0.14803776
H       -1.08523995      -1.07108002      -1.10869913
17
Frame=7 idx=008622 GeodesicLength=0.44026361211224524 rxn_smarts="[C:1]([C@@:2]1([H:11])[C:3]([H:12])([H:13])[C@@:4]2([O:5][H:14])[C:6]([H:15])([H:16])[C@@:7]12[H:17])([H:8])([H:9])[H:10]>>[C:1]([C@@:2]1([H:11])[C:3]([H:12])([H:13])[C@:4]([O:5][H:14])([H:17])[C:6]([H:15])([H:16])[C:7]1)([H:8])([H:9])[H:10]"
C        2.07703712       0.58249140      -0.04437261
C        0.93961730      -0.37913638      -0.34040131
C       -0.00306545      -0.77772353       0.82104469
C       -1.26746168      -0.48029209       0.02880443
O       -2.49985183      -0.89917145       0.50830001
C       -1.09881953       0.90673973      -0.53487555
C       -0.09994871       0.12582484      -1.33813351
H        2.78772133       0.12938184       0.64951751
H        1.71273470       1.50802059       0.40615121
H        2.60976346       0.84180096      -0.96086738
H        1.35165776      -1.28150296      -0.80797092
H        0.08747783      -0.17261938       1.72796269
H        0.09462674      -1.82651914       1.09939248
H       -2.96478314      -0.15322955       0.89150188
H       -1.94301839       1.28546036      -1.10650119
H       -0.69498358       1.66287904       0.13860800
H       -1.08870395      -1.07240428      -1.13816043
17
Frame=8 idx=008622 GeodesicLength=0.5031794309305713 rxn_smarts="[C:1]([C@@:2]1([H:11])[C:3]([H:12])([H:13])[C@@:4]2([O:5][H:14])[C:6]([H:15])([H:16])[C@@:7]12[H:17])([H:8])([H:9])[H:10]>>[C:1]([C@@:2]1([H:11])[C:3]([H:12])([H:13])[C@:4]([O:5][H:14])([H:17])[C:6]([H:15])([H:16])[C:7]1)([H:8])([H:9])[H:10]"
C        2.08577718       0.57807683      -0.03889784
C        0.93945677      -0.37105788      -0.33689679
C       -0.00645164      -0.77092815       0.82104109
C       -1.26917245      -0.48302113       0.02102876
O       -2.50164432      -0.90115149       0.50248199
C       -1.10856257       0.90613590      -0.54186229
C       -0.09853008       0.13155616      -1.33265901
H        2.79295214       0.11637822       0.65296468
H        1.72901223       1.50488865       0.41504567
H        2.61910972       0.83629176      -0.95531415
H        1.34105104      -1.27549516      -0.81148274
H        0.07828894      -0.16140549       1.72563533
H        0.09602282      -1.81778545       1.10479678
H       -2.94310692      -0.16682990       0.93306775
H       -1.95042555       1.27896645      -1.12044421
H       -0.71157614       1.66837677       0.12930818
H       -1.09220117      -1.07299608      -1.16781319
17
Frame=9 idx=008622 GeodesicLength=0.5661789651249864 rxn_smarts="[C:1]([C@@:2]1([H:11])[C:3]([H:12])([H:13])[C@@:4]2([O:5][H:14])[C:6]([H:15])([H:16])[C@@:7]12[H:17])([H:8])([H:9])[H:10]>>[C:1]([C@@:2]1([H:11])[C:3]([H:12])([H:13])[C@:4]([O:5][H:14])([H:17])[C:6]([H:15])([H:16])[C:7]1)([H:8])([H:9])[H:10]"
C        2.09460720       0.57337981      -0.03361831
C        0.93916800      -0.36286293      -0.33328038
C       -0.00976817      -0.76376711       0.82140130
C       -1.27083646      -0.48555497       0.01373919
O       -2.50340892      -0.90298259       0.49716545
C       -1.11846037       0.90564506      -0.54854249
C       -0.09748229       0.13743418      -1.32687843
H        2.79827365       0.10291766       0.65598793
H        1.74580987       1.50147818       0.42393239
H        2.62832632       0.83042212      -0.95010522
H        1.33014878      -1.26936850      -0.81474824
H        0.06932878      -0.14966571       1.72348549
H        0.09743926      -1.80858927       1.11073458
H       -2.92121897      -0.18219653       0.97238878
H       -1.95787999       1.27259990      -1.13410820
H       -0.72834578       1.67402579       0.12016159
H       -1.09570093      -1.07291509      -1.19771543
17
Frame=10 idx=008622 GeodesicLength=0.6291780688207662 rxn_smarts="[C:1]([C@@:2]1([H:11])[C:3]([H:12])([H:13])[C@@:4]2([O:5][H:14])[C:6]([H:15])([H:16])[C@@:7]12[H:17])([H:8])([H:9])[H:10]>>[C:1]([C@@:2]1([H:11])[C:3]([H:12])([H:13])[C@:4]([O:5][H:14])([H:17])[C:6]([H:15])([H:16])[C:7]1)([H:8])([H:9])[H:10]"
C        2.10352800       0.56840059      -0.02855601
C        0.93876564      -0.35454354      -0.32954550
C       -0.01301033      -0.75622648       0.82213201
C       -1.27244130      -0.48789337       0.00693962
O       -2.50512584      -0.90454569       0.49227981
C       -1.12846364       0.90524842      -0.55492515
C       -0.09676706       0.14343759      -1.32077732
H        2.80366036       0.08901350       0.65856254
H        1.76314085       1.49777076       0.43276867
H        2.63741772       0.82419316      -0.94525670
H        1.31896327      -1.26311439      -0.81772832
H        0.06059709      -0.13737949       1.72150876
H        0.09887257      -1.79891317       1.11722756
H       -2.89939900      -0.19951402       1.00961408
H       -1.96531404       1.26632895      -1.14749353
H       -0.74524547       1.67982261       0.11112107
H       -1.09917879      -1.07208545      -1.22787157
17
Frame=11 idx=008622 GeodesicLength=0.6921909996428748 rxn_smarts="[C:1]([C@@:2]1([H:11])[C:3]([H:12])([H:13])[C@@:4]2([O:5][H:14])[C:6]([H:15])([H:16])[C@@:7]12[H:17])([H:8])([H:9])[H:10]>>[C:1]([C@@:2]1([H:11])[C:3]([H:12])([H:13])[C@:4]([O:5][H:14])([H:17])[C:6]([H:15])([H:16])[C:7]1)([H:8])([H:9])[H:10]"
C        2.11253668       0.56313930      -0.02369912
C        0.93826210      -0.34609646      -0.32569504
C       -0.01617969      -0.74830576       0.82322292
C       -1.27398506      -0.49005482       0.00060744
O       -2.50677372      -0.90591867       0.48779275
C       -1.13858045       0.90492578      -0.56103673
C       -0.09636856       0.14955789      -1.31437636
H        2.80909949       0.07466593       0.66070840
H        1.78099237       1.49375545       0.44156612
H        2.64638803       0.81761288      -0.94075244
H        1.30751718      -1.25673021      -0.82041556
H        0.05207159      -0.12454131       1.71969270
H        0.10033415      -1.78875041       1.12426874
H       -2.87767248      -0.21862918       1.04490924
H       -1.97274011       1.26012256      -1.16062880
H       -0.76230296       1.68574973       0.10216301
H       -1.10259856      -1.07050269      -1.25832727
17
Frame=12 idx=008622 GeodesicLength=0.7552460003662848 rxn_smarts="[C:1]([C@@:2]1([H:11])[C:3]([H:12])([H:13])[C@@:4]2([O:5][H:14])[C:6]([H:15])([H:16])[C@@:7]12[H:17])([H:8])([H:9])[H:10]>>[C:1]([C@@:2]1([H:11])[C:3]([H:12])([H:13])[C@:4]([O:5][H:14])([H:17])[C:6]([H:15])([H:16])[C:7]1)([H:8])([H:9])[H:10]"
C        2.12163074       0.55759548      -0.01904034
C        0.93766743      -0.33751720      -0.32173023
C       -0.01927485      -0.74000273       0.82466811
C       -1.27546345      -0.49205230      -0.00526778
O       -2.50834162      -0.90716837       0.48368970
C       -1.14881583       0.90465978      -0.56689760
C       -0.09627396       0.15578741      -1.30769054
H        2.81457790       0.05987366       0.66243625
H        1.79935627       1.48941983       0.45033030
H        2.65523878       0.81068953      -0.93657989
H        1.29582888      -1.25021403      -0.82280125
H        0.04373727      -0.11114524       1.71802788
H        0.10183515      -1.77809267       1.13185552
H       -2.85607159      -0.23941819       1.07839199
H       -1.98016843       1.25395411      -1.17353423
H       -0.77953929       1.69179119       0.09327027
H       -1.10592338      -1.06816028      -1.28912815
17
Frame=13 idx=008622 GeodesicLength=0.8183168903429853 rxn_smarts="[C:1]([C@@:2]1([H:11])[C:3]([H:12])([H:13])[C@@:4]2([O:5][H:14])[C:6]([H:15])([H:16])[C@@:7]12[H:17])([H:8])([H:9])[H:10]>>[C:1]([C@@:2]1([H:11])[C:3]([H:12])([H:13])[C@:4]([O:5][H:14])([H:17])[C:6]([H:15])([H:16])[C:7]1)([H:8])([H:9])[H:10]"
C        2.13080515       0.55176898      -0.01457784
C        0.93698973      -0.32880197      -0.31765001
C       -0.02229887      -0.73131280       0.82646602
C       -1.27687208      -0.49389704      -0.01069742
O       -2.50983262      -0.90831560       0.47994452
C       -1.15917031       0.90442949      -0.57252211
C       -0.09646957       0.16211583      -1.30072338
H        2.82007579       0.04463829       0.66374712
H        1.81822553       1.48474925       0.45905739
H        2.66397168       0.80342961      -0.93273119
H        1.28391132      -1.24356564      -0.82487089
H        0.03557494      -0.09718111       1.71650648
H        0.10337585      -1.76693108       1.13999330
H       -2.83458716      -0.26182346       1.11015394
H       -1.98759988       1.24778820      -1.18622381
H       -0.79697341       1.69793469       0.08442628
H       -1.10912611      -1.06502563      -1.32029839
17
Frame=14 idx=008622 GeodesicLength=0.8814274698369192 rxn_smarts="[C:1]([C@@:2]1([H:11])[C:3]([H:12])([H:13])[C@@:4]2([O:5][H:14])[C:6]([H:15])([H:16])[C@@:7]12[H:17])([H:8])([H:9])[H:10]>>[C:1]([C@@:2]1([H:11])[C:3]([H:12])([H:13])[C@:4]([O:5][H:14])([H:17])[C:6]([H:15])([H:16])[C:7]1)([H:8])([H:9])[H:10]"
C        2.14005416       0.54565694      -0.01030482
C        0.93623896      -0.31994509      -0.31345687
C       -0.02524602      -0.72223331       0.82860919
C       -1.27820350      -0.49560142      -0.01568934
O       -2.51123149      -0.90943019       0.47657003
C       -1.16964710       0.90422134      -0.57792877
C       -0.09694493       0.16854089      -1.29349279
H        2.82558065       0.02895426       0.66465310
H        1.83759049       1.47972682       0.46775494
H        2.67258120       0.79584108      -0.92919513
H        1.27178197      -1.23678059      -0.82661982
H        0.02757415      -0.08264498       1.71511749
H        0.10497506      -1.75525462       1.14867585
H       -2.81327316      -0.28572285       1.14028467
H       -1.99504754       1.24160811      -1.19871097
H       -0.81461786       1.70416161       0.07561423
H       -1.11216505      -1.06109800      -1.35188098
17
Frame=15 idx=008622 GeodesicLength=0.944561381754592 rxn_smarts="[C:1]([C@@:2]1([H:11])[C:3]([H:12])([H:13])[C@@:4]2([O:5][H:14])[C:6]([H:15])([H:16])[C@@:7]12[H:17])([H:8])([H:9])[H:10]>>[C:1]([C@@:2]1([H:11])[C:3]([H:12])([H:13])[C@:4]([O:5][H:14])([H:17])[C:6]([H:15])([H:16])[C:7]1)([H:8])([H:9])[H:10]"
C        2.14937200       0.53925678      -0.00622027
C        0.93542192      -0.31094255      -0.30915054
C       -0.02811806      -0.71275717       0.83109707
C       -1.27945322      -0.49717202      -0.02024829
O       -2.51253745      -0.91053433       0.47355452
C       -1.18024740       0.90401841      -0.58313040
C       -0.09769079       0.17505595      -1.28600339
H        2.83107256       0.01281983       0.66515395
H        1.85744514       1.47433658       0.47642011
H        2.68106779       0.78792710      -0.92596563
H        1.25945070      -1.22986003      -0.82803641
H        0.01971785      -0.06752512       1.71385327
H        0.10663506      -1.74305051       1.15790960
H       -2.79212482      -0.31107112       1.16885236
H       -2.00251554       1.23538524      -1.21100633
H       -0.83248734       1.71046018       0.06682078
H       -1.11500840      -1.05634721      -1.38390041
17
Frame=16 idx=008622 GeodesicLength=1.0077215493654634 rxn_smarts="[C:1]([C@@:2]1([H:11])[C:3]([H:12])([H:13])[C@@:4]2([O:5][H:14])[C:6]([H:15])([H:16])[C@@:7]12[H:17])([H:8])([H:9])[H:10]>>[C:1]([C@@:2]1([H:11])[C:3]([H:12])([H:13])[C@:4]([O:5][H:14])([H:17])[C:6]([H:15])([H:16])[C:7]1)([H:8])([H:9])[H:10]"
C        2.15875076       0.53256578      -0.00232029
C        0.93454534      -0.30178942      -0.30473213
C       -0.03091415      -0.70287951       0.83392520
C       -1.28061519      -0.49861848      -0.02438102
O       -2.51375267      -0.91165596       0.47091039
C       -1.19097258       0.90380488      -0.58814223
C       -0.09869750       0.18165568      -1.27826509
H        2.83653128      -0.00376816       0.66525514
H        1.87777910       1.46856009       0.48505375
H        2.68942726       0.77969344      -0.92303300
H        1.24693056      -1.22280217      -0.82911161
H        0.01199132      -0.05181471       1.71270328
H        0.10836305      -1.73030660       1.16769449
H       -2.77114348      -0.33780332       1.19592708
H       -2.01001139       1.22909607      -1.22312195
H       -0.85059464       1.71681434       0.05803097
H       -1.11761708      -1.05075194      -1.41639299
