14
Frame=0 idx=003358 GeodesicLength=0.0 rxn_smarts="[O:1]([C:2]([C@@:3]1([H:10])[C:4]([H:11])([H:12])[C@:5]1([O:6][H:14])[H:13])([H:8])[H:9])[H:7]>>[C:2](=[C:3]([C:4]([C:5](=[O:6])[H:13])([H:11])[H:12])[H:10])([H:8])[H:9].[O:1]([H:7])[H:14]"
O        0.84389953      -1.72215001      -0.73377663
C        1.02911390       0.12356020      -0.79474839
C        0.41815953       0.77082480       0.28438892
C       -1.03422646       1.22215919       0.20978144
C       -1.06802802      -0.11519499       0.78991789
O       -1.32064085      -1.18823181       0.12925693
H        1.36281890      -2.01335713       0.02047206
H        0.54439195       0.14114332      -1.76305211
H        2.11074820       0.11832181      -0.84589304
H        1.02131567       1.08651032       1.12311316
H       -1.43379050       1.30948399      -0.79572001
H       -1.27054293       2.06006928       0.85578288
H       -1.00714251      -0.16428039       1.88336637
H       -0.19607638      -1.62885855      -0.36288952
14
Frame=1 idx=003358 GeodesicLength=0.09470294925932406 rxn_smarts="[O:1]([C:2]([C@@:3]1([H:10])[C:4]([H:11])([H:12])[C@:5]1([O:6][H:14])[H:13])([H:8])[H:9])[H:7]>>[C:2](=[C:3]([C:4]([C:5](=[O:6])[H:13])([H:11])[H:12])[H:10])([H:8])[H:9].[O:1]([H:7])[H:14]"
O        0.84429121      -1.72167981      -0.75354613
C        1.04104362       0.13149732      -0.78885440
C        0.42154181       0.77445118       0.28901055
C       -1.03229482       1.21595764       0.20418419
C       -1.06356032      -0.11442181       0.80612412
O       -1.32192649      -1.19648102       0.16180131
H        1.34628791      -2.05413267      -0.00563944
H        0.56093740       0.15823160      -1.75976236
H        2.12308301       0.14096690      -0.83638211
H        1.02123905       1.10519336       1.12466397
H       -1.43074062       1.28175243      -0.80347982
H       -1.27809960       2.06078286       0.83769483
H       -1.01265192      -0.14803090       1.90065795
H       -0.21915024      -1.63408708      -0.37647266
14
Frame=2 idx=003358 GeodesicLength=0.18938936584289096 rxn_smarts="[O:1]([C:2]([C@@:3]1([H:10])[C:4]([H:11])([H:12])[C@:5]1([O:6][H:14])[H:13])([H:8])[H:9])[H:7]>>[C:2](=[C:3]([C:4]([C:5](=[O:6])[H:13])([H:11])[H:12])[H:10])([H:8])[H:9].[O:1]([H:7])[H:14]"
O        0.84436623      -1.72077398      -0.77343188
C        1.05353884       0.13948099      -0.78245118
C        0.42506568       0.77832080       0.29373061
C       -1.03033720       1.20911180       0.19835853
C       -1.05868683      -0.11358628       0.82281685
O       -1.32191856      -1.20505727       0.19569104
H        1.32804735      -2.09576427      -0.03434456
H        0.57847647       0.17559531      -1.75606148
H        2.13578568       0.16399420      -0.82600326
H        1.02084125       1.12484299       1.12605258
H       -1.42732191       1.25259162      -0.81117230
H       -1.28611597       2.06086470       0.81868930
H       -1.01821105      -0.13092424       1.91816581
H       -0.24352997      -1.63869636      -0.39004005
14
Frame=3 idx=003358 GeodesicLength=0.2840473077952974 rxn_smarts="[O:1]([C:2]([C@@:3]1([H:10])[C:4]([H:11])([H:12])[C@:5]1([O:6][H:14])[H:13])([H:8])[H:9])[H:7]>>[C:2](=[C:3]([C:4]([C:5](=[O:6])[H:13])([H:11])[H:12])[H:10])([H:8])[H:9].[O:1]([H:7])[H:14]"
O        0.84412869      -1.71942609      -0.79336112
C        1.06660133       0.14749632      -0.77552335
C        0.42873278       0.78244471       0.29854455
C       -1.02833163       1.20160546       0.19229946
C       -1.05342941      -0.11266589       0.83996070
O       -1.32047056      -1.21393663       0.23087415
H        1.30802196      -2.13812354      -0.06587032
H        0.59698722       0.19316990      -1.75191173
H        2.14883858       0.18742598      -0.81476105
H        1.02008572       1.14542315       1.12727048
H       -1.42345071       1.22200141      -0.81877419
H       -1.29458612       2.06025208       0.79875069
H       -1.02389285      -0.11296439       1.93580799
H       -0.26923502      -1.64270247      -0.40330626
14
Frame=4 idx=003358 GeodesicLength=0.37866898164085033 rxn_smarts="[O:1]([C:2]([C@@:3]1([H:10])[C:4]([H:11])([H:12])[C@:5]1([O:6][H:14])[H:13])([H:8])[H:9])[H:7]>>[C:2](=[C:3]([C:4]([C:5](=[O:6])[H:13])([H:11])[H:12])[H:10])([H:8])[H:9].[O:1]([H:7])[H:14]"
O        0.84361183      -1.71763838      -0.81323544
C        1.08022546       0.15552919      -0.76806623
C        0.43254455       0.78682928       0.30344394
C       -1.02625047       1.19343560       0.18600706
C       -1.04782278      -0.11163684       0.85750252
O       -1.31746168      -1.22307488       0.26725357
H        1.28614140      -2.18104534      -0.10041555
H        0.61641956       0.21086804      -1.74728069
H        2.16221369       0.21130589      -0.80269156
H        1.01894321       1.16686951       1.12831187
H       -1.41903725       1.19001995      -0.82625723
H       -1.30348656       2.05888699       0.77788285
H       -1.02978011      -0.09418353       1.95348272
H       -0.29626084      -1.64616548      -0.41593783
14
Frame=5 idx=003358 GeodesicLength=0.47323586446205657 rxn_smarts="[O:1]([C:2]([C@@:3]1([H:10])[C:4]([H:11])([H:12])[C@:5]1([O:6][H:14])[H:13])([H:8])[H:9])[H:7]>>[C:2](=[C:3]([C:4]([C:5](=[O:6])[H:13])([H:11])[H:12])[H:10])([H:8])[H:9].[O:1]([H:7])[H:14]"
O        0.84288711      -1.71542573      -0.83292477
C        1.09439673       0.16356782      -0.76008625
C        0.43650189       0.79147522       0.30841560
C       -1.02405802       1.18461098       0.17948815
C       -1.04190940      -0.11047663       0.87537080
O       -1.31280259      -1.23240976       0.30468912
H        1.26232383      -2.22431865      -0.13812502
H        0.63669309       0.22857511      -1.74214054
H        2.17586651       0.23570506      -0.78986479
H        1.01739194       1.18909081       1.12917206
H       -1.41398426       1.15672244      -0.83358634
H       -1.31277198       2.05671530       0.75611305
H       -1.03595477      -0.07464556       1.97106786
H       -0.32458007      -1.64918641      -0.42758892
14
Frame=6 idx=003358 GeodesicLength=0.567739384377666 rxn_smarts="[O:1]([C:2]([C@@:3]1([H:10])[C:4]([H:11])([H:12])[C@:5]1([O:6][H:14])[H:13])([H:8])[H:9])[H:7]>>[C:2](=[C:3]([C:4]([C:5](=[O:6])[H:13])([H:11])[H:12])[H:10])([H:8])[H:9].[O:1]([H:7])[H:14]"
O        0.84206411      -1.71281681      -0.85227252
C        1.10910032       0.17160266      -0.75159851
C        0.44060638       0.79637557       0.31344679
C       -1.02171502       1.17515234       0.17275449
C       -1.03573921      -0.10916317       0.89348559
O       -1.30644510      -1.24186204       0.34301421
H        1.23649026      -2.26770995      -0.17911753
H        0.65770847       0.24615842      -1.73647272
H        2.18974694       0.26071811      -0.77638158
H        1.01541895       1.21197577       1.12985312
H       -1.40819713       1.12221361      -0.84072459
H       -1.32238448       2.05369434       0.73348365
H       -1.04250678      -0.05443249       1.98843667
H       -0.35414770      -1.65190636      -0.43790705
14
Frame=7 idx=003358 GeodesicLength=0.6621527341685667 rxn_smarts="[O:1]([C:2]([C@@:3]1([H:10])[C:4]([H:11])([H:12])[C@:5]1([O:6][H:14])[H:13])([H:8])[H:9])[H:7]>>[C:2](=[C:3]([C:4]([C:5](=[O:6])[H:13])([H:11])[H:12])[H:10])([H:8])[H:9].[O:1]([H:7])[H:14]"
O        0.84129859      -1.70986072      -0.87108664
C        1.12431735       0.17962903      -0.74262706
C        0.44486024       0.80151709       0.31852102
C       -1.01917465       1.16508647       0.16582434
C       -1.02936090      -0.10768122       0.91175604
O       -1.29837500      -1.25134641       0.38203988
H        1.20852653      -2.31093607      -0.22343545
H        0.67934552       0.26346009      -1.73026540
H        2.20378768       0.28646959      -0.76237286
H        1.01301967       1.23539668       1.13035841
H       -1.40157848       1.08662181      -0.84763104
H       -1.33224624       2.04978484       0.71005819
H       -1.04951007      -0.03365526       2.00545358
H       -0.38491024      -1.65448591      -0.44659301
14
Frame=8 idx=003358 GeodesicLength=0.7565005678383238 rxn_smarts="[O:1]([C:2]([C@@:3]1([H:10])[C:4]([H:11])([H:12])[C@:5]1([O:6][H:14])[H:13])([H:8])[H:9])[H:7]>>[C:2](=[C:3]([C:4]([C:5](=[O:6])[H:13])([H:11])[H:12])[H:10])([H:8])[H:9].[O:1]([H:7])[H:14]"
O        0.84078864      -1.70663456      -0.88913987
C        1.14004264       0.18765409      -0.73320741
C        0.44927848       0.80688180       0.32361807
C       -1.01639411       1.15444891       0.15871526
C       -1.02283163      -0.10603347       0.93009118
O       -1.28863247      -1.26078976       0.42157386
H        1.17829334      -2.35368048      -0.27103268
H        0.70147540       0.28031815      -1.72352981
H        2.21793518       0.31312555      -0.74799922
H        1.01022339       1.25921614       1.13069487
H       -1.39405494       1.05010498      -0.85427612
H       -1.34226899       2.04495857       0.68591047
H       -1.05701982      -0.01247059       2.02199635
H       -0.41683512      -1.65709934      -0.45341494
14
Frame=9 idx=003358 GeodesicLength=0.8506641586927921 rxn_smarts="[O:1]([C:2]([C@@:3]1([H:10])[C:4]([H:11])([H:12])[C@:5]1([O:6][H:14])[H:13])([H:8])[H:9])[H:7]>>[C:2](=[C:3]([C:4]([C:5](=[O:6])[H:13])([H:11])[H:12])[H:10])([H:8])[H:9].[O:1]([H:7])[H:14]"
O        0.84071408      -1.70321226      -0.90621749
C        1.15625824       0.19566638      -0.72333589
C        0.45384627       0.81243747       0.32874384
C       -1.01330945       1.14325116       0.15144707
C       -1.01617691      -0.10418482       0.94841513
O       -1.27723019      -1.27006938       0.46146141
H        1.14569218      -2.39563018      -0.32211111
H        0.72399584       0.29655338      -1.71623786
H        2.23208784       0.34079974      -0.73337605
H        1.00698741       1.28331537       1.13088494
H       -1.38551000       1.01273294      -0.86061013
H       -1.35236510       2.03918344       0.66107863
H       -1.06513658       0.00909280       2.03794001
H       -0.44985365      -1.65993604      -0.45808250
14
Frame=10 idx=003358 GeodesicLength=0.9447258786674303 rxn_smarts="[O:1]([C:2]([C@@:3]1([H:10])[C:4]([H:11])([H:12])[C@:5]1([O:6][H:14])[H:13])([H:8])[H:9])[H:7]>>[C:2](=[C:3]([C:4]([C:5](=[O:6])[H:13])([H:11])[H:12])[H:10])([H:8])[H:9].[O:1]([H:7])[H:14]"
O        0.84137866      -1.69974524      -0.92201114
C        1.17298073       0.20369125      -0.71306959
C        0.45859699       0.81815650       0.33387016
C       -1.00988328       1.13154560       0.14404082
C       -1.00946197      -0.10217410       0.96663361
O       -1.26429431      -1.27914357       0.50149866
H        1.11051727      -2.43637376      -0.37645835
H        0.74676128       0.31197465      -1.70843673
H        2.24619719       0.36972455      -0.71873186
H        1.00338969       1.30753639       1.13094356
H       -1.37590562       0.97471807      -0.86661947
H       -1.36243179       2.03245389       0.63566678
H       -1.07387955       0.03079749       2.05318214
H       -0.48396529      -1.66316171      -0.46050859
14
Frame=11 idx=003358 GeodesicLength=1.038627816597488 rxn_smarts="[O:1]([C:2]([C@@:3]1([H:10])[C:4]([H:11])([H:12])[C@:5]1([O:6][H:14])[H:13])([H:8])[H:9])[H:7]>>[C:2](=[C:3]([C:4]([C:5](=[O:6])[H:13])([H:11])[H:12])[H:10])([H:8])[H:9].[O:1]([H:7])[H:14]"
O        0.84307169      -1.69638486      -0.93622246
C        1.19021780       0.21173553      -0.70242030
C        0.46353815       0.82400282       0.33899350
C       -1.00605868       1.11934748       0.13651317
C       -1.00271165      -0.10001033       0.98467566
O       -1.24989765      -1.28794615       0.54154092
H        1.07255609      -2.47547954      -0.43410976
H        0.76966746       0.32637355      -1.70013258
H        2.26016200       0.40007386      -0.70423281
H        0.99943831       1.33176484       1.13089559
H       -1.36516146       0.93616065      -0.87228144
H       -1.37237044       2.02474850       0.60973155
H       -1.08329418       0.05253049       2.06762787
H       -0.51915744      -1.66691685      -0.46057891
14
Frame=12 idx=003358 GeodesicLength=1.1323337666605928 rxn_smarts="[O:1]([C:2]([C@@:3]1([H:10])[C:4]([H:11])([H:12])[C@:5]1([O:6][H:14])[H:13])([H:8])[H:9])[H:7]>>[C:2](=[C:3]([C:4]([C:5](=[O:6])[H:13])([H:11])[H:12])[H:10])([H:8])[H:9].[O:1]([H:7])[H:14]"
O        0.84613376      -1.69333290      -0.94850944
C        1.20799013       0.21979942      -0.69140536
C        0.46868135       0.82992833       0.34410501
C       -1.00178612       1.10667475       0.12888087
C       -0.99596162      -0.09771382       1.00247391
O       -1.23414893      -1.29641940       0.58144977
H        1.03159620      -2.51241104      -0.49507002
H        0.79262010       0.33951527      -1.69134518
H        2.27387700       0.43202555      -0.69007133
H        0.99515283       1.35587034       1.13076313
H       -1.35321323       0.89717531      -0.87757882
H       -1.38208206       2.01605385       0.58333631
H       -1.09341000       0.07415106       2.08119638
H       -0.55544941      -1.67131671      -0.45822523
14
Frame=13 idx=003358 GeodesicLength=1.2258925908050577 rxn_smarts="[O:1]([C:2]([C@@:3]1([H:10])[C:4]([H:11])([H:12])[C@:5]1([O:6][H:14])[H:13])([H:8])[H:9])[H:7]>>[C:2](=[C:3]([C:4]([C:5](=[O:6])[H:13])([H:11])[H:12])[H:10])([H:8])[H:9].[O:1]([H:7])[H:14]"
O        0.85085836      -1.69080568      -0.95847958
C        1.22636339       0.22791739      -0.67996409
C        0.47405697       0.83593403       0.34922644
C       -0.99702371       1.09350369       0.12111104
C       -0.98920803      -0.09530775       1.02002652
O       -1.21711726      -1.30456585       0.62123417
H        0.98732872      -2.54667349      -0.55980555
H        0.81560358       0.35122428      -1.68206247
H        2.28730340       0.46572270      -0.67630072
H        0.99056620       1.37988250       1.13057348
H       -1.34002430       0.85771910      -0.88254153
H       -1.39151301       2.00635177       0.55639872
H       -1.10426992       0.09563092       2.09386073
H       -0.59292439      -1.67653361      -0.45327715
14
Frame=14 idx=003358 GeodesicLength=1.3193562058867636 rxn_smarts="[O:1]([C:2]([C@@:3]1([H:10])[C:4]([H:11])([H:12])[C@:5]1([O:6][H:14])[H:13])([H:8])[H:9])[H:7]>>[C:2](=[C:3]([C:4]([C:5](=[O:6])[H:13])([H:11])[H:12])[H:10])([H:8])[H:9].[O:1]([H:7])[H:14]"
O        0.85781881      -1.68923630      -0.96561011
C        1.24535038       0.23607560      -0.66818968
C        0.47966785       0.84196310       0.35434763
C       -0.99169466       1.07990136       0.11324956
C       -0.98254546      -0.09284812       1.03726051
O       -1.19908805      -1.31236593       0.66063647
H        0.93954343      -2.57738947      -0.62810869
H        0.83849433       0.36106829      -1.67242148
H        2.30023158       0.50146522      -0.66332079
H        0.98569455       1.40362058       1.13042732
H       -1.32548672       0.81801921      -0.88719640
H       -1.40048066       1.99569821       0.52911183
H       -1.11589326       0.11671598       2.10562318
H       -0.63161212      -1.68268775      -0.44580935
14
Frame=15 idx=003358 GeodesicLength=1.4121701077385214 rxn_smarts="[O:1]([C:2]([C@@:3]1([H:10])[C:4]([H:11])([H:12])[C@:5]1([O:6][H:14])[H:13])([H:8])[H:9])[H:7]>>[C:2](=[C:3]([C:4]([C:5](=[O:6])[H:13])([H:11])[H:12])[H:10])([H:8])[H:9].[O:1]([H:7])[H:14]"
O        0.86734020      -1.68874164      -0.96934440
C        1.26497228       0.24414279      -0.65593520
C        0.48550604       0.84784633       0.35940272
C       -0.98581050       1.06569396       0.10526534
C       -0.97589425      -0.09027938       1.05411384
O       -1.17996290      -1.31961227       0.69979924
H        0.88808526      -2.60310888      -0.70083646
H        0.86127595       0.36872699      -1.66213299
H        2.31254985       0.53884384      -0.65104334
H        0.98051596       1.42686501       1.13009429
H       -1.30961815       0.77786459      -0.89137291
H       -1.40903663       1.98384987       0.50127223
H       -1.12828963       0.13753239       2.11619153
H       -0.67163348      -1.68962360      -0.43547388
14
Frame=16 idx=003358 GeodesicLength=1.5045369440076466 rxn_smarts="[O:1]([C:2]([C@@:3]1([H:10])[C:4]([H:11])([H:12])[C@:5]1([O:6][H:14])[H:13])([H:8])[H:9])[H:7]>>[C:2](=[C:3]([C:4]([C:5](=[O:6])[H:13])([H:11])[H:12])[H:10])([H:8])[H:9].[O:1]([H:7])[H:14]"
O        0.87986226      -1.68990077      -0.96908185
C        1.28528715       0.25208223      -0.64317044
C        0.49158500       0.85359315       0.36440147
C       -0.97932106       1.05084238       0.09708525
C       -0.96927338      -0.08765404       1.07066204
O       -1.15986577      -1.32642612       0.73883416
H        0.83265393      -2.62230875      -0.77870930
H        0.88400139       0.37381041      -1.65130558
H        2.32415596       0.57783295      -0.63952142
H        0.97502967       1.44971261       1.12963572
H       -1.29234288       0.73713335      -0.89520148
H       -1.41709221       1.97083770       0.47275913
H       -1.14148787       0.15805978       2.12568403
H       -0.71319219      -1.69761487      -0.42207172
