17
Frame=0 idx=009655 GeodesicLength=0.0 rxn_smarts="[C:1]([C@@:2]12[C:3]([H:11])([H:12])[C@@:4]([H:13])([C:5]([H:14])([H:15])[C:6]1([H:16])[H:17])[O:7]2)([H:8])([H:9])[H:10]>>[C:1]([C@@:2]1([O:7][H:13])[C:3]([H:11])([H:12])[C:4][C:5]([H:14])([H:15])[C:6]1([H:16])[H:17])([H:8])([H:9])[H:10]"
C        1.97274630       0.30422814       0.21139031
C        0.53490286      -0.01509970      -0.08141365
C       -0.13688628      -1.26933573       0.46764237
C       -1.21868798      -1.03979543      -0.58026302
C       -1.78940446       0.30601903      -0.21814269
C       -0.51139278       1.06795798       0.22701122
O        0.35043577      -0.29573466      -1.49899875
H        2.28465914       1.16996055      -0.37730533
H        2.61235014      -0.53929355      -0.04944035
H        2.10819894       0.53528282       1.26983278
H       -0.47729440      -1.19128946       1.50129849
H        0.43553321      -2.18192790       0.31137600
H       -0.49635279      -1.09949688      -1.64658277
H       -2.50469854       0.16512925       0.59796226
H       -2.31283219       0.77621902      -1.04773146
H       -0.33614632       1.96260286      -0.36938616
H       -0.51513057       1.34457359       1.28275072
17
Frame=1 idx=009655 GeodesicLength=0.04922788505718559 rxn_smarts="[C:1]([C@@:2]12[C:3]([H:11])([H:12])[C@@:4]([H:13])([C:5]([H:14])([H:15])[C:6]1([H:16])[H:17])[O:7]2)([H:8])([H:9])[H:10]>>[C:1]([C@@:2]1([O:7][H:13])[C:3]([H:11])([H:12])[C:4][C:5]([H:14])([H:15])[C:6]1([H:16])[H:17])([H:8])([H:9])[H:10]"
C        1.97297464       0.30508706       0.21323155
C        0.53566775      -0.01340769      -0.08209492
C       -0.13454584      -1.26953166       0.46728613
C       -1.22098900      -1.04098212      -0.57342485
C       -1.78965510       0.30603455      -0.21298820
C       -0.51119385       1.06914008       0.22634264
O        0.35071707      -0.29806729      -1.49771355
H        2.28574794       1.17198115      -0.37318618
H        2.61311224      -0.53755984      -0.04920753
H        2.10633391       0.53312577       1.27258433
H       -0.47301068      -1.19490071       1.50214951
H        0.43741379      -2.18215962       0.30901136
H       -0.50469082      -1.10107179      -1.66074977
H       -2.51074538       0.17429132       0.59906581
H       -2.30742872       0.76821886      -1.05138018
H       -0.33723209       1.96352366      -0.37089513
H       -0.51247585       1.34627827       1.28196898
17
Frame=2 idx=009655 GeodesicLength=0.09845007279446048 rxn_smarts="[C:1]([C@@:2]12[C:3]([H:11])([H:12])[C@@:4]([H:13])([C:5]([H:14])([H:15])[C:6]1([H:16])[H:17])[O:7]2)([H:8])([H:9])[H:10]>>[C:1]([C@@:2]1([O:7][H:13])[C:3]([H:11])([H:12])[C:4][C:5]([H:14])([H:15])[C:6]1([H:16])[H:17])([H:8])([H:9])[H:10]"
C        1.97320981       0.30594504       0.21508748
C        0.53644709      -0.01172830      -0.08275784
C       -0.13219578      -1.26973524       0.46696199
C       -1.22324979      -1.04219967      -0.56653578
C       -1.78989147       0.30602378      -0.20783475
C       -0.51099665       1.07030321       0.22565789
O        0.35100868      -0.30047979      -1.49639822
H        2.28683565       1.17398384      -0.36906956
H        2.61388722      -0.53582682      -0.04893269
H        2.10446690       0.53099488       1.27533253
H       -0.46869565      -1.19851597       1.50302356
H        0.43929116      -2.18240242       0.30667620
H       -0.51312208      -1.10243019      -1.67509446
H       -2.51679091       0.18352199       0.60001274
H       -2.30204493       0.76014496      -1.05483953
H       -0.33832462       1.96440627      -0.37244678
H       -0.50983462       1.34799442       1.28115724
17
Frame=3 idx=009655 GeodesicLength=0.1474195648577098 rxn_smarts="[C:1]([C@@:2]12[C:3]([H:11])([H:12])[C@@:4]([H:13])([C:5]([H:14])([H:15])[C:6]1([H:16])[H:17])[O:7]2)([H:8])([H:9])[H:10]>>[C:1]([C@@:2]1([O:7][H:13])[C:3]([H:11])([H:12])[C:4][C:5]([H:14])([H:15])[C:6]1([H:16])[H:17])([H:8])([H:9])[H:10]"
C        1.97344794       0.30680534       0.21694631
C        0.53723446      -0.01005067      -0.08341966
C       -0.12984056      -1.26994088       0.46664329
C       -1.22549051      -1.04342448      -0.55965469
C       -1.79012470       0.30600350      -0.20268569
C       -0.51079922       1.07145901       0.22496807
O        0.35130155      -0.30292113      -1.49507095
H        2.28792161       1.17598676      -0.36494930
H        2.61466854      -0.53408785      -0.04865097
H        2.10259902       0.52887027       1.27807568
H       -0.46437588      -1.20213662       1.50389672
H        0.44117119      -2.18264733       0.30434900
H       -0.52159009      -1.10374954      -1.68944424
H       -2.52283396       0.19278058       0.60087244
H       -2.29667182       0.75206647      -1.05820509
H       -0.33941856       1.96527798      -0.37400859
H       -0.50719900       1.34970859       1.28033768
17
Frame=4 idx=009655 GeodesicLength=0.19658328209769887 rxn_smarts="[C:1]([C@@:2]12[C:3]([H:11])([H:12])[C@@:4]([H:13])([C:5]([H:14])([H:15])[C:6]1([H:16])[H:17])[O:7]2)([H:8])([H:9])[H:10]>>[C:1]([C@@:2]1([O:7][H:13])[C:3]([H:11])([H:12])[C:4][C:5]([H:14])([H:15])[C:6]1([H:16])[H:17])([H:8])([H:9])[H:10]"
C        1.97369526       0.30766049       0.21882699
C        0.53804011      -0.00839856      -0.08404800
C       -0.12747259      -1.27015952       0.46638650
C       -1.22767006      -1.04470553      -0.55266179
C       -1.79033210       0.30593829      -0.19753298
C       -0.51060722       1.07258157       0.22425475
O        0.35160890      -0.30548309      -1.49369633
H        2.28900588       1.17795049      -0.36084630
H        2.61546528      -0.53235865      -0.04829614
H        2.10073008       0.52679551       1.28081150
H       -0.46000059      -1.20575741       1.50481816
H        0.44304068      -2.18291198       0.30208087
H       -0.53018897      -1.10467922      -1.70413685
H       -2.52887201       0.20214250       0.60149783
H       -2.29132946       0.74385814      -1.06129199
H       -0.34052640       1.96608469      -0.37563607
H       -0.50458680       1.35144227       1.27946984
17
Frame=5 idx=009655 GeodesicLength=0.2457536339366123 rxn_smarts="[C:1]([C@@:2]12[C:3]([H:11])([H:12])[C@@:4]([H:13])([C:5]([H:14])([H:15])[C:6]1([H:16])[H:17])[O:7]2)([H:8])([H:9])[H:10]>>[C:1]([C@@:2]1([O:7][H:13])[C:3]([H:11])([H:12])[C:4][C:5]([H:14])([H:15])[C:6]1([H:16])[H:17])([H:8])([H:9])[H:10]"
C        1.97394770       0.30851318       0.22071782
C        0.53885833      -0.00676243      -0.08465785
C       -0.12509564      -1.27038668       0.46616990
C       -1.22981504      -1.04601886      -0.54560833
C       -1.79052831       0.30584521      -0.19237732
C       -0.51041792       1.07368209       0.22352910
O        0.35192035      -0.30811824      -1.49228986
H        2.29008610       1.17989179      -0.35675637
H        2.61627163      -0.53063442      -0.04790184
H        2.09886064       0.52475259       1.28353799
H       -0.45559395      -1.20937977       1.50577188
H        0.44490644      -2.18318924       0.29985308
H       -0.53885653      -1.10538136      -1.71902730
H       -2.53490619       0.21156912       0.60195715
H       -2.28600702       0.73558212      -1.06419505
H       -0.34164202       1.96685175      -0.37729986
H       -0.50198858       1.35318316       1.27857684
17
Frame=6 idx=009655 GeodesicLength=0.29492981008570346 rxn_smarts="[C:1]([C@@:2]12[C:3]([H:11])([H:12])[C@@:4]([H:13])([C:5]([H:14])([H:15])[C:6]1([H:16])[H:17])[O:7]2)([H:8])([H:9])[H:10]>>[C:1]([C@@:2]1([O:7][H:13])[C:3]([H:11])([H:12])[C:4][C:5]([H:14])([H:15])[C:6]1([H:16])[H:17])([H:8])([H:9])[H:10]"
C        1.97420487       0.30936279       0.22261822
C        0.53968795      -0.00514356      -0.08524894
C       -0.12270977      -1.27062269       0.46599600
C       -1.23192432      -1.04736638      -0.53848813
C       -1.79071250       0.30572318      -0.18721729
C       -0.51023214       1.07475947       0.22279177
O        0.35223460      -0.31082675      -1.49085068
H        2.29116174       1.18181017      -0.35268068
H        2.61708674      -0.52891558      -0.04746919
H        2.09699180       0.52274125       1.28625474
H       -0.45115359      -1.21300248       1.50675994
H        0.44676743      -2.18347962       0.29766840
H       -0.54759136      -1.10584701      -1.73412311
H       -2.54093502       0.22106096       0.60224565
H       -2.28070479       0.72723727      -1.06691592
H       -0.34276681       1.96757782      -0.37899915
H       -0.49940484       1.35493117       1.27765839
17
Frame=7 idx=009655 GeodesicLength=0.34410990352691245 rxn_smarts="[C:1]([C@@:2]12[C:3]([H:11])([H:12])[C@@:4]([H:13])([C:5]([H:14])([H:15])[C:6]1([H:16])[H:17])[O:7]2)([H:8])([H:9])[H:10]>>[C:1]([C@@:2]1([O:7][H:13])[C:3]([H:11])([H:12])[C:4][C:5]([H:14])([H:15])[C:6]1([H:16])[H:17])([H:8])([H:9])[H:10]"
C        1.97446624       0.31020879       0.22452706
C        0.54052812      -0.00354345      -0.08582119
C       -0.12031475      -1.27086824       0.46586785
C       -1.23399881      -1.04874954      -0.53129581
C       -1.79088509       0.30557102      -0.18205034
C       -0.51005042       1.07581249       0.22204349
O        0.35254949      -0.31360898      -1.48937769
H        2.29223165       1.18370508      -0.34862097
H        2.61790995      -0.52720276      -0.04699985
H        2.09512389       0.52076129       1.28896058
H       -0.44667738      -1.21662476       1.50778581
H        0.44862381      -2.18378396       0.29553040
H       -0.55638877      -1.10606631      -1.74943199
H       -2.54695811       0.23061829       0.60235956
H       -2.27542283       0.71882364      -1.06945876
H       -0.34390175       1.96826159      -0.38073318
H       -0.49683522       1.35668583       1.27671503
17
Frame=8 idx=009655 GeodesicLength=0.39328769846195216 rxn_smarts="[C:1]([C@@:2]12[C:3]([H:11])([H:12])[C@@:4]([H:13])([C:5]([H:14])([H:15])[C:6]1([H:16])[H:17])[O:7]2)([H:8])([H:9])[H:10]>>[C:1]([C@@:2]1([O:7][H:13])[C:3]([H:11])([H:12])[C:4][C:5]([H:14])([H:15])[C:6]1([H:16])[H:17])([H:8])([H:9])[H:10]"
C        1.97473140       0.31105070       0.22644323
C        0.54137802      -0.00196297      -0.08637458
C       -0.11791041      -1.27112362       0.46578790
C       -1.23603964      -1.05016973      -0.52402897
C       -1.79104694       0.30538779      -0.17687508
C       -0.50987311       1.07684055       0.22128508
O        0.35286279      -0.31646461      -1.48787004
H        2.29329493       1.18557641      -0.34457868
H        2.61874058      -0.52549654      -0.04649606
H        2.09325781       0.51881232       1.29165500
H       -0.44216500      -1.22024573       1.50885197
H        0.45047622      -2.18410256       0.29344264
H       -0.56524370      -1.10603451      -1.76495985
H       -2.55297511       0.24024046       0.60229882
H       -2.27016065       0.71034266      -1.07182786
H       -0.34504753       1.96890259      -0.38250105
H       -0.49427964       1.35844680       1.27574754
17
Frame=9 idx=009655 GeodesicLength=0.4424710749855993 rxn_smarts="[C:1]([C@@:2]12[C:3]([H:11])([H:12])[C@@:4]([H:13])([C:5]([H:14])([H:15])[C:6]1([H:16])[H:17])[O:7]2)([H:8])([H:9])[H:10]>>[C:1]([C@@:2]1([O:7][H:13])[C:3]([H:11])([H:12])[C:4][C:5]([H:14])([H:15])[C:6]1([H:16])[H:17])([H:8])([H:9])[H:10]"
C        1.97499957       0.31188785       0.22836591
C        0.54223686      -0.00040374      -0.08690881
C       -0.11549675      -1.27138945       0.46575947
C       -1.23804813      -1.05162779      -0.51668005
C       -1.79119853       0.30517318      -0.17168933
C       -0.50970069       1.07784247       0.22051674
O        0.35317283      -0.31939433      -1.48632647
H        2.29435032       1.18742339      -0.34055524
H        2.61957787      -0.52379756      -0.04595804
H        2.09139346       0.51689481       1.29433699
H       -0.43761362      -1.22386453       1.50996223
H        0.45232344      -2.18443648       0.29140776
H       -0.57415170      -1.10574010      -1.78071895
H       -2.55898415       0.24992794       0.60205859
H       -2.26491803       0.70179116      -1.07402326
H       -0.34620511       1.96949894      -0.38430320
H       -0.49173763       1.36021424       1.27475564
17
Frame=10 idx=009655 GeodesicLength=0.4916628916236094 rxn_smarts="[C:1]([C@@:2]12[C:3]([H:11])([H:12])[C@@:4]([H:13])([C:5]([H:14])([H:15])[C:6]1([H:16])[H:17])[O:7]2)([H:8])([H:9])[H:10]>>[C:1]([C@@:2]1([O:7][H:13])[C:3]([H:11])([H:12])[C:4][C:5]([H:14])([H:15])[C:6]1([H:16])[H:17])([H:8])([H:9])[H:10]"
C        1.97527011       0.31271970       0.23029420
C        0.54310334       0.00113314      -0.08742347
C       -0.11307362      -1.27166610       0.46578556
C       -1.24002554      -1.05312530      -0.50924343
C       -1.79134059       0.30492679      -0.16649121
C       -0.50953382       1.07881758       0.21973946
O        0.35347747      -0.32239848      -1.48474577
H        2.29539678       1.18924532      -0.33655264
H        2.62042083      -0.52210683      -0.04538749
H        2.08953152       0.51500863       1.29700561
H       -0.43302151      -1.22747989       1.51111978
H        0.45416533      -2.18478621       0.28942930
H       -0.58310718      -1.10517547      -1.79671963
H       -2.56498419       0.25967999       0.60163637
H       -2.25969444       0.69316876      -1.07604784
H       -0.34737542       1.97005002      -0.38613882
H       -0.48920907       1.36198835       1.27374003
17
Frame=11 idx=009655 GeodesicLength=0.5408509252119144 rxn_smarts="[C:1]([C@@:2]12[C:3]([H:11])([H:12])[C@@:4]([H:13])([C:5]([H:14])([H:15])[C:6]1([H:16])[H:17])[O:7]2)([H:8])([H:9])[H:10]>>[C:1]([C@@:2]1([O:7][H:13])[C:3]([H:11])([H:12])[C:4][C:5]([H:14])([H:15])[C:6]1([H:16])[H:17])([H:8])([H:9])[H:10]"
C        1.97554343       0.31354530       0.23222771
C        0.54397675       0.00264603      -0.08791790
C       -0.11064051      -1.27195422       0.46586909
C       -1.24196846      -1.05466618      -0.50171287
C       -1.79147176       0.30464601      -0.16127908
C       -0.50937368       1.07976468       0.21895348
O        0.35377663      -0.32547931      -1.48312740
H        2.29643457       1.19104070      -0.33257264
H        2.62126986      -0.52042486      -0.04478445
H        2.08767365       0.51315405       1.29966083
H       -0.42838579      -1.23109076       1.51232668
H        0.45600183      -2.18515254       0.28751134
H       -0.59211518      -1.10432308      -1.81296863
H       -2.57097552       0.26949628       0.60103064
H       -2.25448984       0.68447436      -1.07790850
H       -0.34856065       1.97055393      -0.38800811
H       -0.48669532       1.36376959       1.27269982
17
Frame=12 idx=009655 GeodesicLength=0.590381880305995 rxn_smarts="[C:1]([C@@:2]12[C:3]([H:11])([H:12])[C@@:4]([H:13])([C:5]([H:14])([H:15])[C:6]1([H:16])[H:17])[O:7]2)([H:8])([H:9])[H:10]>>[C:1]([C@@:2]1([O:7][H:13])[C:3]([H:11])([H:12])[C:4][C:5]([H:14])([H:15])[C:6]1([H:16])[H:17])([H:8])([H:9])[H:10]"
C        1.97581840       0.31436886       0.23418198
C        0.54485632       0.00412103      -0.08836482
C       -0.10819654      -1.27227246       0.46605593
C       -1.24389454      -1.05626777      -0.49400653
C       -1.79160549       0.30427896      -0.15604328
C       -0.50924009       1.08064737       0.21814735
O        0.35405502      -0.32869710      -1.48143483
H        2.29744935       1.19279433      -0.32862803
H        2.62208606      -0.51876143      -0.04413062
H        2.08584012       0.51136400       1.30227000
H       -0.42367697      -1.23470218       1.51364018
H        0.45781889      -2.18554973       0.28568978
H       -0.60110735      -1.10297229      -1.82970298
H       -2.57693914       0.27945646       0.60009670
H       -2.24932993       0.67563833      -1.07944260
H       -0.34976208       1.97099222      -0.38996294
H       -0.48417204       1.36556139       1.27163470
17
Frame=13 idx=009655 GeodesicLength=0.6395794032756201 rxn_smarts="[C:1]([C@@:2]12[C:3]([H:11])([H:12])[C@@:4]([H:13])([C:5]([H:14])([H:15])[C:6]1([H:16])[H:17])[O:7]2)([H:8])([H:9])[H:10]>>[C:1]([C@@:2]1([O:7][H:13])[C:3]([H:11])([H:12])[C:4][C:5]([H:14])([H:15])[C:6]1([H:16])[H:17])([H:8])([H:9])[H:10]"
C        1.97609111       0.31517326       0.23610857
C        0.54574327       0.00557626      -0.08882818
C       -0.10574014      -1.27257975       0.46627027
C       -1.24577821      -1.05789348      -0.48627011
C       -1.79171921       0.30395642      -0.15078506
C       -0.50907808       1.08154601       0.21734915
O        0.35432900      -0.33193031      -1.47973354
H        2.29845901       1.19454136      -0.32469802
H        2.62297391      -0.51709605      -0.04347742
H        2.08397080       0.50955611       1.30491155
H       -0.41894601      -1.23829180       1.51496578
H        0.45965281      -2.18595394       0.28391177
H       -0.61022194      -1.10151312      -1.84648429
H       -2.58291325       0.28937979       0.59911544
H       -2.24414855       0.66678814      -1.08100738
H       -0.35097976       1.97138245      -0.39188411
H       -0.48169474       1.36735865       1.27053557
17
Frame=14 idx=009655 GeodesicLength=0.6887747955203979 rxn_smarts="[C:1]([C@@:2]12[C:3]([H:11])([H:12])[C@@:4]([H:13])([C:5]([H:14])([H:15])[C:6]1([H:16])[H:17])[O:7]2)([H:8])([H:9])[H:10]>>[C:1]([C@@:2]1([O:7][H:13])[C:3]([H:11])([H:12])[C:4][C:5]([H:14])([H:15])[C:6]1([H:16])[H:17])([H:8])([H:9])[H:10]"
C        1.97636441       0.31597523       0.23804757
C        0.54663416       0.00700574      -0.08926420
C       -0.10327464      -1.27290505       0.46655005
C       -1.24764124      -1.05956267      -0.47842528
C       -1.79183075       0.30358039      -0.14550817
C       -0.50893279       1.08240632       0.21653730
O        0.35459163      -0.33525018      -1.47798741
H        2.29945415       1.19626551      -0.32078407
H        2.62384696      -0.51543823      -0.04279796
H        2.08211615       0.50777961       1.30752743
H       -0.41416473      -1.24188085       1.51635506
H        0.46147743      -2.18637677       0.28219937
H       -0.61935533      -1.09973484      -1.86355110
H       -2.58886692       0.29938389       0.59792669
H       -2.23899199       0.65785692      -1.08238489
H       -0.35221098       1.97172834      -0.39385656
H       -0.47921551       1.36916665       1.26941615
17
Frame=15 idx=009655 GeodesicLength=0.7379522189596562 rxn_smarts="[C:1]([C@@:2]12[C:3]([H:11])([H:12])[C@@:4]([H:13])([C:5]([H:14])([H:15])[C:6]1([H:16])[H:17])[O:7]2)([H:8])([H:9])[H:10]>>[C:1]([C@@:2]1([O:7][H:13])[C:3]([H:11])([H:12])[C:4][C:5]([H:14])([H:15])[C:6]1([H:16])[H:17])([H:8])([H:9])[H:10]"
C        1.97663761       0.31677089       0.23999215
C        0.54752786       0.00840710      -0.08967861
C       -0.10079855      -1.27324675       0.46689982
C       -1.24948216      -1.06127799      -0.47046351
C       -1.79194010       0.30315874      -0.14020937
C       -0.50879955       1.08322994       0.21571425
O        0.35483644      -0.33865801      -1.47619509
H        2.30043392       1.19796476      -0.31689223
H        2.62471416      -0.51379051      -0.04209187
H        2.08026838       0.50603342       1.31012305
H       -0.40933062      -1.24546360       1.51781123
H        0.46329437      -2.18682044       0.28055738
H       -0.62850440      -1.09762002      -1.88091070
H       -2.59479810       0.30946293       0.59652647
H       -2.23386049       0.64884252      -1.08358003
H       -0.35345957       1.97202375      -0.39587565
H       -0.47673918       1.37098326       1.26827270
17
Frame=16 idx=009655 GeodesicLength=0.7871234548285678 rxn_smarts="[C:1]([C@@:2]12[C:3]([H:11])([H:12])[C@@:4]([H:13])([C:5]([H:14])([H:15])[C:6]1([H:16])[H:17])[O:7]2)([H:8])([H:9])[H:10]>>[C:1]([C@@:2]1([O:7][H:13])[C:3]([H:11])([H:12])[C:4][C:5]([H:14])([H:15])[C:6]1([H:16])[H:17])([H:8])([H:9])[H:10]"
C        1.97690943       0.31755722       0.24193748
C        0.54842434       0.00977606      -0.09007160
C       -0.09831102      -1.27360371       0.46732591
C       -1.25129931      -1.06304187      -0.46237621
C       -1.79204553       0.30269885      -0.13488248
C       -0.50867437       1.08401973       0.21488201
O        0.35506270      -0.34215514      -1.47435471
H        2.30139692       1.19963642      -0.31302853
H        2.62558393      -0.51215452      -0.04135987
H        2.07842435       0.50431716       1.31270148
H       -0.40443988      -1.24903618       1.51934053
H        0.46510516      -2.18728660       0.27899519
H       -0.63768086      -1.09514302      -1.89858142
H       -2.60071020       0.31960532       0.59491955
H       -2.22874614       0.63973903      -1.08461226
H       -0.35472753       1.97226080      -0.39793683
H       -0.47427200       1.37281047       1.26710178
