16
Frame=0 idx=009270 GeodesicLength=0.0 rxn_smarts="[C:1]([C@@:2]12[C@@:3]3([H:11])[C:4]([H:12])([H:13])[N:5]1[C:6]([H:14])([H:15])[C@@:7]23[H:16])([H:8])([H:9])[H:10]>>[C:1]([C:2]1=[C:3]([H:11])[C:4]([H:12])([H:13])[N:5]2[C:6]([H:14])([H:15])[C@:7]12[H:16])([H:8])([H:9])[H:10]"
C        2.24896928      -0.00562665       0.29385496
C        0.80073043       0.01053862       0.00157027
C       -0.19947363       0.89459038       0.45269531
C       -1.30364766       1.14355787      -0.50899828
N       -1.36857770       0.04280210      -1.40052625
C       -1.29477630      -1.10910844      -0.57732670
C       -0.19323005      -0.90784324       0.39749533
H        2.60806241       0.95801054       0.65562956
H        2.77981868      -0.23621705      -0.63408107
H        2.50178574      -0.79558105       1.00609525
H       -0.01169200       1.52157117       1.32527250
H       -2.26932542       1.35077717       0.00208686
H       -1.02764695       2.07355244      -1.02235843
H       -1.01107249      -2.00417666      -1.14605081
H       -2.25821855      -1.35614367      -0.07977647
H       -0.00170575      -1.58070357       1.23441803
16
Frame=1 idx=009270 GeodesicLength=0.095683026718987 rxn_smarts="[C:1]([C@@:2]12[C@@:3]3([H:11])[C:4]([H:12])([H:13])[N:5]1[C:6]([H:14])([H:15])[C@@:7]23[H:16])([H:8])([H:9])[H:10]>>[C:1]([C:2]1=[C:3]([H:11])[C:4]([H:12])([H:13])[N:5]2[C:6]([H:14])([H:15])[C@:7]12[H:16])([H:8])([H:9])[H:10]"
C        2.24420217       0.00859024       0.28667088
C        0.79259559       0.01820189       0.01047219
C       -0.21094882       0.88361746       0.48831906
C       -1.29062577       1.14612421      -0.49902807
N       -1.29985505       0.04490201      -1.39817870
C       -1.30556571      -1.11496638      -0.58037891
C       -0.19457064      -0.92074676       0.38204501
H        2.61757802       0.99735340       0.55444940
H        2.76769950      -0.30982563      -0.61906751
H        2.50303240      -0.71152034       1.06716144
H       -0.02831996       1.50310001       1.36633834
H       -2.27280765       1.33857305      -0.01753128
H       -1.01093240       2.08167056      -0.99927523
H       -1.04872201      -2.01724988      -1.14927413
H       -2.27563784      -1.32383958      -0.08240085
H        0.01287815      -1.62398426       1.18967835
16
Frame=2 idx=009270 GeodesicLength=0.19127815792010502 rxn_smarts="[C:1]([C@@:2]12[C@@:3]3([H:11])[C:4]([H:12])([H:13])[N:5]1[C:6]([H:14])([H:15])[C@@:7]23[H:16])([H:8])([H:9])[H:10]>>[C:1]([C:2]1=[C:3]([H:11])[C:4]([H:12])([H:13])[N:5]2[C:6]([H:14])([H:15])[C@:7]12[H:16])([H:8])([H:9])[H:10]"
C        2.23942862       0.02223626       0.28069246
C        0.78492722       0.02529342       0.01850068
C       -0.22165194       0.87220180       0.52140710
C       -1.27786575       1.14836561      -0.48923157
N       -1.23681356       0.04550629      -1.39159696
C       -1.31681121      -1.12011048      -0.58287611
C       -0.19543347      -0.93312939       0.36618359
H        2.62385418       1.02757345       0.45571023
H        2.75746248      -0.37849295      -0.59487410
H        2.50376863      -0.62439449       1.12109329
H       -0.04401205       1.48469091       1.40442897
H       -2.27418160       1.32870985      -0.03606498
H       -0.99433531       2.08783271      -0.97896932
H       -1.08641595      -2.02717478      -1.15426820
H       -2.29082662      -1.29372979      -0.08305587
H        0.02890632      -1.66537841       1.14292079
16
Frame=3 idx=009270 GeodesicLength=0.28680422381114967 rxn_smarts="[C:1]([C@@:2]12[C@@:3]3([H:11])[C:4]([H:12])([H:13])[N:5]1[C:6]([H:14])([H:15])[C@@:7]23[H:16])([H:8])([H:9])[H:10]>>[C:1]([C:2]1=[C:3]([H:11])[C:4]([H:12])([H:13])[N:5]2[C:6]([H:14])([H:15])[C@:7]12[H:16])([H:8])([H:9])[H:10]"
C        2.23467472       0.03528123       0.27569323
C        0.77763138       0.03187251       0.02597086
C       -0.23167444       0.86055123       0.55223977
C       -1.26534423       1.15030466      -0.47967189
N       -1.17882580       0.04469725      -1.38176095
C       -1.32829025      -1.12463360      -0.58481309
C       -0.19600212      -0.94492334       0.35026253
H        2.62765001       1.04912257       0.36028795
H        2.74881306      -0.44160651      -0.56309165
H        2.50409900      -0.53550602       1.16759945
H       -0.05904743       1.46642898       1.43995098
H       -2.27384991       1.32071493      -0.05367493
H       -0.97782667       2.09235037      -0.96113838
H       -1.12378259      -2.03438833      -1.16052037
H       -2.30407657      -1.26561509      -0.08198574
H        0.04585183      -1.70465086       1.09465222
16
Frame=4 idx=009270 GeodesicLength=0.38224245798288403 rxn_smarts="[C:1]([C@@:2]12[C@@:3]3([H:11])[C:4]([H:12])([H:13])[N:5]1[C:6]([H:14])([H:15])[C@@:7]23[H:16])([H:8])([H:9])[H:10]>>[C:1]([C:2]1=[C:3]([H:11])[C:4]([H:12])([H:13])[N:5]2[C:6]([H:14])([H:15])[C@:7]12[H:16])([H:8])([H:9])[H:10]"
C        2.22994788       0.04774055       0.27152635
C        0.77063697       0.03794324       0.03307811
C       -0.24109292       0.84877548       0.58109918
C       -1.25305316       1.15199827      -0.47033572
N       -1.12536039       0.04264552      -1.36941912
C       -1.33983388      -1.12860358      -0.58623514
C       -0.19638345      -0.95616152       0.33448424
H        2.62949394       1.06270119       0.26825611
H        2.74157018      -0.49923761      -0.52480908
H        2.50407576      -0.44551116       1.20698874
H       -0.07363090       1.44828358       1.47331281
H       -2.27210639       1.31425147      -0.07040755
H       -0.96142734       2.09553073      -0.94543210
H       -1.16062165      -2.03922126      -1.16772757
H       -2.31561006      -1.23928870      -0.07946351
H        0.06339540      -1.74184619       1.04508424
16
Frame=5 idx=009270 GeodesicLength=0.4776176367485514 rxn_smarts="[C:1]([C@@:2]12[C@@:3]3([H:11])[C:4]([H:12])([H:13])[N:5]1[C:6]([H:14])([H:15])[C@@:7]23[H:16])([H:8])([H:9])[H:10]>>[C:1]([C:2]1=[C:3]([H:11])[C:4]([H:12])([H:13])[N:5]2[C:6]([H:14])([H:15])[C@:7]12[H:16])([H:8])([H:9])[H:10]"
C        2.22524451       0.05962705       0.26801731
C        0.76387239       0.04353424       0.04005750
C       -0.24999782       0.83694397       0.60830615
C       -1.24096934       1.15346992      -0.46113126
N       -1.07585093       0.03955412      -1.35513035
C       -1.35127523      -1.13208500      -0.58725672
C       -0.19669997      -0.96687555       0.31904293
H        2.62990621       1.06883677       0.17938009
H        2.73538116      -0.55170247      -0.48091426
H        2.50379460      -0.35460918       1.23961512
H       -0.08789551       1.43023541       1.50489627
H       -2.26921236       1.30894809      -0.08629412
H       -0.94513170       2.09761554      -0.93142566
H       -1.19666279      -2.04190154      -1.17577288
H       -2.32563865      -1.21464022      -0.07588016
H        0.08113542      -1.77695114       0.99449003
16
Frame=6 idx=009270 GeodesicLength=0.5729049102352859 rxn_smarts="[C:1]([C@@:2]12[C@@:3]3([H:11])[C:4]([H:12])([H:13])[N:5]1[C:6]([H:14])([H:15])[C@@:7]23[H:16])([H:8])([H:9])[H:10]>>[C:1]([C:2]1=[C:3]([H:11])[C:4]([H:12])([H:13])[N:5]2[C:6]([H:14])([H:15])[C@:7]12[H:16])([H:8])([H:9])[H:10]"
C        2.22056806       0.07097828       0.26507513
C        0.75729382       0.04862925       0.04701381
C       -0.25844596       0.82506944       0.63412007
C       -1.22909049       1.15476454      -0.45196961
N       -1.02987034       0.03562640      -1.33932766
C       -1.36251472      -1.13512460      -0.58797574
C       -0.19700174      -0.97715072       0.30401606
H        2.62916508       1.06794634       0.09323654
H        2.73010107      -0.59938358      -0.43180225
H        2.50330285      -0.26273602       1.26585488
H       -0.10191149       1.41220460       1.53502663
H       -2.26535437       1.30456760      -0.10131394
H       -0.92897806       2.09882475      -0.91875795
H       -1.23182681      -2.04261303      -1.18458940
H       -2.33432986      -1.19151183      -0.07152124
H        0.09889296      -1.81009139       0.94291467
16
Frame=7 idx=009270 GeodesicLength=0.6681171200391315 rxn_smarts="[C:1]([C@@:2]12[C@@:3]3([H:11])[C:4]([H:12])([H:13])[N:5]1[C:6]([H:14])([H:15])[C@@:7]23[H:16])([H:8])([H:9])[H:10]>>[C:1]([C:2]1=[C:3]([H:11])[C:4]([H:12])([H:13])[N:5]2[C:6]([H:14])([H:15])[C@:7]12[H:16])([H:8])([H:9])[H:10]"
C        2.21590163       0.08180590       0.26259738
C        0.75085919       0.05324824       0.05404910
C       -0.26649570       0.81315806       0.65878514
C       -1.21741151       1.15590505      -0.44273046
N       -0.98699929       0.03105712      -1.32232651
C       -1.37344586      -1.13776847      -0.58850274
C       -0.19733584      -0.98703961       0.28947631
H        2.62757513       1.06016580       0.00946459
H        2.72548687      -0.64258227      -0.37773546
H        2.50259587      -0.16967307       1.28588309
H       -0.11571191       1.39414304       1.56396769
H       -2.26070117       1.30086924      -0.11542993
H       -0.91300012       2.09932922      -0.90706737
H       -1.26596494      -2.04148975      -1.19417804
H       -2.34182417      -1.16981358      -0.06667952
H        0.11647182      -1.84131493       0.89042674
16
Frame=8 idx=009270 GeodesicLength=0.7632271134538035 rxn_smarts="[C:1]([C@@:2]12[C@@:3]3([H:11])[C:4]([H:12])([H:13])[N:5]1[C:6]([H:14])([H:15])[C@@:7]23[H:16])([H:8])([H:9])[H:10]>>[C:1]([C:2]1=[C:3]([H:11])[C:4]([H:12])([H:13])[N:5]2[C:6]([H:14])([H:15])[C@:7]12[H:16])([H:8])([H:9])[H:10]"
C        2.21125167       0.09214982       0.26053385
C        0.74454805       0.05738676       0.06119158
C       -0.27417885       0.80118208       0.68249879
C       -1.20593526       1.15691932      -0.43331700
N       -0.94692293       0.02601174      -1.30438467
C       -1.38402217      -1.14005445      -0.58892739
C       -0.19770771      -0.99662662       0.27542088
H        2.62529768       1.04551202      -0.07222506
H        2.72143559      -0.68146680      -0.31869198
H        2.50166171      -0.07516733       1.29973721
H       -0.12928967       1.37596467       1.59194879
H       -2.25537718       1.29769377      -0.12859833
H       -0.89723765       2.09927323      -0.89606343
H       -1.29907763      -2.03863986      -1.20454669
H       -2.34824927      -1.14942702      -0.06155050
H        0.13380360      -1.87071135       0.83697393
16
Frame=9 idx=009270 GeodesicLength=0.8582530388354139 rxn_smarts="[C:1]([C@@:2]12[C@@:3]3([H:11])[C:4]([H:12])([H:13])[N:5]1[C:6]([H:14])([H:15])[C@@:7]23[H:16])([H:8])([H:9])[H:10]>>[C:1]([C:2]1=[C:3]([H:11])[C:4]([H:12])([H:13])[N:5]2[C:6]([H:14])([H:15])[C@:7]12[H:16])([H:8])([H:9])[H:10]"
C        2.20660297       0.10203297       0.25882102
C        0.73833928       0.06107651       0.06846717
C       -0.28152568       0.78910170       0.70543351
C       -1.19465947       1.15780650      -0.42360740
N       -0.90933476       0.02065239      -1.28567784
C       -1.39418199      -1.14201037      -0.58934870
C       -0.19811772      -1.00595797       0.26183426
H        2.62255315       1.02377451      -0.15196761
H        2.71772579      -0.71605006      -0.25456256
H        2.50044017       0.02105317       1.30718486
H       -0.14261319       1.35758324       1.61913794
H       -2.24948983       1.29485333      -0.14075921
H       -0.88172748       2.09875375      -0.88544482
H       -1.33109454      -2.03411701      -1.21574267
H       -2.35369984      -1.13028480      -0.05633203
H        0.15078313      -1.89826787       0.78256407
16
Frame=10 idx=009270 GeodesicLength=0.9531645176200881 rxn_smarts="[C:1]([C@@:2]12[C@@:3]3([H:11])[C:4]([H:12])([H:13])[N:5]1[C:6]([H:14])([H:15])[C@@:7]23[H:16])([H:8])([H:9])[H:10]>>[C:1]([C:2]1=[C:3]([H:11])[C:4]([H:12])([H:13])[N:5]2[C:6]([H:14])([H:15])[C@:7]12[H:16])([H:8])([H:9])[H:10]"
C        2.20197032       0.11147224       0.25745384
C        0.73223588       0.06434730       0.07580080
C       -0.28853755       0.77687540       0.72771756
C       -1.18362505       1.15859439      -0.41349752
N       -0.87403988       0.01512431      -1.26637869
C       -1.40390038      -1.14366173      -0.58984460
C       -0.19851455      -1.01509381       0.24862137
H        2.61954067       0.99456426      -0.22981854
H        2.71427204      -0.74623276      -0.18500807
H        2.49877400       0.11926840       1.30793252
H       -0.15561189       1.33890852       1.64568750
H       -2.24315610       1.29224348      -0.15179680
H       -0.86657871       2.09789165      -0.87497310
H       -1.36204772      -2.02797089      -1.22780912
H       -2.35824396      -1.11231304      -0.05111513
H        0.16746288      -1.92401772       0.72702799
16
Frame=11 idx=009270 GeodesicLength=1.047951637950069 rxn_smarts="[C:1]([C@@:2]12[C@@:3]3([H:11])[C:4]([H:12])([H:13])[N:5]1[C:6]([H:14])([H:15])[C@@:7]23[H:16])([H:8])([H:9])[H:10]>>[C:1]([C:2]1=[C:3]([H:11])[C:4]([H:12])([H:13])[N:5]2[C:6]([H:14])([H:15])[C@:7]12[H:16])([H:8])([H:9])[H:10]"
C        2.19735188       0.12049328       0.25640297
C        0.72623494       0.06725754       0.08312367
C       -0.29520968       0.76445373       0.74946398
C       -1.17285536       1.15929462      -0.40288104
N       -0.84085612       0.00955985      -1.24663008
C       -1.41315369      -1.14503993      -0.59050072
C       -0.19884742      -1.02407559       0.23567601
H        2.61650225       0.95742570      -0.30556161
H        2.71082742      -0.77170955      -0.10968316
H        2.49654253       0.21960223       1.30140612
H       -0.16818275       1.31984449       1.67172091
H       -2.23646799       1.28974390      -0.16161156
H       -0.85187430       2.09678723      -0.86441713
H       -1.39194897      -2.02023954      -1.24080421
H       -2.36193214      -1.09548989      -0.04598158
H        0.18386940      -1.94790807       0.67027742
16
Frame=12 idx=009270 GeodesicLength=1.1426055636217463 rxn_smarts="[C:1]([C@@:2]12[C@@:3]3([H:11])[C:4]([H:12])([H:13])[N:5]1[C:6]([H:14])([H:15])[C@@:7]23[H:16])([H:8])([H:9])[H:10]>>[C:1]([C:2]1=[C:3]([H:11])[C:4]([H:12])([H:13])[N:5]2[C:6]([H:14])([H:15])[C@:7]12[H:16])([H:8])([H:9])[H:10]"
C        2.19277500       0.12909139       0.25569317
C        0.72035549       0.06989361       0.09026805
C       -0.30150751       0.75177648       0.77074452
C       -1.16243048       1.15992347      -0.39163133
N       -0.80968285       0.00411561      -1.22656298
C       -1.42192433      -1.14615462      -0.59139732
C       -0.19902298      -1.03292184       0.22281414
H        2.61380276       0.91155642      -0.37889841
H        2.70717902      -0.79201985      -0.02799748
H        2.49348120       0.32225916       1.28687952
H       -0.18017238       1.30027087       1.69732560
H       -2.22955978       1.28723973      -0.17000320
H       -0.83780218       2.09555011      -0.85354137
H       -1.42083397      -2.01090332      -1.25479995
H       -2.36478386      -1.07980616      -0.04095157
H        0.20012684      -1.96987106       0.61205863
16
Frame=13 idx=009270 GeodesicLength=1.2371498066571567 rxn_smarts="[C:1]([C@@:2]12[C@@:3]3([H:11])[C:4]([H:12])([H:13])[N:5]1[C:6]([H:14])([H:15])[C@@:7]23[H:16])([H:8])([H:9])[H:10]>>[C:1]([C:2]1=[C:3]([H:11])[C:4]([H:12])([H:13])[N:5]2[C:6]([H:14])([H:15])[C@:7]12[H:16])([H:8])([H:9])[H:10]"
C        2.18823662       0.13728992       0.25529585
C        0.71459982       0.07234428       0.09708441
C       -0.30739202       0.73877206       0.79163688
C       -1.15239955       1.16049690      -0.37961864
N       -0.78042014      -0.00106946      -1.20631173
C       -1.43018596      -1.14702706      -0.59263979
C       -0.19894767      -1.04165556       0.20982492
H        2.61172661       0.85619590      -0.44926877
H        2.70290723      -0.80646002       0.06066715
H        2.48945897       0.42714573       1.26334466
H       -0.19138760       1.28005539       1.72260230
H       -2.22252574       1.28463023      -0.17679916
H       -0.82450693       2.09429149      -0.84209834
H       -1.44873309      -1.99995719      -1.26989121
H       -2.36678485      -1.06528691      -0.03605314
H        0.21635430      -1.98976571       0.55222462
16
Frame=14 idx=009270 GeodesicLength=1.3315001494484515 rxn_smarts="[C:1]([C@@:2]12[C@@:3]3([H:11])[C:4]([H:12])([H:13])[N:5]1[C:6]([H:14])([H:15])[C@@:7]23[H:16])([H:8])([H:9])[H:10]>>[C:1]([C:2]1=[C:3]([H:11])[C:4]([H:12])([H:13])[N:5]2[C:6]([H:14])([H:15])[C@:7]12[H:16])([H:8])([H:9])[H:10]"
C        2.18380434       0.14504692       0.25527827
C        0.70901535       0.07481006       0.10320979
C       -0.31274777       0.72546166       0.81205255
C       -1.14292506       1.16101493      -0.36681035
N       -0.75310667      -0.00588210      -1.18603722
C       -1.43793560      -1.14768930      -0.59421938
C       -0.19846203      -1.05019920       0.19647596
H        2.61090634       0.79075256      -0.51512995
H        2.69757145      -0.81388862       0.15622148
H        2.48414975       0.53324321       1.22988081
H       -0.20148981       1.25923883       1.74741478
H       -2.21556942       1.28176920      -0.18178202
H       -0.81235589       2.09309092      -0.83006092
H       -1.47571486      -1.98742429      -1.28598765
H       -2.36789981      -1.05199526      -0.03112250
H        0.23275969      -2.00734951       0.49061634
16
Frame=15 idx=009270 GeodesicLength=1.4257240075406095 rxn_smarts="[C:1]([C@@:2]12[C@@:3]3([H:11])[C:4]([H:12])([H:13])[N:5]1[C:6]([H:14])([H:15])[C@@:7]23[H:16])([H:8])([H:9])[H:10]>>[C:1]([C:2]1=[C:3]([H:11])[C:4]([H:12])([H:13])[N:5]2[C:6]([H:14])([H:15])[C@:7]12[H:16])([H:8])([H:9])[H:10]"
C        2.17949587       0.15229582       0.25565263
C        0.70362412       0.07749195       0.10830302
C       -0.31747701       0.71190520       0.83187253
C       -1.13413241       1.16145758      -0.35320671
N       -0.72772386      -0.01026458      -1.16588203
C       -1.44511599      -1.14816946      -0.59608909
C       -0.19741177      -1.05843500       0.18256410
H        2.61187718       0.71517023      -0.57454426
H        2.69050097      -0.81312066       0.25795388
H        2.47733148       0.63886532       1.18571055
H       -0.21017349       1.23793725       1.77156820
H       -2.20885423       1.27851597      -0.18480062
H       -0.80167188       2.09196345      -0.81744777
H       -1.50176506      -1.97336787      -1.30289327
H       -2.36803593      -1.03996173      -0.02598167
H        0.24953199      -2.02228346       0.42722052
16
Frame=16 idx=009270 GeodesicLength=1.5199190981523816 rxn_smarts="[C:1]([C@@:2]12[C@@:3]3([H:11])[C:4]([H:12])([H:13])[N:5]1[C:6]([H:14])([H:15])[C@@:7]23[H:16])([H:8])([H:9])[H:10]>>[C:1]([C:2]1=[C:3]([H:11])[C:4]([H:12])([H:13])[N:5]2[C:6]([H:14])([H:15])[C@:7]12[H:16])([H:8])([H:9])[H:10]"
C        2.17533378       0.15898191       0.25648240
C        0.69844720       0.08058937       0.11204169
C       -0.32144447       0.69819891       0.85097833
C       -1.12613171       1.16183234      -0.33885855
N       -0.70428042      -0.01418332      -1.14601542
C       -1.45170028      -1.14854500      -0.59817923
C       -0.19566430      -1.06627673       0.16792986
H        2.61509583       0.62984944      -0.62553096
H        2.68097286      -0.80312984       0.36467533
H        2.46892965       0.74209113       1.13052432
H       -0.21709296       1.21633786       1.79488615
H       -2.20252100       1.27477011      -0.18574746
H       -0.79275676       2.09097005      -0.80436170
H       -1.52694805      -1.95791809      -1.32039840
H       -2.36710753      -1.02925744      -0.02042937
H        0.26686819      -2.03431070       0.36200302
