12
Frame=0 idx=006757 GeodesicLength=0.0 rxn_smarts="[O:1]=[C:2]([C:3](=[O:4])[N:5]1[C:6]([H:9])([H:10])[C:7]1([H:11])[H:12])[H:8]>>[O:1]=[C:2]([C:3]1=[N:5][C:6]([H:9])([H:10])[C:7]([H:11])([H:12])[O:4]1)[H:8]"
O        2.39635222       0.71420957       1.85601984
C        2.17498949       0.15610918       0.82342589
C        0.83764038       0.20521220       0.08915600
O        0.87852140       0.62569648      -1.07635557
N       -0.20334681      -0.19263736       0.78197876
C       -1.36240140      -0.74616324       0.02361647
C       -1.42131587       0.41741220      -0.79836102
H        2.95516566      -0.39417795       0.26240298
H       -2.17157162      -0.87423690       0.73771266
H       -1.13489177      -1.67635257      -0.49645733
H       -1.19856668       0.41911808      -1.85310943
H       -1.75057495       1.34581028      -0.35002920
12
Frame=1 idx=006757 GeodesicLength=0.04621511082958856 rxn_smarts="[O:1]=[C:2]([C:3](=[O:4])[N:5]1[C:6]([H:9])([H:10])[C:7]1([H:11])[H:12])[H:8]>>[O:1]=[C:2]([C:3]1=[N:5][C:6]([H:9])([H:10])[C:7]([H:11])([H:12])[O:4]1)[H:8]"
O        2.36199981       0.74232963       1.85868187
C        2.17676271       0.16896095       0.82724264
C        0.84900743       0.15197863       0.07648613
O        0.88554715       0.55633752      -1.09709684
N       -0.19958495      -0.22188331       0.77021350
C       -1.37094092      -0.75001470       0.02027030
C       -1.40068168       0.43487754      -0.78057907
H        2.98973768      -0.33810986       0.27206403
H       -2.17954880      -0.86924672       0.73658250
H       -1.17120974      -1.67641505      -0.51703426
H       -1.21719945       0.43981452      -1.84313986
H       -1.72388923       1.36137084      -0.32369094
12
Frame=2 idx=006757 GeodesicLength=0.09281903092716468 rxn_smarts="[O:1]=[C:2]([C:3](=[O:4])[N:5]1[C:6]([H:9])([H:10])[C:7]1([H:11])[H:12])[H:8]>>[O:1]=[C:2]([C:3]1=[N:5][C:6]([H:9])([H:10])[C:7]([H:11])([H:12])[O:4]1)[H:8]"
O        2.32620414       0.76993853       1.85895299
C        2.17669326       0.18242305       0.82960230
C        0.86023618       0.09709579       0.06554234
O        0.89184628       0.48581062      -1.11573065
N       -0.19615346      -0.25237039       0.75924173
C       -1.37924827      -0.75370998       0.01695053
C       -1.37724001       0.45117837      -0.76264262
H        3.01965196      -0.27871555       0.27916785
H       -2.18774181      -0.86335495       0.73489879
H       -1.20778169      -1.67545654      -0.53715528
H       -1.23214866       0.46135717      -1.83136742
H       -1.69431791       1.37580389      -0.29746056
12
Frame=3 idx=006757 GeodesicLength=0.13994715782721795 rxn_smarts="[O:1]=[C:2]([C:3](=[O:4])[N:5]1[C:6]([H:9])([H:10])[C:7]1([H:11])[H:12])[H:8]>>[O:1]=[C:2]([C:3]1=[N:5][C:6]([H:9])([H:10])[C:7]([H:11])([H:12])[O:4]1)[H:8]"
O        2.28960119       0.79612642       1.85721490
C        2.17477009       0.19627356       0.83045949
C        0.87113763       0.04187441       0.05671979
O        0.89736596       0.41499940      -1.13207182
N       -0.19323411      -0.28324774       0.74930710
C       -1.38704634      -0.75719432       0.01376201
C       -1.35124079       0.46611831      -0.74477651
H        3.04415350      -0.21702848       0.28318764
H       -2.19597414      -0.85672830       0.73267179
H       -1.24360132      -1.67345632      -0.55649077
H       -1.24321714       0.48334252      -1.81811395
H       -1.66271453       1.38892054      -0.27186968
12
Frame=4 idx=006757 GeodesicLength=0.18760212217232763 rxn_smarts="[O:1]=[C:2]([C:3](=[O:4])[N:5]1[C:6]([H:9])([H:10])[C:7]1([H:11])[H:12])[H:8]>>[O:1]=[C:2]([C:3]1=[N:5][C:6]([H:9])([H:10])[C:7]([H:11])([H:12])[O:4]1)[H:8]"
O        2.25320328       0.81973079       1.85415431
C        2.17115009       0.21032835       0.82980077
C        0.88148185      -0.01204288       0.05030333
O        0.90199331       0.34517445      -1.14594858
N       -0.19097944      -0.31334774       0.74060934
C       -1.39402169      -0.76039874       0.01080679
C       -1.32316613       0.47949037      -0.72730334
H        3.06269713      -0.15455186       0.28379970
H       -2.20399461      -0.84956302       0.72989664
H       -1.27753994      -1.67048819      -0.57465067
H       -1.25053817       0.50514351      -1.80382357
H       -1.63028568       1.40052495      -0.24764472
12
Frame=5 idx=006757 GeodesicLength=0.23552808415897208 rxn_smarts="[O:1]=[C:2]([C:3](=[O:4])[N:5]1[C:6]([H:9])([H:10])[C:7]1([H:11])[H:12])[H:8]>>[O:1]=[C:2]([C:3]1=[N:5][C:6]([H:9])([H:10])[C:7]([H:11])([H:12])[O:4]1)[H:8]"
O        2.21842865       0.83933617       1.85068004
C        2.16623294       0.22387763       0.82790523
C        0.89099176      -0.06296541       0.04653665
O        0.90562257       0.27807277      -1.15705883
N       -0.18961688      -0.34121709       0.73336300
C       -1.39994834      -0.76323039       0.00820301
C       -1.29377314       0.49112487      -0.71071159
H        3.07529160      -0.09256003       0.28058291
H       -2.21165859      -0.84202019       0.72654075
H       -1.30847386      -1.66677104      -0.59108161
H       -1.25449148       0.52584868      -1.78912730
H       -1.59860523       1.41050403      -0.22583225
12
Frame=6 idx=006757 GeodesicLength=0.28334226064848045 rxn_smarts="[O:1]=[C:2]([C:3](=[O:4])[N:5]1[C:6]([H:9])([H:10])[C:7]1([H:11])[H:12])[H:8]>>[O:1]=[C:2]([C:3]1=[N:5][C:6]([H:9])([H:10])[C:7]([H:11])([H:12])[O:4]1)[H:8]"
O        2.18615959       0.85475826       1.84759541
C        2.16055028       0.23724128       0.82488907
C        0.89974251      -0.11031166       0.04513458
O        0.90835523       0.21422322      -1.16574792
N       -0.18905693      -0.36642651       0.72749043
C       -1.40492092      -0.76573313       0.00591901
C       -1.26373149       0.50108160      -0.69515758
H        3.08267057      -0.03216158       0.27416587
H       -2.21904131      -0.83430097       0.72269661
H       -1.33632677      -1.66250563      -0.60591681
H       -1.25590737       0.54521827      -1.77445450
H       -1.56849338       1.41891685      -0.20661418
12
Frame=7 idx=006757 GeodesicLength=0.33131916288572016 rxn_smarts="[O:1]=[C:2]([C:3](=[O:4])[N:5]1[C:6]([H:9])([H:10])[C:7]1([H:11])[H:12])[H:8]>>[O:1]=[C:2]([C:3]1=[N:5][C:6]([H:9])([H:10])[C:7]([H:11])([H:12])[O:4]1)[H:8]"
O        2.15699629       0.86489159       1.84547052
C        2.15421445       0.24944507       0.82114776
C        0.90744262      -0.15354306       0.04608560
O        0.91009490       0.15448711      -1.17170888
N       -0.18939663      -0.38815291       0.72293706
C       -1.40871597      -0.76779678       0.00403852
C       -1.23347310       0.50946455      -0.68090169
H        3.08489656       0.02687045       0.26410821
H       -2.22582569      -0.82627008       0.71823942
H       -1.36047341      -1.65799938      -0.61865554
H       -1.25510609       0.56257943      -1.76005845
H       -1.54065393       1.42602403      -0.19070253
12
Frame=8 idx=006757 GeodesicLength=0.37866627155567406 rxn_smarts="[O:1]=[C:2]([C:3](=[O:4])[N:5]1[C:6]([H:9])([H:10])[C:7]1([H:11])[H:12])[H:8]>>[O:1]=[C:2]([C:3]1=[N:5][C:6]([H:9])([H:10])[C:7]([H:11])([H:12])[O:4]1)[H:8]"
O        2.13190212       0.87039706       1.84470506
C        2.14784509       0.26108464       0.81678423
C        0.91423470      -0.19208074       0.04888125
O        0.91097444       0.09959798      -1.17553648
N       -0.19046810      -0.40606305       0.71954805
C       -1.41147782      -0.76958311       0.00248653
C       -1.20386270       0.51643465      -0.66805246
H        3.08316572       0.08233844       0.25191142
H       -2.23209272      -0.81843689       0.71336834
H       -1.38092718      -1.65352261      -0.62964495
H       -1.25324436       0.57794087      -1.74637648
H       -1.51604920       1.43189277      -0.17807451
12
Frame=9 idx=006757 GeodesicLength=0.425031880252683 rxn_smarts="[O:1]=[C:2]([C:3](=[O:4])[N:5]1[C:6]([H:9])([H:10])[C:7]1([H:11])[H:12])[H:8]>>[O:1]=[C:2]([C:3]1=[N:5][C:6]([H:9])([H:10])[C:7]([H:11])([H:12])[O:4]1)[H:8]"
O        2.11178455       0.87021038       1.84618062
C        2.14195493       0.27164708       0.81222130
C        0.92001612      -0.22551938       0.05337316
O        0.91104532       0.05022203      -1.17731653
N       -0.19232473      -0.41947318       0.71729607
C       -1.41327688      -0.77103866       0.00134361
C       -1.17551966       0.52214559      -0.65696784
H        3.07826513       0.13451684       0.23758349
H       -2.23791482      -0.81078875       0.70811190
H       -1.39752948      -1.64939516      -0.63852026
H       -1.25104393       0.59074135      -1.73391850
H       -1.49545655       1.43673186      -0.16938701
12
Frame=10 idx=006757 GeodesicLength=0.4708485035335838 rxn_smarts="[O:1]=[C:2]([C:3](=[O:4])[N:5]1[C:6]([H:9])([H:10])[C:7]1([H:11])[H:12])[H:8]>>[O:1]=[C:2]([C:3]1=[N:5][C:6]([H:9])([H:10])[C:7]([H:11])([H:12])[O:4]1)[H:8]"
O        2.09539068       0.86654006       1.84889905
C        2.13623956       0.28167421       0.80746519
C        0.92509658      -0.25541381       0.05902953
O        0.91052854       0.00477388      -1.17759414
N       -0.19462190      -0.42991959       0.71576077
C       -1.41436694      -0.77231918       0.00040654
C       -1.14809639       0.52696185      -0.64703676
H        3.07073202       0.18384000       0.22214895
H       -2.24332978      -0.80335686       0.70251613
H       -1.41144374      -1.64551464      -0.64613561
H       -1.24860352       0.60193634      -1.72212934
H       -1.47752511       1.44079774      -0.16333033
12
Frame=11 idx=006757 GeodesicLength=0.5162169490064203 rxn_smarts="[O:1]=[C:2]([C:3](=[O:4])[N:5]1[C:6]([H:9])([H:10])[C:7]1([H:11])[H:12])[H:8]>>[O:1]=[C:2]([C:3]1=[N:5][C:6]([H:9])([H:10])[C:7]([H:11])([H:12])[O:4]1)[H:8]"
O        2.08242111       0.85943241       1.85301993
C        2.13069079       0.29133004       0.80260552
C        0.92961071      -0.28250314       0.06565944
O        0.90959192      -0.03762070      -1.17663386
N       -0.19728349      -0.43796760       0.71480069
C       -1.41498751      -0.77343216      -0.00034796
C       -1.12146272       0.53103854      -0.63814207
H        3.06088652       0.23161574       0.20562074
H       -2.24853346      -0.79594415       0.69665873
H       -1.42336655      -1.64190913      -0.65267775
H       -1.24595106       0.61167057      -1.71098085
H       -1.46161625       1.44428959      -0.15958257
12
Frame=12 idx=006757 GeodesicLength=0.5612934277071329 rxn_smarts="[O:1]=[C:2]([C:3](=[O:4])[N:5]1[C:6]([H:9])([H:10])[C:7]1([H:11])[H:12])[H:8]>>[O:1]=[C:2]([C:3]1=[N:5][C:6]([H:9])([H:10])[C:7]([H:11])([H:12])[O:4]1)[H:8]"
O        2.07252465       0.84914187       1.85839701
C        2.12515154       0.30082393       0.79765813
C        0.93367232      -0.30744606       0.07311049
O        0.90831676      -0.07775516      -1.17461925
N       -0.20019155      -0.44417470       0.71427339
C       -1.41525213      -0.77437406      -0.00095703
C       -1.09544331       0.53449029      -0.63012016
H        3.04873959       0.27871106       0.18816723
H       -2.25355613      -0.78839743       0.69056544
H       -1.43379895      -1.63850042      -0.65834704
H       -1.24305984       0.62017417      -1.70034736
H       -1.44710296       1.44730651      -0.15778084
12
Frame=13 idx=006757 GeodesicLength=0.6064769159862322 rxn_smarts="[O:1]=[C:2]([C:3](=[O:4])[N:5]1[C:6]([H:9])([H:10])[C:7]1([H:11])[H:12])[H:8]>>[O:1]=[C:2]([C:3]1=[N:5][C:6]([H:9])([H:10])[C:7]([H:11])([H:12])[O:4]1)[H:8]"
O        2.06487513       0.83673439       1.86432836
C        2.11932511       0.31022690       0.79263089
C        0.93742618      -0.33117321       0.08125548
O        0.90684354      -0.11662914      -1.17169767
N       -0.20323596      -0.44945497       0.71403137
C       -1.41529024      -0.77521121      -0.00150714
C       -1.06960969       0.53744577      -0.62261325
H        3.03404231       0.32593438       0.16993624
H       -2.25845404      -0.78063605       0.68423509
H       -1.44337212      -1.63517912      -0.66354546
H       -1.23959551       0.62796269      -1.68987363
H       -1.43295470       1.44997958      -0.15718028
12
Frame=14 idx=006757 GeodesicLength=0.6513067553457715 rxn_smarts="[O:1]=[C:2]([C:3](=[O:4])[N:5]1[C:6]([H:9])([H:10])[C:7]1([H:11])[H:12])[H:8]>>[O:1]=[C:2]([C:3]1=[N:5][C:6]([H:9])([H:10])[C:7]([H:11])([H:12])[O:4]1)[H:8]"
O        2.06049237       0.82143368       1.87117212
C        2.11358055       0.31939412       0.78771549
C        0.94072368      -0.35268041       0.09001315
O        0.90507108      -0.15296539      -1.16787056
N       -0.20646471      -0.45279050       0.71408785
C       -1.41494264      -0.77590358      -0.00192009
C       -1.04465366       0.53993786      -0.61598470
H        3.01734931       0.37185372       0.15147182
H       -2.26307494      -0.77290458       0.67766914
H       -1.45138591      -1.63212557      -0.66789196
H       -1.23630302       0.63452361      -1.67999351
H       -1.42039210       1.45222703      -0.15846874
12
Frame=15 idx=006757 GeodesicLength=0.6960136927557213 rxn_smarts="[O:1]=[C:2]([C:3](=[O:4])[N:5]1[C:6]([H:9])([H:10])[C:7]1([H:11])[H:12])[H:8]>>[O:1]=[C:2]([C:3]1=[N:5][C:6]([H:9])([H:10])[C:7]([H:11])([H:12])[O:4]1)[H:8]"
O        2.05854692       0.80471795       1.87816122
C        2.10780692       0.32825530       0.78297797
C        0.94370289      -0.37271991       0.09923636
O        0.90313852      -0.18746413      -1.16334776
N       -0.20980195      -0.45498726       0.71433032
C       -1.41436931      -0.77656156      -0.00229700
C       -1.02025490       0.54208477      -0.60988830
H        2.99874555       0.41670099       0.13303675
H       -2.26754784      -0.76526809       0.67088625
H       -1.45841459      -1.62927440      -0.67184959
H       -1.23294469       0.64037184      -1.67039320
H       -1.40860752       1.45414450      -0.16085302
12
Frame=16 idx=006757 GeodesicLength=0.7407569459847962 rxn_smarts="[O:1]=[C:2]([C:3](=[O:4])[N:5]1[C:6]([H:9])([H:10])[C:7]1([H:11])[H:12])[H:8]>>[O:1]=[C:2]([C:3]1=[N:5][C:6]([H:9])([H:10])[C:7]([H:11])([H:12])[O:4]1)[H:8]"
O        2.05881645       0.78650943       1.88517508
C        2.10189150       0.33678231       0.77843189
C        0.94640650      -0.39166612       0.10890877
O        0.90108270      -0.22062332      -1.15815153
N       -0.21319943      -0.45633165       0.71470626
C       -1.41360121      -0.77714729      -0.00263648
C       -0.99623456       0.54390812      -0.60425478
H        2.97792061       0.46128720       0.11457270
H       -2.27185893      -0.75754985       0.66388400
H       -1.46468517      -1.62654366      -0.67544061
H       -1.22937500       0.64559296      -1.66100398
H       -1.39716345       1.45578186      -0.16419132
