15
Frame=0 idx=011614 GeodesicLength=0.0 rxn_smarts="[C:1](#[C:2][C:3]12[C:4]([H:9])([H:10])[C:5]([H:11])([C:6]1([H:12])[H:13])[C:7]2([H:14])[H:15])[H:8]>>[C:1](#[C:2][C:3]1([C:6]([H:11])([H:12])[H:13])[C:4]([H:9])([H:10])[C:5][C:7]1([H:14])[H:15])[H:8]"
C        2.64185991       1.02831910      -0.59887157
C        1.55205725       0.58799190      -0.36493736
C        0.22763463       0.05176342      -0.08258979
C       -0.08481149      -1.36991588       0.40484925
C       -1.53587604      -0.87854215       0.11303091
C       -0.65426835       0.72989328       0.97084406
C       -0.91238934      -0.11691568      -1.09647764
H        3.61061929       1.41611367      -0.80952938
H        0.18369086      -1.62758463       1.42924827
H        0.20090610      -2.16287731      -0.28534333
H       -1.76289130       0.00519817       0.97515623
H       -1.03621121       1.71766173       0.71535919
H       -0.32551392       0.63750672       2.00540244
H       -0.69756091      -0.80200217      -1.91581395
H       -1.40724547       0.78338982      -1.46032730
15
Frame=1 idx=011614 GeodesicLength=0.0629690542667274 rxn_smarts="[C:1](#[C:2][C:3]12[C:4]([H:9])([H:10])[C:5]([H:11])([C:6]1([H:12])[H:13])[C:7]2([H:14])[H:15])[H:8]>>[C:1](#[C:2][C:3]1([C:6]([H:11])([H:12])[H:13])[C:4]([H:9])([H:10])[C:5][C:7]1([H:14])[H:15])[H:8]"
C        2.63970935       1.02797500      -0.59804543
C        1.54955371       0.59067846      -0.36121196
C        0.22610643       0.05532854      -0.07870696
C       -0.08313413      -1.37017532       0.40351029
C       -1.53204227      -0.88275333       0.10738637
C       -0.65967027       0.73007012       0.97395418
C       -0.91053813      -0.11734190      -1.09760030
H        3.61100096       1.40537863      -0.81869368
H        0.18112522      -1.63113219       1.42845158
H        0.21152192      -2.16045757      -0.28731443
H       -1.78095307       0.00538926       0.98531098
H       -1.03219716       1.72139835       0.71801451
H       -0.32233302       0.64299401       2.00630566
H       -0.68799969      -0.79789885      -1.91956982
H       -1.41014986       0.78054679      -1.46179100
15
Frame=2 idx=011614 GeodesicLength=0.1247234988446421 rxn_smarts="[C:1](#[C:2][C:3]12[C:4]([H:9])([H:10])[C:5]([H:11])([C:6]1([H:12])[H:13])[C:7]2([H:14])[H:15])[H:8]>>[C:1](#[C:2][C:3]1([C:6]([H:11])([H:12])[H:13])[C:4]([H:9])([H:10])[C:5][C:7]1([H:14])[H:15])[H:8]"
C        2.63767483       1.02736900      -0.59741703
C        1.54713728       0.59310480      -0.35785319
C        0.22465580       0.05877490      -0.07498713
C       -0.08147912      -1.37048670       0.40212310
C       -1.52819756      -0.88675341       0.10194592
C       -0.66485322       0.73031856       0.97698198
C       -0.90875010      -0.11783634      -1.09875457
H        3.61112387       1.39529342      -0.82714882
H        0.17866182      -1.63467413       1.42752085
H        0.22181864      -2.15806265      -0.28911608
H       -1.79879360       0.00568439       0.99551289
H       -1.02807651       1.72503562       0.72061756
H       -0.31922253       0.64841746       2.00707360
H       -0.67873231      -0.79382590      -1.92320272
H       -1.41296728       0.77764098      -1.46329636
15
Frame=3 idx=011614 GeodesicLength=0.18546230541751063 rxn_smarts="[C:1](#[C:2][C:3]12[C:4]([H:9])([H:10])[C:5]([H:11])([C:6]1([H:12])[H:13])[C:7]2([H:14])[H:15])[H:8]>>[C:1](#[C:2][C:3]1([C:6]([H:11])([H:12])[H:13])[C:4]([H:9])([H:10])[C:5][C:7]1([H:14])[H:15])[H:8]"
C        2.63562563       1.02691148      -0.59665859
C        1.54473560       0.59571532      -0.35436253
C        0.22324174       0.06222686      -0.07122465
C       -0.07972145      -1.37079220       0.40062020
C       -1.52431158      -0.89064207       0.09656215
C       -0.67011913       0.73047277       0.98006412
C       -0.90689472      -0.11830604      -1.09990365
H        3.61116982       1.38475724      -0.83598451
H        0.17615944      -1.63824010       1.42650632
H        0.23223591      -2.15549364      -0.29077589
H       -1.81671239       0.00601327       1.00562126
H       -1.02411247       1.72853110       0.72332665
H       -0.31622855       0.65382096       2.00781185
H       -0.66936738      -0.78961103      -1.92679721
H       -1.41570048       0.77463608      -1.46480552
15
Frame=4 idx=011614 GeodesicLength=0.2451627014233358 rxn_smarts="[C:1](#[C:2][C:3]12[C:4]([H:9])([H:10])[C:5]([H:11])([C:6]1([H:12])[H:13])[C:7]2([H:14])[H:15])[H:8]>>[C:1](#[C:2][C:3]1([C:6]([H:11])([H:12])[H:13])[C:4]([H:9])([H:10])[C:5][C:7]1([H:14])[H:15])[H:8]"
C        2.63365227       1.02669162      -0.59552327
C        1.54238457       0.59841234      -0.35065735
C        0.22183585       0.06570705      -0.06741898
C       -0.07790547      -1.37108446       0.39908455
C       -1.52033295      -0.89438718       0.09118588
C       -0.67551284       0.73065272       0.98312527
C       -0.90488683      -0.11873524      -1.10106818
H        3.61096844       1.37373770      -0.84550675
H        0.17357632      -1.64182956       1.42543255
H        0.24273126      -2.15282072      -0.29236785
H       -1.83465944       0.00617779       1.01571275
H       -1.02017265       1.73194575       0.72612048
H       -0.31346966       0.65919220       2.00854969
H       -0.65981448      -0.78521870      -1.93034311
H       -1.41839439       0.77155868      -1.46632570
15
Frame=5 idx=011614 GeodesicLength=0.30420571391321816 rxn_smarts="[C:1](#[C:2][C:3]12[C:4]([H:9])([H:10])[C:5]([H:11])([C:6]1([H:12])[H:13])[C:7]2([H:14])[H:15])[H:8]>>[C:1](#[C:2][C:3]1([C:6]([H:11])([H:12])[H:13])[C:4]([H:9])([H:10])[C:5][C:7]1([H:14])[H:15])[H:8]"
C        2.63172035       1.02625302      -0.59476003
C        1.54007948       0.60091789      -0.34729657
C        0.22046794       0.06906957      -0.06379367
C       -0.07615882      -1.37142408       0.39753498
C       -1.51635150      -0.89801809       0.08592665
C       -0.68074002       0.73082581       0.98611156
C       -0.90293448      -0.11927383      -1.10228435
H        3.61061324       1.36326520      -0.85409119
H        0.17111832      -1.64544321       1.42422971
H        0.25300779      -2.15016962      -0.29386536
H       -1.85245524       0.00649560       1.02599833
H       -1.01615854       1.73533680       0.72885178
H       -0.31058476       0.66461151       2.00913439
H       -0.65058403      -0.78085633      -1.93378184
H       -1.42103973       0.76840976      -1.46791439
15
Frame=6 idx=011614 GeodesicLength=0.36207326321395117 rxn_smarts="[C:1](#[C:2][C:3]12[C:4]([H:9])([H:10])[C:5]([H:11])([C:6]1([H:12])[H:13])[C:7]2([H:14])[H:15])[H:8]>>[C:1](#[C:2][C:3]1([C:6]([H:11])([H:12])[H:13])[C:4]([H:9])([H:10])[C:5][C:7]1([H:14])[H:15])[H:8]"
C        2.62973212       1.02620746      -0.59392516
C        1.53778108       0.60354623      -0.34387104
C        0.21907666       0.07243844      -0.06018842
C       -0.07427198      -1.37170952       0.39592656
C       -1.51227426      -0.90147888       0.08077913
C       -0.68600379       0.73101721       0.98915628
C       -0.90086323      -0.11975075      -1.10353120
H        3.61021107       1.35210090      -0.86285336
H        0.16868460      -1.64901283       1.42292485
H        0.26336580      -2.14742672      -0.29532339
H       -1.87032212       0.00667538       1.03619997
H       -1.01230852       1.73859137       0.73167167
H       -0.30781662       0.67004152       2.00966194
H       -0.64128236      -0.77638785      -1.93716215
H       -1.42370845       0.76514804      -1.46946568
15
Frame=7 idx=011614 GeodesicLength=0.419396992123195 rxn_smarts="[C:1](#[C:2][C:3]12[C:4]([H:9])([H:10])[C:5]([H:11])([C:6]1([H:12])[H:13])[C:7]2([H:14])[H:15])[H:8]>>[C:1](#[C:2][C:3]1([C:6]([H:11])([H:12])[H:13])[C:4]([H:9])([H:10])[C:5][C:7]1([H:14])[H:15])[H:8]"
C        2.62782809       1.02620155      -0.59308348
C        1.53549015       0.60618162      -0.34056076
C        0.21770011       0.07579120      -0.05663676
C       -0.07236478      -1.37198174       0.39429384
C       -1.50813421      -0.90494134       0.07559330
C       -0.69122271       0.73119039       0.99214901
C       -0.89879678      -0.12024741      -1.10478979
H        3.60954602       1.34080410      -0.87138174
H        0.16638013      -1.65255697       1.42152820
H        0.27366797      -2.14463069      -0.29671293
H       -1.88805565       0.00691348       1.04655089
H       -1.00845519       1.74180832       0.73447001
H       -0.30514249       0.67549437       2.01013449
H       -0.63208769      -0.77186727      -1.94050893
H       -1.42635298       0.76184039      -1.47104535
15
Frame=8 idx=011614 GeodesicLength=0.47570411064867263 rxn_smarts="[C:1](#[C:2][C:3]12[C:4]([H:9])([H:10])[C:5]([H:11])([C:6]1([H:12])[H:13])[C:7]2([H:14])[H:15])[H:8]>>[C:1](#[C:2][C:3]1([C:6]([H:11])([H:12])[H:13])[C:4]([H:9])([H:10])[C:5][C:7]1([H:14])[H:15])[H:8]"
C        2.62604109       1.02625290      -0.59200284
C        1.53330727       0.60882585      -0.33701118
C        0.21637591       0.07915431      -0.05302405
C       -0.07042921      -1.37227812       0.39261732
C       -1.50396147      -0.90823702       0.07047401
C       -0.69647920       0.73129960       0.99521803
C       -0.89657360      -0.12076520      -1.10607144
H        3.60855114       1.32939548      -0.88060775
H        0.16388416      -1.65619454       1.42003715
H        0.28401200      -2.14172170      -0.29792538
H       -1.90593614       0.00718335       1.05673749
H       -1.00469084       1.74489248       0.73738342
H       -0.30259417       0.68088132       2.01059761
H       -0.62271079      -0.76719041      -1.94377138
H       -1.42879614       0.75850170      -1.47265101
15
Frame=9 idx=011614 GeodesicLength=0.5305863068385268 rxn_smarts="[C:1](#[C:2][C:3]12[C:4]([H:9])([H:10])[C:5]([H:11])([C:6]1([H:12])[H:13])[C:7]2([H:14])[H:15])[H:8]>>[C:1](#[C:2][C:3]1([C:6]([H:11])([H:12])[H:13])[C:4]([H:9])([H:10])[C:5][C:7]1([H:14])[H:15])[H:8]"
C        2.62435420       1.02607648      -0.59118939
C        1.53122129       0.61110361      -0.33390186
C        0.21513515       0.08231230      -0.04964487
C       -0.06852148      -1.37264388       0.39096158
C       -1.49978146      -0.91125096       0.06566885
C       -0.70154046       0.73144163       0.99811544
C       -0.89441009      -0.12137555      -1.10737854
H        3.60726326       1.31890976      -0.88876341
H        0.16151342      -1.65988839       1.41845392
H        0.29397758      -2.13898889      -0.29914406
H       -1.92359418       0.00765024       1.06693885
H       -1.00067285       1.74798032       0.74019554
H       -0.29993650       0.68626064       2.01092827
H       -0.61382009      -0.76273070      -1.94692899
H       -1.43118778       0.75514340      -1.47431133
15
Frame=10 idx=011614 GeodesicLength=0.5847450212734717 rxn_smarts="[C:1](#[C:2][C:3]12[C:4]([H:9])([H:10])[C:5]([H:11])([C:6]1([H:12])[H:13])[C:7]2([H:14])[H:15])[H:8]>>[C:1](#[C:2][C:3]1([C:6]([H:11])([H:12])[H:13])[C:4]([H:9])([H:10])[C:5][C:7]1([H:14])[H:15])[H:8]"
C        2.62283870       1.02591638      -0.59000954
C        1.52917299       0.61345102      -0.33064649
C        0.21390726       0.08546523      -0.04623861
C       -0.06657485      -1.37299474       0.38922958
C       -1.49558586      -0.91414533       0.06088034
C       -0.70666010       0.73159411       1.00102744
C       -0.89216407      -0.12191378      -1.10870177
H        3.60561734       1.30817864      -0.89748652
H        0.15906017      -1.66361713       1.41677378
H        0.30406865      -2.13611852      -0.30025178
H       -1.94133745       0.00809963       1.07715969
H       -0.99668231       1.75099895       0.74310262
H       -0.29740951       0.69159656       2.01126645
H       -0.60478650      -0.75812694      -1.95006704
H       -1.43346447       0.75161593      -1.47603815
15
Frame=11 idx=011614 GeodesicLength=0.6379769922895017 rxn_smarts="[C:1](#[C:2][C:3]12[C:4]([H:9])([H:10])[C:5]([H:11])([C:6]1([H:12])[H:13])[C:7]2([H:14])[H:15])[H:8]>>[C:1](#[C:2][C:3]1([C:6]([H:11])([H:12])[H:13])[C:4]([H:9])([H:10])[C:5][C:7]1([H:14])[H:15])[H:8]"
C        2.62130716       1.02580307      -0.58907060
C        1.52715264       0.61578240      -0.32752242
C        0.21268031       0.08854553      -0.04291475
C       -0.06453865      -1.37332327       0.38743267
C       -1.49133131      -0.91689862       0.05619389
C       -0.71171144       0.73181572       1.00389912
C       -0.88990274      -0.12251597      -1.11006900
H        3.60389533       1.29736648      -0.90579959
H        0.15670936      -1.66728980       1.41505235
H        0.31402204      -2.13322061      -0.30128614
H       -1.95902994       0.00846539       1.08741002
H       -0.99274691       1.75385512       0.74601688
H       -0.29492493       0.69696029       2.01151142
H       -0.59587272      -0.75340936      -1.95308664
H       -1.43570819       0.74806363      -1.47776723
15
Frame=12 idx=011614 GeodesicLength=0.6907606832504412 rxn_smarts="[C:1](#[C:2][C:3]12[C:4]([H:9])([H:10])[C:5]([H:11])([C:6]1([H:12])[H:13])[C:7]2([H:14])[H:15])[H:8]>>[C:1](#[C:2][C:3]1([C:6]([H:11])([H:12])[H:13])[C:4]([H:9])([H:10])[C:5][C:7]1([H:14])[H:15])[H:8]"
C        2.61977858       1.02595111      -0.58808053
C        1.52515409       0.61819050      -0.32432881
C        0.21145559       0.09165815      -0.03960631
C       -0.06244424      -1.37363652       0.38561641
C       -1.48699315      -0.91965663       0.05150888
C       -0.71680753       0.73195234       1.00680335
C       -0.88756375      -0.12314337      -1.11143795
H        3.60200043       1.28609886      -0.91426576
H        0.15435882      -1.67099361       1.41318877
H        0.32410225      -2.13024113      -0.30226422
H       -1.97675044       0.00898977       1.09776557
H       -0.98884688       1.75668634       0.74899115
H       -0.29262871       0.70229877       2.01168484
H       -0.58686615      -0.74857321      -1.95609436
H       -1.43794889       0.74441862      -1.47948105
15
Frame=13 idx=011614 GeodesicLength=0.7429785005948137 rxn_smarts="[C:1](#[C:2][C:3]12[C:4]([H:9])([H:10])[C:5]([H:11])([C:6]1([H:12])[H:13])[C:7]2([H:14])[H:15])[H:8]>>[C:1](#[C:2][C:3]1([C:6]([H:11])([H:12])[H:13])[C:4]([H:9])([H:10])[C:5][C:7]1([H:14])[H:15])[H:8]"
C        2.61834954       1.02607155      -0.58708360
C        1.52320105       0.62054409      -0.32117247
C        0.21027264       0.09466780      -0.03632766
C       -0.06033866      -1.37397903       0.38378752
C       -1.48262983      -0.92236969       0.04682655
C       -0.72183613       0.73208120       1.00970486
C       -0.88521306      -0.12378487      -1.11280281
H        3.59986656       1.27496461      -0.92265497
H        0.15203350      -1.67473309       1.41126487
H        0.33408421      -2.12720701      -0.30317617
H       -1.99447400       0.00968498       1.10814505
H       -0.98492976       1.75945332       0.75195206
H       -0.29035973       0.70760928       2.01181081
H       -0.57790426      -0.74369188      -1.95907216
H       -1.44012205       0.74068874      -1.48120187
15
Frame=14 idx=011614 GeodesicLength=0.7942230067745866 rxn_smarts="[C:1](#[C:2][C:3]12[C:4]([H:9])([H:10])[C:5]([H:11])([C:6]1([H:12])[H:13])[C:7]2([H:14])[H:15])[H:8]>>[C:1](#[C:2][C:3]1([C:6]([H:11])([H:12])[H:13])[C:4]([H:9])([H:10])[C:5][C:7]1([H:14])[H:15])[H:8]"
C        2.61699201       1.02583743      -0.58657343
C        1.52130002       0.62263444      -0.31841806
C        0.20911981       0.09760055      -0.03323181
C       -0.05823807      -1.37435021       0.38189553
C       -1.47832663      -0.92495261       0.04236039
C       -0.72669777       0.73229364       1.01247399
C       -0.88291294      -0.12450115      -1.11423521
H        3.59763042       1.26454647      -0.92992632
H        0.14981665      -1.67844646       1.40920479
H        0.34383372      -2.12423532      -0.30400741
H       -2.01202509       0.01050803       1.11863192
H       -0.98089406       1.76213786       0.75488061
H       -0.28797599       0.71294614       2.01179604
H       -0.56928662      -0.73891491      -1.96193848
H       -1.44233548       0.73689611      -1.48291256
15
Frame=15 idx=011614 GeodesicLength=0.8449924557613604 rxn_smarts="[C:1](#[C:2][C:3]12[C:4]([H:9])([H:10])[C:5]([H:11])([C:6]1([H:12])[H:13])[C:7]2([H:14])[H:15])[H:8]>>[C:1](#[C:2][C:3]1([C:6]([H:11])([H:12])[H:13])[C:4]([H:9])([H:10])[C:5][C:7]1([H:14])[H:15])[H:8]"
C        2.61566698       1.02601753      -0.58561110
C        1.51938014       0.62504765      -0.31535654
C        0.20795983       0.10061693      -0.03004975
C       -0.05601649      -1.37467819       0.37994114
C       -1.47387965      -0.92744342       0.03782820
C       -0.73169699       0.73245652       1.01532647
C       -0.88042577      -0.12517203      -1.11568903
H        3.59515335       1.25309346      -0.93817006
H        0.14754320      -1.68216371       1.40707005
H        0.35386565      -2.12107656      -0.30475334
H       -2.02978412       0.01122471       1.12913380
H       -0.97711476       1.76471625       0.75796171
H       -0.28582787       0.71823840       2.01185556
H       -0.56040686      -0.73393805      -1.96479595
H       -1.44441665       0.73306050      -1.48469117
15
Frame=16 idx=011614 GeodesicLength=0.8949525055030368 rxn_smarts="[C:1](#[C:2][C:3]12[C:4]([H:9])([H:10])[C:5]([H:11])([C:6]1([H:12])[H:13])[C:7]2([H:14])[H:15])[H:8]>>[C:1](#[C:2][C:3]1([C:6]([H:11])([H:12])[H:13])[C:4]([H:9])([H:10])[C:5][C:7]1([H:14])[H:15])[H:8]"
C        2.61451211       1.02566419      -0.58495121
C        1.51759555       0.62706212      -0.31252786
C        0.20687522       0.10342616      -0.02697952
C       -0.05390978      -1.37509636       0.37800146
C       -1.46952387      -0.92979771       0.03340999
C       -0.73646914       0.73263583       1.01811398
C       -0.87794905      -0.12589461      -1.11715311
H        3.59230694       1.24288518      -0.94575012
H        0.14516005      -1.68595647       1.40490096
H        0.36357575      -2.11803136      -0.30538488
H       -2.04743532       0.01214196       1.13966448
H       -0.97307450       1.76728821       0.76094821
H       -0.28353785       0.72352906       2.01179013
H       -0.55174988      -0.72906532      -1.96759591
H       -1.44637621       0.72920913      -1.48648661
