14
Frame=0 idx=000281 GeodesicLength=0.0 rxn_smarts="[C:1]([C@@:2]1([H:10])[O:3][C:4]([H:11])([H:12])[C:5]([H:13])=[C:6]1[H:14])([H:7])([H:8])[H:9]>>[C:1]([C@:5]1([H:13])[C:4]([H:11])([H:12])[O:3][C:2]([H:10])=[C:6]1[H:14])([H:7])([H:8])[H:9]"
C        1.60398422      -0.62348031       0.86930176
C        0.29734434       0.80163931      -1.10131605
O       -0.30941416      -0.30668826      -1.54928510
C       -1.28298549      -0.69996562      -0.55955945
C       -1.02819139       0.23553814       0.57864793
C       -0.22128299       1.23872247       0.10103763
H        1.03540670      -0.99359111       0.04607435
H        2.40364177      -1.25369407       1.24457013
H        1.41811696       0.30193788       1.36856205
H        0.99304732       1.26986325      -1.77949177
H       -2.27957647      -0.56131577      -1.00001813
H       -1.14767094      -1.75828071      -0.34057884
H       -1.59769470       0.23186014       1.49449017
H        0.11527478       2.11745461       0.62756536
14
Frame=1 idx=000281 GeodesicLength=0.1233669150450926 rxn_smarts="[C:1]([C@@:2]1([H:10])[O:3][C:4]([H:11])([H:12])[C:5]([H:13])=[C:6]1[H:14])([H:7])([H:8])[H:9]>>[C:1]([C@:5]1([H:13])[C:4]([H:11])([H:12])[O:3][C:2]([H:10])=[C:6]1[H:14])([H:7])([H:8])[H:9]"
C        1.60217361      -0.59774628       0.86307553
C        0.33266575       0.76983585      -1.08534510
O       -0.30291584      -0.32249604      -1.54180394
C       -1.29324763      -0.69017731      -0.56014470
C       -1.01892315       0.23605908       0.58305501
C       -0.21254003       1.23810489       0.09551040
H        1.05171625      -1.07681729       0.08398915
H        2.51324191      -1.13610383       1.10803792
H        1.31320719       0.21448427       1.49397136
H        0.99962878       1.25391861      -1.78178664
H       -2.28357799      -0.52752172      -1.00618442
H       -1.19128912      -1.75235111      -0.34088722
H       -1.62554685       0.26562319       1.47490492
H        0.11540710       2.12518767       0.61360773
14
Frame=2 idx=000281 GeodesicLength=0.2490926359564251 rxn_smarts="[C:1]([C@@:2]1([H:10])[O:3][C:4]([H:11])([H:12])[C:5]([H:13])=[C:6]1[H:14])([H:7])([H:8])[H:9]>>[C:1]([C@:5]1([H:13])[C:4]([H:11])([H:12])[O:3][C:2]([H:10])=[C:6]1[H:14])([H:7])([H:8])[H:9]"
C        1.59530052      -0.57455196       0.85661158
C        0.36361813       0.74189055      -1.07097834
O       -0.29606573      -0.33734040      -1.53368546
C       -1.30058434      -0.68098108      -0.55905861
C       -1.00903401       0.23759752       0.58811727
C       -0.20180677       1.23779045       0.09142658
H        1.07874209      -1.15526674       0.12306976
H        2.58768173      -0.99927288       0.98597939
H        1.21695213       0.10452837       1.59067498
H        1.00359626       1.23980933      -1.78375710
H       -2.28499669      -0.49744304      -1.00975768
H       -1.22804816      -1.74550022      -0.33857254
H       -1.64781660       0.29897847       1.45629410
H        0.12246144       2.12976162       0.60363608
14
Frame=3 idx=000281 GeodesicLength=0.3767587690558806 rxn_smarts="[C:1]([C@@:2]1([H:10])[O:3][C:4]([H:11])([H:12])[C:5]([H:13])=[C:6]1[H:14])([H:7])([H:8])[H:9]>>[C:1]([C@:5]1([H:13])[C:4]([H:11])([H:12])[O:3][C:2]([H:10])=[C:6]1[H:14])([H:7])([H:8])[H:9]"
C        1.58320060      -0.55337250       0.85140267
C        0.39046798       0.71827997      -1.05844576
O       -0.28935630      -0.35051379      -1.52555665
C       -1.30518959      -0.67241959      -0.55655048
C       -0.99814412       0.23987347       0.59376113
C       -0.19136299       1.23901509       0.08751933
H        1.11639253      -1.22694957       0.16297556
H        2.62643124      -0.86104869       0.87946488
H        1.13436963      -0.01461800       1.66002495
H        1.00744417       1.22703570      -1.78473806
H       -2.28439407      -0.47149570      -1.01076253
H       -1.25760756      -1.73820182      -0.33440204
H       -1.66236900       0.32928312       1.44087224
H        0.13011748       2.13513232       0.59443476
14
Frame=4 idx=000281 GeodesicLength=0.5062429418677357 rxn_smarts="[C:1]([C@@:2]1([H:10])[O:3][C:4]([H:11])([H:12])[C:5]([H:13])=[C:6]1[H:14])([H:7])([H:8])[H:9]>>[C:1]([C@:5]1([H:13])[C:4]([H:11])([H:12])[O:3][C:2]([H:10])=[C:6]1[H:14])([H:7])([H:8])[H:9]"
C        1.56699310      -0.53407863       0.84677834
C        0.41342812       0.69856226      -1.04828429
O       -0.28435843      -0.36148305      -1.51822603
C       -1.30809099      -0.66415265      -0.55259077
C       -0.98624014       0.24328919       0.59979044
C       -0.18207201       1.24237398       0.08261979
H        1.16786863      -1.29047098       0.20011984
H        2.63693790      -0.72883763       0.79331903
H        1.06099145      -0.14028862       1.70554683
H        1.01091573       1.21531699      -1.78614949
H       -2.28344209      -0.44899328      -1.00817032
H       -1.28086951      -1.73039857      -0.32822479
H       -1.66972780       0.35696231       1.42920034
H        0.13766604       2.14219868       0.58427109
14
Frame=5 idx=000281 GeodesicLength=0.637122815435484 rxn_smarts="[C:1]([C@@:2]1([H:10])[O:3][C:4]([H:11])([H:12])[C:5]([H:13])=[C:6]1[H:14])([H:7])([H:8])[H:9]>>[C:1]([C@:5]1([H:13])[C:4]([H:11])([H:12])[O:3][C:2]([H:10])=[C:6]1[H:14])([H:7])([H:8])[H:9]"
C        1.54670559      -0.51720155       0.84349016
C        0.43348996       0.68166111      -1.03970716
O       -0.28082037      -0.37073490      -1.51148564
C       -1.31024059      -0.65581841      -0.54772285
C       -0.97378371       0.24765368       0.60601018
C       -0.17435530       1.24760740       0.07654748
H        1.23139344      -1.34620019       0.23720546
H        2.62616504      -0.60472628       0.72263825
H        0.99631362      -0.26836115       1.73080367
H        1.01526441       1.20370946      -1.78731541
H       -2.28261680      -0.42860379      -1.00333504
H       -1.30004535      -1.72205836      -0.32083521
H       -1.67122025       0.38173169       1.42129677
H        0.14375033       2.15134131       0.57240935
14
Frame=6 idx=000281 GeodesicLength=0.7690830485107996 rxn_smarts="[C:1]([C@@:2]1([H:10])[O:3][C:4]([H:11])([H:12])[C:5]([H:13])=[C:6]1[H:14])([H:7])([H:8])[H:9]>>[C:1]([C@:5]1([H:13])[C:4]([H:11])([H:12])[O:3][C:2]([H:10])=[C:6]1[H:14])([H:7])([H:8])[H:9]"
C        1.52284772      -0.50335443       0.84114045
C        0.45097152       0.66653468      -1.03263662
O       -0.27952493      -0.37853659      -1.50549987
C       -1.31265295      -0.64712533      -0.54204622
C       -0.96103887       0.25299579       0.61232191
C       -0.16808541       1.25430333       0.06906881
H        1.30856890      -1.39298087       0.27357922
H        2.59972650      -0.48857014       0.66856583
H        0.93766937      -0.39884031       1.73728789
H        1.02033889       1.19140966      -1.78870455
H       -2.28292628      -0.40929851      -0.99621002
H       -1.31692369      -1.71304100      -0.31231513
H       -1.66794762       0.40448333       1.41693130
H        0.14897685       2.16202041       0.55851699
14
Frame=7 idx=000281 GeodesicLength=0.901735075713168 rxn_smarts="[C:1]([C@@:2]1([H:10])[O:3][C:4]([H:11])([H:12])[C:5]([H:13])=[C:6]1[H:14])([H:7])([H:8])[H:9]>>[C:1]([C@:5]1([H:13])[C:4]([H:11])([H:12])[O:3][C:2]([H:10])=[C:6]1[H:14])([H:7])([H:8])[H:9]"
C        1.49584269      -0.49343352       0.83933806
C        0.46625237       0.65213678      -1.02671349
O       -0.28073964      -0.38536349      -1.50021986
C       -1.31617614      -0.63783618      -0.53586401
C       -0.94814770       0.25887444       0.61872347
C       -0.16305629       1.26175693       0.06030209
H        1.39944366      -1.42970735       0.31078933
H        2.56135563      -0.37953729       0.62994392
H        0.88440404      -0.53029299       1.72599268
H        1.02635666       1.17758255      -1.79014800
H       -2.28489453      -0.38986001      -0.98733080
H       -1.33351046      -1.70325584      -0.30326709
H       -1.66080686       0.42544997       1.41576720
H        0.15367658       2.17348598       0.54268650
14
Frame=8 idx=000281 GeodesicLength=1.0344701215278895 rxn_smarts="[C:1]([C@@:2]1([H:10])[O:3][C:4]([H:11])([H:12])[C:5]([H:13])=[C:6]1[H:14])([H:7])([H:8])[H:9]>>[C:1]([C@:5]1([H:13])[C:4]([H:11])([H:12])[O:3][C:2]([H:10])=[C:6]1[H:14])([H:7])([H:8])[H:9]"
C        1.46643439      -0.48815462       0.83721241
C        0.47954068       0.63751731      -1.02181627
O       -0.28490079      -0.39156764      -1.49577698
C       -1.32157665      -0.62774529      -0.52948378
C       -0.93517433       0.26481796       0.62515352
C       -0.15896073       1.26923898       0.05034797
H        1.50409116      -1.45442968       0.35094339
H        2.51392733      -0.27713331       0.60667899
H        0.83584156      -0.66174389       1.69697752
H        1.03322523       1.16152577      -1.79172330
H       -2.28907797      -0.36920726      -0.97698343
H       -1.35159105      -1.69258896      -0.29430967
H       -1.65016647       0.44460317       1.41767661
H        0.15838763       2.18486745       0.52510302
14
Frame=9 idx=000281 GeodesicLength=1.166597337712223 rxn_smarts="[C:1]([C@@:2]1([H:10])[O:3][C:4]([H:11])([H:12])[C:5]([H:13])=[C:6]1[H:14])([H:7])([H:8])[H:9]>>[C:1]([C@:5]1([H:13])[C:4]([H:11])([H:12])[O:3][C:2]([H:10])=[C:6]1[H:14])([H:7])([H:8])[H:9]"
C        1.43566935      -0.48804704       0.83361996
C        0.49102770       0.62208094      -1.01781001
O       -0.29210941      -0.39730251      -1.49238475
C       -1.32925801      -0.61673385      -0.52338222
C       -0.92197456       0.27001365       0.63157095
C       -0.15549828       1.27599067       0.03953903
H        1.62048407      -1.46527885       0.39870611
H        2.45928339      -0.18171233       0.59618121
H        0.79248656      -0.79126193       1.65064694
H        1.04086096       1.14305483      -1.79329410
H       -2.29559978      -0.34638571      -0.96568823
H       -1.37254303      -1.68101939      -0.28646931
H       -1.63622727       0.46132193       1.42243949
H        0.16339831       2.19527961       0.50632492
14
Frame=10 idx=000281 GeodesicLength=1.2973854655536823 rxn_smarts="[C:1]([C@@:2]1([H:10])[O:3][C:4]([H:11])([H:12])[C:5]([H:13])=[C:6]1[H:14])([H:7])([H:8])[H:9]>>[C:1]([C@:5]1([H:13])[C:4]([H:11])([H:12])[O:3][C:2]([H:10])=[C:6]1[H:14])([H:7])([H:8])[H:9]"
C        1.40483962      -0.49320703       0.82733370
C        0.50083078       0.60552537      -1.01476641
O       -0.30253444      -0.40240073      -1.49043149
C       -1.33932646      -0.60474286      -0.51792289
C       -0.90819281       0.27365930       0.63793928
C       -0.15230930       1.28139297       0.02821218
H        1.74513452      -1.45988902       0.45977554
H        2.39894950      -0.09403597       0.59541788
H        0.75494357      -0.91816915       1.58683004
H        1.04905845       1.12227300      -1.79492620
H       -2.30444773      -0.32079525      -0.95358755
H       -1.39708997      -1.66854848      -0.28063237
H       -1.61884396       0.47490960       1.42989698
H        0.16898824       2.20402825       0.48686131
14
Frame=11 idx=000281 GeodesicLength=1.425901984618614 rxn_smarts="[C:1]([C@@:2]1([H:10])[O:3][C:4]([H:11])([H:12])[C:5]([H:13])=[C:6]1[H:14])([H:7])([H:8])[H:9]>>[C:1]([C@:5]1([H:13])[C:4]([H:11])([H:12])[O:3][C:2]([H:10])=[C:6]1[H:14])([H:7])([H:8])[H:9]"
C        1.37536431      -0.50329961       0.81711004
C        0.50900487       0.58809506      -1.01287094
O       -0.31620441      -0.40623294      -1.49046082
C       -1.35140386      -0.59187598      -0.51338541
C       -0.89326475       0.27488274       0.64424009
C       -0.14912723       1.28505977       0.01681625
H        1.87139576      -1.43633617       0.54115782
H        2.33464796      -0.01600605       0.59958250
H        0.72468266      -1.04146109       1.50538358
H        1.05751705       1.09996893      -1.79669946
H       -2.31528920      -0.29244038      -0.94055605
H       -1.42489056      -1.65534673      -0.27763312
H       -1.59769622       0.48436322       1.43986514
H        0.17526361       2.21062922       0.46745039
14
Frame=12 idx=000281 GeodesicLength=1.5509597799641401 rxn_smarts="[C:1]([C@@:2]1([H:10])[O:3][C:4]([H:11])([H:12])[C:5]([H:13])=[C:6]1[H:14])([H:7])([H:8])[H:9]>>[C:1]([C@:5]1([H:13])[C:4]([H:11])([H:12])[O:3][C:2]([H:10])=[C:6]1[H:14])([H:7])([H:8])[H:9]"
C        1.34866847      -0.51750098       0.80180873
C        0.51552649       0.57059302      -1.01247725
O       -0.33297023      -0.40782534      -1.49306954
C       -1.36465178      -0.57845372      -0.50985626
C       -0.87651727       0.27291086       0.65045565
C       -0.14579165       1.28691239       0.00587403
H        1.98913721      -1.39341480       0.65038683
H        2.26925206       0.04954846       0.60237125
H        0.70374494      -1.15985804       1.40615265
H        1.06566974       1.07765544      -1.79889230
H       -2.32754419      -0.26206477      -0.92610803
H       -1.45446830      -1.64181469      -0.27797880
H       -1.57234194       0.48851538       1.45221249
H        0.18228645       2.21479679       0.44912055
14
Frame=13 idx=000281 GeodesicLength=1.6708770820820373 rxn_smarts="[C:1]([C@@:2]1([H:10])[O:3][C:4]([H:11])([H:12])[C:5]([H:13])=[C:6]1[H:14])([H:7])([H:8])[H:9]>>[C:1]([C@:5]1([H:13])[C:4]([H:11])([H:12])[O:3][C:2]([H:10])=[C:6]1[H:14])([H:7])([H:8])[H:9]"
C        1.32580039      -0.53455635       0.78050060
C        0.52025349       0.55438219      -1.01403298
O       -0.35245143      -0.40605781      -1.49868652
C       -1.37780238      -0.56512950      -0.50716025
C       -0.85722351       0.26710185       0.65656464
C       -0.14214531       1.28713347      -0.00390962
H        2.08396701      -1.33019290       0.79422486
H        2.20733592       0.09887263       0.59551263
H        0.69511504      -1.27159300       1.29009419
H        1.07273108       1.05752688      -1.80184167
H       -2.34034232      -0.23124816      -0.90948962
H       -1.48323995      -1.62874927      -0.28176769
H       -1.54242852       0.48621144       1.46663652
H        0.19043048       2.21629853       0.43335493
14
Frame=14 idx=000281 GeodesicLength=1.7833185544176433 rxn_smarts="[C:1]([C@@:2]1([H:10])[O:3][C:4]([H:11])([H:12])[C:5]([H:13])=[C:6]1[H:14])([H:7])([H:8])[H:9]>>[C:1]([C@:5]1([H:13])[C:4]([H:11])([H:12])[O:3][C:2]([H:10])=[C:6]1[H:14])([H:7])([H:8])[H:9]"
C        1.30784248      -0.55268308       0.75251108
C        0.52312739       0.54119219      -1.01825965
O       -0.37416119      -0.39965973      -1.50761804
C       -1.38926020      -0.55282674      -0.50471089
C       -0.83459843       0.25711509       0.66265044
C       -0.13767289       1.28604680      -0.01158379
H        2.13601843      -1.24314450       0.98249430
H        2.15750835       0.12542945       0.56803895
H        0.70188353      -1.37572376       1.15567734
H        1.07635241       1.04308769      -1.80688365
H       -2.35282818      -0.20247724      -0.88940977
H       -1.50756883      -1.61729891      -0.28843388
H       -1.50733185       0.47616684       1.48330756
H        0.20068897       2.21477591       0.42222001
14
Frame=15 idx=000281 GeodesicLength=1.886637793082868 rxn_smarts="[C:1]([C@@:2]1([H:10])[O:3][C:4]([H:11])([H:12])[C:5]([H:13])=[C:6]1[H:14])([H:7])([H:8])[H:9]>>[C:1]([C@:5]1([H:13])[C:4]([H:11])([H:12])[O:3][C:2]([H:10])=[C:6]1[H:14])([H:7])([H:8])[H:9]"
C        1.29206379      -0.56956138       0.72072347
C        0.52479086       0.53144314      -1.02421046
O       -0.39664732      -0.38914816      -1.51841122
C       -1.39728012      -0.54290431      -0.50131837
C       -0.80863039       0.24357662       0.66906943
C       -0.13191462       1.28409904      -0.01632344
H        2.12044257      -1.12578399       1.19640450
H        2.12587396       0.12409843       0.51836093
H        0.73301194      -1.47213160       1.01124404
H        1.07816655       1.03399677      -1.81263485
H       -2.36328718      -0.17866933      -0.86555453
H       -1.52385510      -1.60884239      -0.29572651
H       -1.46822437       0.46011767       1.50107480
H        0.21548942       2.20970948       0.41730221
14
Frame=16 idx=000281 GeodesicLength=1.990006321577106 rxn_smarts="[C:1]([C@@:2]1([H:10])[O:3][C:4]([H:11])([H:12])[C:5]([H:13])=[C:6]1[H:14])([H:7])([H:8])[H:9]>>[C:1]([C@:5]1([H:13])[C:4]([H:11])([H:12])[O:3][C:2]([H:10])=[C:6]1[H:14])([H:7])([H:8])[H:9]"
C        1.27456042      -0.58117574       0.69263838
C        0.52844139       0.52393477      -1.02857022
O       -0.41623346      -0.37615659      -1.52792683
C       -1.39981611      -0.53695032      -0.49550940
C       -0.78281875       0.23132301       0.67554554
C       -0.12541114       1.28325252      -0.01956067
H        2.03672893      -1.00245935       1.37661611
H        2.11060439       0.10235557       0.46928343
H        0.78668073      -1.55124580       0.87789157
H        1.08200733       1.02777250      -1.81640323
H       -2.37014501      -0.16484931      -0.83855984
H       -1.52660356      -1.60473042      -0.29846321
H       -1.42968194       0.44391394       1.51851352
H        0.23168678       2.20501521       0.41450486
