13
Frame=0 idx=001203 GeodesicLength=0.0 rxn_smarts="[C:1]([C:2](=[O:3])[N:4]1[C:5]([H:10])([H:11])[C:6]1([H:12])[H:13])([H:7])([H:8])[H:9]>>[C:1]([C@:2]12[O:3][N:4]1[C:5]([H:10])([H:11])[C:6]2([H:12])[H:13])([H:7])([H:8])[H:9]"
C        1.58194588       0.31255079      -0.44373692
C        0.45309496       0.33044645       0.56110928
O        0.60075121       0.86933694       1.70650028
N       -0.13541371      -1.00497964       0.98219460
C       -1.25224112      -1.00197841       0.08396694
C       -1.04248318       0.49065105      -0.05538227
H        1.80217278       1.33894191      -0.74172623
H        2.46637698      -0.11015876       0.03186733
H        1.33840260      -0.27030592      -1.33420929
H       -2.18681980      -1.39218914       0.48490460
H       -0.98672915      -1.53804750      -0.83757008
H       -1.62650992       1.09112952       0.62997414
H       -1.01254747       0.88460273      -1.06789235
13
Frame=1 idx=001203 GeodesicLength=0.07140437570080953 rxn_smarts="[C:1]([C:2](=[O:3])[N:4]1[C:5]([H:10])([H:11])[C:6]1([H:12])[H:13])([H:7])([H:8])[H:9]>>[C:1]([C@:2]12[O:3][N:4]1[C:5]([H:10])([H:11])[C:6]2([H:12])[H:13])([H:7])([H:8])[H:9]"
C        1.59423352       0.30959577      -0.44567544
C        0.45895366       0.33851760       0.54901203
O        0.60039409       0.86555231       1.70131125
N       -0.13847620      -0.97931972       0.98209629
C       -1.25378199      -1.00337977       0.08139675
C       -1.05924744       0.49091215      -0.04850998
H        1.82790193       1.33438724      -0.73857262
H        2.47058174      -0.12506071       0.03426730
H        1.35061092      -0.26922636      -1.33855690
H       -2.18006935      -1.40393494       0.49075708
H       -0.98560997      -1.53476080      -0.84104501
H       -1.65255906       1.08733494       0.63284655
H       -1.03293185       0.88938229      -1.05932729
13
Frame=2 idx=001203 GeodesicLength=0.14280268240018307 rxn_smarts="[C:1]([C:2](=[O:3])[N:4]1[C:5]([H:10])([H:11])[C:6]1([H:12])[H:13])([H:7])([H:8])[H:9]>>[C:1]([C@:2]12[O:3][N:4]1[C:5]([H:10])([H:11])[C:6]2([H:12])[H:13])([H:7])([H:8])[H:9]"
C        1.60671967       0.30648293      -0.44746390
C        0.46470230       0.34679378       0.53657432
O        0.59998309       0.86245380       1.69543899
N       -0.14132165      -0.95362483       0.98124124
C       -1.25518777      -1.00467268       0.07891472
C       -1.07626671       0.49118485      -0.04137641
H        1.85431882       1.32940786      -0.73507115
H        2.47450962      -0.14034209       0.03699387
H        1.36324721      -0.26813663      -1.34290359
H       -2.17264991      -1.41581940       0.49704484
H       -0.98498632      -1.53100276      -0.84480292
H       -1.67934536       1.08302518       0.63584955
H       -1.05372299       0.89425001      -1.05043955
13
Frame=3 idx=001203 GeodesicLength=0.21418335138605799 rxn_smarts="[C:1]([C:2](=[O:3])[N:4]1[C:5]([H:10])([H:11])[C:6]1([H:12])[H:13])([H:7])([H:8])[H:9]>>[C:1]([C@:2]12[O:3][N:4]1[C:5]([H:10])([H:11])[C:6]2([H:12])[H:13])([H:7])([H:8])[H:9]"
C        1.61940222       0.30321235      -0.44910216
C        0.47035129       0.35526219       0.52377573
O        0.59952149       0.86003233       1.68888236
N       -0.14395617      -0.92789879       0.97963541
C       -1.25646494      -1.00584165       0.07651454
C       -1.09353324       0.49146713      -0.03397657
H        1.88137583       1.32399129      -0.73122078
H        2.47815576      -0.15595454       0.04005016
H        1.37633721      -0.26706541      -1.34723481
H       -2.16454722      -1.42780976       0.50374929
H       -0.98488485      -1.52677272      -0.84884649
H       -1.70684607       1.07817131       0.63899349
H       -1.07491131       0.89920627      -1.04122018
13
Frame=4 idx=001203 GeodesicLength=0.28554293564030514 rxn_smarts="[C:1]([C:2](=[O:3])[N:4]1[C:5]([H:10])([H:11])[C:6]1([H:12])[H:13])([H:7])([H:8])[H:9]>>[C:1]([C@:2]12[O:3][N:4]1[C:5]([H:10])([H:11])[C:6]2([H:12])[H:13])([H:7])([H:8])[H:9]"
C        1.63228043       0.29978536      -0.45058946
C        0.47591477       0.36390730       0.51060015
O        0.59901412       0.85827538       1.68164470
N       -0.14638550      -0.90214606       0.97728497
C       -1.25762363      -1.00687142       0.07418898
C       -1.11104081       0.49175664      -0.02630716
H        1.90902012       1.31813089      -0.72702188
H        2.48152159      -0.17184623       0.04343687
H        1.38990721      -0.26604294      -1.35153299
H       -2.15575149      -1.43986791       0.51085426
H       -0.98533520      -1.52207700      -0.85318181
H       -1.73503539       1.07274502       0.64228572
H       -1.09648622       0.90425097      -1.03166235
13
Frame=5 idx=001203 GeodesicLength=0.35683749287582806 rxn_smarts="[C:1]([C:2](=[O:3])[N:4]1[C:5]([H:10])([H:11])[C:6]1([H:12])[H:13])([H:7])([H:8])[H:9]>>[C:1]([C@:2]12[O:3][N:4]1[C:5]([H:10])([H:11])[C:6]2([H:12])[H:13])([H:7])([H:8])[H:9]"
C        1.64534118       0.29619561      -0.45192541
C        0.48139867       0.37270473       0.49702612
O        0.59846997       0.85716872       1.67370976
N       -0.14863339      -0.87637235       0.97419391
C       -1.25866312      -1.00774728       0.07192491
C       -1.12876502       0.49205207      -0.01834509
H        1.93714967       1.31180876      -0.72250725
H        2.48461129      -0.18792901       0.04717435
H        1.40398596      -0.26514345      -1.35576838
H       -2.14625346      -1.45197231       0.51829366
H       -0.98635454      -1.51688932      -0.85779094
H       -1.76386886       1.06672814       0.64574717
H       -1.11841835       0.90939570      -1.02173281
13
Frame=6 idx=001203 GeodesicLength=0.4280894365062001 rxn_smarts="[C:1]([C:2](=[O:3])[N:4]1[C:5]([H:10])([H:11])[C:6]1([H:12])[H:13])([H:7])([H:8])[H:9]>>[C:1]([C@:2]12[O:3][N:4]1[C:5]([H:10])([H:11])[C:6]2([H:12])[H:13])([H:7])([H:8])[H:9]"
C        1.65858902       0.29244451      -0.45310938
C        0.48681877       0.38164963       0.48303523
O        0.59789220       0.85671425       1.66508449
N       -0.15069904      -0.85057107       0.97036914
C       -1.25959768      -1.00845607       0.06971310
C       -1.14671053       0.49235089      -0.01008919
H        1.96574188       1.30502461      -0.71766437
H        2.48742736      -0.20418060       0.05125952
H        1.41859883      -0.26438731      -1.35993151
H       -2.13603911      -1.46409317       0.52606118
H       -0.98797557      -1.51122580      -0.86268735
H       -1.79333297       1.06008540       0.64938340
H       -1.14071317       0.91464473      -1.01142426
13
Frame=7 idx=001203 GeodesicLength=0.4992815226102926 rxn_smarts="[C:1]([C:2](=[O:3])[N:4]1[C:5]([H:10])([H:11])[C:6]1([H:12])[H:13])([H:7])([H:8])[H:9]>>[C:1]([C@:2]12[O:3][N:4]1[C:5]([H:10])([H:11])[C:6]2([H:12])[H:13])([H:7])([H:8])[H:9]"
C        1.67201591       0.28853646      -0.45413430
C        0.49218422       0.39072634       0.46859975
O        0.59726399       0.85690424       1.65572318
N       -0.15258968      -0.82474411       0.96581611
C       -1.26043522      -1.00898309       0.06754190
C       -1.16486719       0.49264525      -0.00152567
H        1.99474843       1.29777735      -0.71249317
H        2.48995364      -0.22055948       0.05569590
H        1.43377815      -0.26379874      -1.36397880
H       -2.12509456      -1.47617433       0.53412897
H       -0.99022693      -1.50510182      -0.86787160
H       -1.82335899       1.05276539       0.65321340
H       -1.16337176       0.92000654      -1.00071567
13
Frame=8 idx=001203 GeodesicLength=0.5704345858830345 rxn_smarts="[C:1]([C:2](=[O:3])[N:4]1[C:5]([H:10])([H:11])[C:6]1([H:12])[H:13])([H:7])([H:8])[H:9]>>[C:1]([C@:2]12[O:3][N:4]1[C:5]([H:10])([H:11])[C:6]2([H:12])[H:13])([H:7])([H:8])[H:9]"
C        1.68560932       0.28444864      -0.45501037
C        0.49749577       0.39994079       0.45369269
O        0.59660060       0.85776202       1.64564979
N       -0.15433221      -0.79884784       0.96054279
C       -1.26116001      -1.00930337       0.06540218
C       -1.18323090       0.49294360       0.00735321
H        2.02414728       1.29002627      -0.70698398
H        2.49216411      -0.23706619       0.06049397
H        1.44952101      -0.26342776      -1.36793979
H       -2.11335106      -1.48826243       0.54246962
H       -0.99309672      -1.49845725      -0.87333729
H       -1.85400174       1.04474056       0.65724917
H       -1.18636545       0.92550295      -0.98958200
13
Frame=9 idx=001203 GeodesicLength=0.6415510183955809 rxn_smarts="[C:1]([C:2](=[O:3])[N:4]1[C:5]([H:10])([H:11])[C:6]1([H:12])[H:13])([H:7])([H:8])[H:9]>>[C:1]([C@:2]12[O:3][N:4]1[C:5]([H:10])([H:11])[C:6]2([H:12])[H:13])([H:7])([H:8])[H:9]"
C        1.69937272       0.28018372      -0.45573017
C        0.50277162       0.40928600       0.43829290
O        0.59590579       0.85930482       1.63483744
N       -0.15592453      -0.77288221       0.95455369
C       -1.26178928      -1.00941424       0.06327582
C       -1.20180548       0.49324330       0.01656427
H        2.05390091       1.28178031      -0.70113099
H        2.49407263      -0.25366825       0.06566078
H        1.46585911      -0.26331476      -1.37178244
H       -2.10080327      -1.50032234       0.55104292
H       -0.99662945      -1.49132467      -0.87909414
H       -1.88521478       1.03597859       0.66150827
H       -1.20971600       0.93114974      -0.97799836
13
Frame=10 idx=001203 GeodesicLength=0.712608387886975 rxn_smarts="[C:1]([C:2](=[O:3])[N:4]1[C:5]([H:10])([H:11])[C:6]1([H:12])[H:13])([H:7])([H:8])[H:9]>>[C:1]([C@:2]12[O:3][N:4]1[C:5]([H:10])([H:11])[C:6]2([H:12])[H:13])([H:7])([H:8])[H:9]"
C        1.71328530       0.27574627      -0.45628748
C        0.50801351       0.41873814       0.42237252
O        0.59514829       0.86150939       1.62324528
N       -0.15738669      -0.74684399       0.94784396
C       -1.26232373      -1.00929414       0.06115494
C       -1.22056531       0.49352669       0.02611687
H        2.08394815       1.27302959      -0.69493664
H        2.49564044      -0.27031863       0.07119473
H        1.48281438      -0.26347421      -1.37546109
H       -2.08742236      -1.51229306       0.55983065
H       -1.00084505      -1.48369419      -0.88513032
H       -1.91691597       1.02642398       0.66600053
H       -1.23339095       0.93694415      -0.96594394
13
Frame=11 idx=001203 GeodesicLength=0.783639799587933 rxn_smarts="[C:1]([C:2](=[O:3])[N:4]1[C:5]([H:10])([H:11])[C:6]1([H:12])[H:13])([H:7])([H:8])[H:9]>>[C:1]([C@:2]12[O:3][N:4]1[C:5]([H:10])([H:11])[C:6]2([H:12])[H:13])([H:7])([H:8])[H:9]"
C        1.72734550       0.27111704      -0.45668456
C        0.51323581       0.42830696       0.40590321
O        0.59435392       0.86442508       1.61087365
N       -0.15873209      -0.72069353       0.94041863
C       -1.26276423      -1.00893270       0.05901942
C       -1.23952102       0.49380268       0.03603122
H        2.11427358       1.26375659      -0.68838718
H        2.49686995      -0.28701614       0.07711802
H        1.50039289      -0.26397212      -1.37898903
H       -2.07315824      -1.52421238       0.56877608
H       -1.00576006      -1.47555169      -0.89144567
H       -1.94913478       1.01604947       0.67074427
H       -1.25740124       0.94292073      -0.95337807
13
Frame=12 idx=001203 GeodesicLength=0.854652804551976 rxn_smarts="[C:1]([C:2](=[O:3])[N:4]1[C:5]([H:10])([H:11])[C:6]1([H:12])[H:13])([H:7])([H:8])[H:9]>>[C:1]([C@:2]12[O:3][N:4]1[C:5]([H:10])([H:11])[C:6]2([H:12])[H:13])([H:7])([H:8])[H:9]"
C        1.74153721       0.26628647      -0.45691610
C        0.51843556       0.43799190       0.38884269
O        0.59349888       0.86808072       1.59767032
N       -0.15997542      -0.69439749       0.93227663
C       -1.26310129      -1.00830570       0.05685626
C       -1.25866955       0.49406342       0.04632439
H        2.14486992       1.25393554      -0.68145511
H        2.49771027      -0.30377045       0.08343757
H        1.51860767      -0.26482841      -1.38234302
H       -2.05793975      -1.53606233       0.57785439
H       -1.01138817      -1.46687553      -0.89804136
H       -1.98183283       1.00478699       0.67576084
H       -1.28175249       0.94909488      -0.94026750
13
Frame=13 idx=001203 GeodesicLength=0.9256491492213494 rxn_smarts="[C:1]([C:2](=[O:3])[N:4]1[C:5]([H:10])([H:11])[C:6]1([H:12])[H:13])([H:7])([H:8])[H:9]>>[C:1]([C@:2]12[O:3][N:4]1[C:5]([H:10])([H:11])[C:6]2([H:12])[H:13])([H:7])([H:8])[H:9]"
C        1.75585456       0.26125328      -0.45697687
C        0.52363154       0.44777648       0.37117223
O        0.59258993       0.87248681       1.58362253
N       -0.16112807      -0.66794870       0.92341242
C       -1.26334870      -1.00740957       0.05464767
C       -1.27800291       0.49430167       0.05701196
H        2.17567730       1.24357268      -0.67413948
H        2.49816892      -0.32053670       0.09016351
H        1.53747569      -0.26609334      -1.38549696
H       -2.04175103      -1.54782143       0.58701706
H       -1.01776753      -1.45767856      -0.90491142
H       -2.01496722       0.99261757       0.68105821
H       -1.30643248       0.95547981      -0.92658085
13
Frame=14 idx=001203 GeodesicLength=0.9966216513063522 rxn_smarts="[C:1]([C:2](=[O:3])[N:4]1[C:5]([H:10])([H:11])[C:6]1([H:12])[H:13])([H:7])([H:8])[H:9]>>[C:1]([C@:2]12[O:3][N:4]1[C:5]([H:10])([H:11])[C:6]2([H:12])[H:13])([H:7])([H:8])[H:9]"
C        1.77027426       0.25601705      -0.45686144
C        0.52883199       0.45763926       0.35286999
O        0.59160984       0.87764002       1.56870604
N       -0.16220919      -0.64133301       0.91381815
C       -1.26350666      -1.00622919       0.05238180
C       -1.29749563       0.49450097       0.06810678
H        2.20662954       1.23266579      -0.66643112
H        2.49821298      -0.33728363       0.09729681
H        1.55700086      -0.26779018      -1.38842430
H       -2.02455736      -1.55944728       0.59622577
H       -1.02491842      -1.44795919      -0.91203640
H       -2.04847144       0.97950437       0.68663667
H       -1.33140077       0.96207502      -0.91228876
13
Frame=15 idx=001203 GeodesicLength=1.06759338464748 rxn_smarts="[C:1]([C:2](=[O:3])[N:4]1[C:5]([H:10])([H:11])[C:6]1([H:12])[H:13])([H:7])([H:8])[H:9]>>[C:1]([C@:2]12[O:3][N:4]1[C:5]([H:10])([H:11])[C:6]2([H:12])[H:13])([H:7])([H:8])[H:9]"
C        1.78478109       0.25056233      -0.45656392
C        0.53404129       0.46756358       0.33389413
O        0.59054603       0.88356172       1.55287321
N       -0.16324517      -0.61451874       0.90348047
C       -1.26357306      -1.00473956       0.05003648
C       -1.31714206       0.49465294       0.07963640
H        2.23768034       1.22120012      -0.65834155
H        2.49782814      -0.35396349       0.10487606
H        1.57720196      -0.27000637      -1.39108053
H       -2.00629005      -1.57093191       0.60542222
H       -1.03287316      -1.43767916      -0.91942274
H       -2.08229869       0.96539040       0.69252509
H       -1.35665665       0.96890815      -0.89733534
13
Frame=16 idx=001203 GeodesicLength=1.1385617905917564 rxn_smarts="[C:1]([C:2](=[O:3])[N:4]1[C:5]([H:10])([H:11])[C:6]1([H:12])[H:13])([H:7])([H:8])[H:9]>>[C:1]([C@:2]12[O:3][N:4]1[C:5]([H:10])([H:11])[C:6]2([H:12])[H:13])([H:7])([H:8])[H:9]"
C        1.79936593       0.24488853      -0.45607598
C        0.53927968       0.47753317       0.31422998
O        0.58940432       0.89027026       1.53611273
N       -0.16424405      -0.58749612       0.89238963
C       -1.26356130      -1.00294014       0.04759000
C       -1.33693198       0.49474795       0.09161674
H        2.26877000       1.20919009      -0.64986694
H        2.49701900      -0.37054376       0.11291113
H        1.59808267      -0.27278984      -1.39343584
H       -1.98692669      -1.58225328       0.61454786
H       -1.04167247      -1.42686397      -0.92706136
H       -2.11639910       0.95026358       0.69872791
H       -1.38218602       0.97599353      -0.88168586
