11
Frame=0 idx=000883 GeodesicLength=0.0 rxn_smarts="[N:1](=[C:2]1/[C:3]([H:8])=[C:4]([H:9])[C:5]([H:10])([H:11])[O:6]1)\[H:7]>>[N:1](=[C:2]=[C:3]([C@@:4]1([H:9])[C:5]([H:10])([H:11])[O:6]1)[H:8])[H:7]"
N        2.24559168      -0.36870343      -0.57998673
C        1.21212602       0.19936278      -0.44118451
C        0.15906615       1.06978961      -0.56850238
C       -0.99948149       0.60865965       0.02175934
C       -1.07854005      -0.82711609       0.35914370
O       -0.02608907      -0.72128850       1.24440457
H        2.83062696      -0.78169260       0.12705002
H        0.36706159       2.10128904      -0.81096301
H       -1.76388038       1.31740006       0.32985790
H       -0.90896855      -1.49548280      -0.50423582
H       -2.03751282      -1.10221773       0.82265688
11
Frame=1 idx=000883 GeodesicLength=0.051724457190257214 rxn_smarts="[N:1](=[C:2]1/[C:3]([H:8])=[C:4]([H:9])[C:5]([H:10])([H:11])[O:6]1)\[H:7]>>[N:1](=[C:2]=[C:3]([C@@:4]1([H:9])[C:5]([H:10])([H:11])[O:6]1)[H:8])[H:7]"
N        2.25578022      -0.35892053      -0.57890287
C        1.21499693       0.19660366      -0.42087664
C        0.16112706       1.06447353      -0.56878305
C       -0.99697726       0.60807990       0.02974395
C       -1.08844227      -0.82984910       0.35247796
O       -0.02264063      -0.71797333       1.22416770
H        2.83781762      -0.77535593       0.12947146
H        0.36670151       2.09325577      -0.82423497
H       -1.76053214       1.31770520       0.33703408
H       -0.92863404      -1.49616611      -0.51288910
H       -2.03919701      -1.10185307       0.83279149
11
Frame=2 idx=000883 GeodesicLength=0.10331647409169332 rxn_smarts="[N:1](=[C:2]1/[C:3]([H:8])=[C:4]([H:9])[C:5]([H:10])([H:11])[O:6]1)\[H:7]>>[N:1](=[C:2]=[C:3]([C@@:4]1([H:9])[C:5]([H:10])([H:11])[O:6]1)[H:8])[H:7]"
N        2.26539103      -0.34926107      -0.57774424
C        1.21775077       0.19393040      -0.40131856
C        0.16326333       1.05918591      -0.56910667
C       -0.99442682       0.60743036       0.03745863
C       -1.09812120      -0.83234221       0.34595798
O       -0.01936706      -0.71466812       1.20417084
H        2.84447760      -0.76900163       0.13198956
H        0.36653793       2.08521247      -0.83693396
H       -1.75713172       1.31793279       0.34398329
H       -0.94802759      -1.49672257      -0.52119562
H       -2.04034628      -1.10169633       0.84273875
11
Frame=3 idx=000883 GeodesicLength=0.1547099188900583 rxn_smarts="[N:1](=[C:2]1/[C:3]([H:8])=[C:4]([H:9])[C:5]([H:10])([H:11])[O:6]1)\[H:7]>>[N:1](=[C:2]=[C:3]([C@@:4]1([H:9])[C:5]([H:10])([H:11])[O:6]1)[H:8])[H:7]"
N        2.27422529      -0.33981423      -0.57664300
C        1.22053196       0.19177144      -0.38205378
C        0.16546802       1.05413480      -0.56936276
C       -0.99189363       0.60671339       0.04476224
C       -1.10736076      -0.83458695       0.33965640
O       -0.01625515      -0.71093281       1.18471378
H        2.85021955      -0.76353570       0.13410988
H        0.36646961       2.07743355      -0.84884155
H       -1.75402847       1.31793182       0.35020331
H       -0.96656468      -1.49726088      -0.52893990
H       -2.04081173      -1.10185444       0.85239538
11
Frame=4 idx=000883 GeodesicLength=0.2060073395857423 rxn_smarts="[N:1](=[C:2]1/[C:3]([H:8])=[C:4]([H:9])[C:5]([H:10])([H:11])[O:6]1)\[H:7]>>[N:1](=[C:2]=[C:3]([C@@:4]1([H:9])[C:5]([H:10])([H:11])[O:6]1)[H:8])[H:7]"
N        2.28259239      -0.33048084      -0.57547842
C        1.22319440       0.18967375      -0.36350142
C        0.16772812       1.04912165      -0.56968677
C       -0.98933312       0.60593504       0.05180023
C       -1.11640052      -0.83662269       0.33350049
O       -0.01327092      -0.70719723       1.16545890
H        2.85548305      -0.75808796       0.13633530
H        0.36658804       2.06971323      -0.86016064
H       -1.75090888       1.31785664       0.35617224
H       -0.98488535      -1.49771553      -0.53634735
H       -2.04078720      -1.10219607       0.86190745
11
Frame=5 idx=000883 GeodesicLength=0.2572607627206157 rxn_smarts="[N:1](=[C:2]1/[C:3]([H:8])=[C:4]([H:9])[C:5]([H:10])([H:11])[O:6]1)\[H:7]>>[N:1](=[C:2]=[C:3]([C@@:4]1([H:9])[C:5]([H:10])([H:11])[O:6]1)[H:8])[H:7]"
N        2.29070146      -0.32119305      -0.57415572
C        1.22566044       0.18733762      -0.34590631
C        0.17003409       1.04399947      -0.57017190
C       -0.98669844       0.60509604       0.05868898
C       -1.12541509      -0.83847489       0.32742955
O       -0.01039868      -0.70377985       1.14615371
H        2.86054874      -0.75202969       0.13902846
H        0.36692254       2.06187496      -0.87111747
H       -1.74750950       1.31781737       0.36229126
H       -1.00344258      -1.49801617      -0.54359341
H       -2.04040298      -1.10263180       0.87135285
11
Frame=6 idx=000883 GeodesicLength=0.30851119553617984 rxn_smarts="[N:1](=[C:2]1/[C:3]([H:8])=[C:4]([H:9])[C:5]([H:10])([H:11])[O:6]1)\[H:7]>>[N:1](=[C:2]=[C:3]([C@@:4]1([H:9])[C:5]([H:10])([H:11])[O:6]1)[H:8])[H:7]"
N        2.29879458      -0.31185008      -0.57257000
C        1.22785802       0.18445136      -0.32954395
C        0.17237177       1.03862092      -0.57092694
C       -0.98393648       0.60419250       0.06555088
C       -1.13459512      -0.84016498       0.32138418
O       -0.00762208      -0.70102307       1.12652349
H        2.86570165      -0.74473378       0.14259459
H        0.36749453       2.05374286      -0.88196536
H       -1.74354915       1.31792343       0.36898624
H       -1.02273420      -1.49806666      -0.55085939
H       -2.03978353      -1.10309249       0.88082625
11
Frame=7 idx=000883 GeodesicLength=0.3598215008808471 rxn_smarts="[N:1](=[C:2]1/[C:3]([H:8])=[C:4]([H:9])[C:5]([H:10])([H:11])[O:6]1)\[H:7]>>[N:1](=[C:2]=[C:3]([C@@:4]1([H:9])[C:5]([H:10])([H:11])[O:6]1)[H:8])[H:7]"
N        2.30702727      -0.30243792      -0.57065977
C        1.22973045       0.18076622      -0.31460306
C        0.17471363       1.03284450      -0.57204198
C       -0.98099918       0.60321237       0.07247732
C       -1.14408110      -0.84168570       0.31531583
O       -0.00494146      -0.69917233       1.10633688
H        2.87118634      -0.73566653       0.14734421
H        0.36829939       2.04515288      -0.89285442
H       -1.73880801       1.31824577       0.37657872
H       -1.04312483      -1.49775579      -0.55827094
H       -2.03900250      -1.10350347       0.89037721
11
Frame=8 idx=000883 GeodesicLength=0.4110711628276797 rxn_smarts="[N:1](=[C:2]1/[C:3]([H:8])=[C:4]([H:9])[C:5]([H:10])([H:11])[O:6]1)\[H:7]>>[N:1](=[C:2]=[C:3]([C@@:4]1([H:9])[C:5]([H:10])([H:11])[O:6]1)[H:8])[H:7]"
N        2.31502613      -0.29298199      -0.56861166
C        1.23153472       0.17716134      -0.30022435
C        0.17705552       1.02709688      -0.57329089
C       -0.97801838       0.60216968       0.07918190
C       -1.15342079      -0.84301852       0.30937408
O       -0.00235190      -0.69735702       1.08622150
H        2.87617348      -0.72678974       0.15225233
H        0.36914030       2.03664146      -0.90338071
H       -1.73397901       1.31850182       0.38405446
H       -1.06341762      -1.49731904      -0.56538357
H       -2.03774245      -1.10410488       0.89980690
11
Frame=9 idx=000883 GeodesicLength=0.46229970327396847 rxn_smarts="[N:1](=[C:2]1/[C:3]([H:8])=[C:4]([H:9])[C:5]([H:10])([H:11])[O:6]1)\[H:7]>>[N:1](=[C:2]=[C:3]([C@@:4]1([H:9])[C:5]([H:10])([H:11])[O:6]1)[H:8])[H:7]"
N        2.32298526      -0.28344107      -0.56634885
C        1.23319693       0.17333462      -0.28668323
C        0.17938682       1.02122562      -0.57478608
C       -0.97494885       0.60105526       0.08577046
C       -1.16279936      -0.84417880       0.30350767
O        0.00015224      -0.69589133       1.06592403
H        2.88098131      -0.71744305       0.15770216
H        0.37006777       2.02803883      -0.91373364
H       -1.72880779       1.31878372       0.39180810
H       -1.08408036      -1.49666125      -0.57235794
H       -2.03613397      -1.10482254       0.90919732
11
Frame=10 idx=000883 GeodesicLength=0.5135438285252643 rxn_smarts="[N:1](=[C:2]1/[C:3]([H:8])=[C:4]([H:9])[C:5]([H:10])([H:11])[O:6]1)\[H:7]>>[N:1](=[C:2]=[C:3]([C@@:4]1([H:9])[C:5]([H:10])([H:11])[O:6]1)[H:8])[H:7]"
N        2.33104433      -0.27375825      -0.56379344
C        1.23467865       0.16906940      -0.27414015
C        0.18169472       1.01511103      -0.57660269
C       -0.97173729       0.59985880       0.09233088
C       -1.17234582      -0.84516815       0.29767531
O        0.00256876      -0.69501448       1.04523432
H        2.88579299      -0.70716236       0.16396388
H        0.37108105       2.01919729      -0.92408596
H       -1.72308140       1.31916008       0.40012615
H       -1.10545972      -1.49568302      -0.57931076
H       -2.03423626      -1.10561036       0.91860244
11
Frame=11 idx=000883 GeodesicLength=0.5648552711533947 rxn_smarts="[N:1](=[C:2]1/[C:3]([H:8])=[C:4]([H:9])[C:5]([H:10])([H:11])[O:6]1)\[H:7]>>[N:1](=[C:2]=[C:3]([C@@:4]1([H:9])[C:5]([H:10])([H:11])[O:6]1)[H:8])[H:7]"
N        2.33940973      -0.26382098      -0.56083452
C        1.23591986       0.16409528      -0.26284955
C        0.18395949       1.00860119      -0.57885685
C       -0.96831761       0.59856009       0.09896263
C       -1.18222444      -0.84598534       0.29183155
O        0.00489686      -0.69502103       1.02388110
H        2.89081542      -0.69539449       0.17140523
H        0.37218117       2.00993491      -0.93464707
H       -1.71651577       1.31970795       0.40939268
H       -1.12799844      -1.49425747      -0.58637770
H       -2.03212626      -1.10642011       0.92809249
11
Frame=12 idx=000883 GeodesicLength=0.6162916908209666 rxn_smarts="[N:1](=[C:2]1/[C:3]([H:8])=[C:4]([H:9])[C:5]([H:10])([H:11])[O:6]1)\[H:7]>>[N:1](=[C:2]=[C:3]([C@@:4]1([H:9])[C:5]([H:10])([H:11])[O:6]1)[H:8])[H:7]"
N        2.34822263      -0.25356182      -0.55738430
C        1.23688092       0.15824705      -0.25296887
C        0.18615555       1.00159767      -0.58163342
C       -0.96463310       0.59714137       0.10573685
C       -1.19254393      -0.84661967       0.28594805
O        0.00712015      -0.69611873       1.00164594
H        2.89617754      -0.68176908       0.18030214
H        0.37333429       2.00012324      -0.94560253
H       -1.70886867       1.32045501       0.41989333
H       -1.15201172      -1.49225504      -0.59363529
H       -2.02983367      -1.10723999       0.93769811
11
Frame=13 idx=000883 GeodesicLength=0.6677579226938872 rxn_smarts="[N:1](=[C:2]1/[C:3]([H:8])=[C:4]([H:9])[C:5]([H:10])([H:11])[O:6]1)\[H:7]>>[N:1](=[C:2]=[C:3]([C@@:4]1([H:9])[C:5]([H:10])([H:11])[O:6]1)[H:8])[H:7]"
N        2.35748117      -0.24291277      -0.55336939
C        1.23760598       0.15131105      -0.24465557
C        0.18831693       0.99398678      -0.58498312
C       -0.96058075       0.59555930       0.11272408
C       -1.20337901      -0.84706069       0.28000020
O        0.00925326      -0.69849241       0.97835791
H        2.90175904      -0.66582955       0.19087219
H        0.37456554       1.98962479      -0.95707820
H       -1.69991571       1.32141912       0.43184155
H       -1.17774452      -1.48954923      -0.60115657
H       -2.02736193      -1.10805640       0.94744692
11
Frame=14 idx=000883 GeodesicLength=0.719327859940019 rxn_smarts="[N:1](=[C:2]1/[C:3]([H:8])=[C:4]([H:9])[C:5]([H:10])([H:11])[O:6]1)\[H:7]>>[N:1](=[C:2]=[C:3]([C@@:4]1([H:9])[C:5]([H:10])([H:11])[O:6]1)[H:8])[H:7]"
N        2.36713546      -0.23186210      -0.54882157
C        1.23814280       0.14362319      -0.23762111
C        0.19040336       0.98592105      -0.58886597
C       -0.95621854       0.59381904       0.11980838
C       -1.21458921      -0.84729078       0.27405030
O        0.01127403      -0.70183526       0.95416791
H        2.90737102      -0.64833422       0.20280281
H        0.37576941       1.97863862      -0.96894840
H       -1.68987685       1.32248001       0.44490265
H       -1.20483209      -1.48618792      -0.60875713
H       -2.02457937      -1.10897161       0.95728213
11
Frame=15 idx=000883 GeodesicLength=0.7709449173034414 rxn_smarts="[N:1](=[C:2]1/[C:3]([H:8])=[C:4]([H:9])[C:5]([H:10])([H:11])[O:6]1)\[H:7]>>[N:1](=[C:2]=[C:3]([C@@:4]1([H:9])[C:5]([H:10])([H:11])[O:6]1)[H:8])[H:7]"
N        2.37703000      -0.22045348      -0.54378617
C        1.23855677       0.13537133      -0.23167746
C        0.19242671       0.97750137      -0.59322576
C       -0.95156118       0.59191250       0.12690769
C       -1.22604849      -0.84730338       0.26814526
O        0.01318014      -0.70591699       0.92921408
H        2.91273370      -0.62969478       0.21585099
H        0.37692651       1.96730423      -0.98108268
H       -1.67889118       1.32354511       0.45880965
H       -1.23296388      -1.48221448      -0.61629684
H       -2.02138911      -1.11005142       0.96714123
11
Frame=16 idx=000883 GeodesicLength=0.8225589754116759 rxn_smarts="[N:1](=[C:2]1/[C:3]([H:8])=[C:4]([H:9])[C:5]([H:10])([H:11])[O:6]1)\[H:7]>>[N:1](=[C:2]=[C:3]([C@@:4]1([H:9])[C:5]([H:10])([H:11])[O:6]1)[H:8])[H:7]"
N        2.38698459      -0.20875739      -0.53833263
C        1.23891679       0.12681796      -0.22655587
C        0.19439623       0.96886383      -0.59798037
C       -0.94665202       0.58984574       0.13392543
C       -1.23760446      -0.84709875       0.26233755
O        0.01496902      -0.71044820       0.90369476
H        2.91759249      -0.61046040       0.22969158
H        0.37800993       1.95579477      -0.99333711
H       -1.66717149       1.32452019       0.47323269
H       -1.26174317      -1.47771192      -0.62362157
H       -2.01769790      -1.11136584       0.97694552
