13
Frame=0 idx=001303 GeodesicLength=0.0 rxn_smarts="[C:1]1([H:7])([H:8])[O:2][C:3]([H:9])([H:10])[C@@:4]2([H:11])[N:5]([H:12])[C@@:6]12[H:13]>>[C:1](=[O:2])([H:7])[H:8].[C:3](=[C:4](/[C:6](=[N:5]\[H:12])[H:13])[H:11])([H:9])[H:10]"
C       -1.19413824      -0.91608805       0.02665051
O       -0.28509610      -1.62396108       0.59610887
C        1.44457279      -0.45357598       0.25233894
C        0.73671939       0.67329956       0.50898686
N       -0.30354609       1.39857128      -1.17317619
C       -0.64843808       0.79992286      -0.02799011
H       -2.09338133      -0.71878642       0.62768622
H       -1.42581251      -1.13529450      -1.02860276
H        2.33818401      -0.66878495       0.82700510
H        1.33427180      -1.02202922      -0.65837721
H        1.08139534       1.47042149       1.15259251
H        0.36473644       0.81214175      -1.67101734
H       -1.34946744       1.38416324       0.56779454
13
Frame=1 idx=001303 GeodesicLength=0.07056618887066637 rxn_smarts="[C:1]1([H:7])([H:8])[O:2][C:3]([H:9])([H:10])[C@@:4]2([H:11])[N:5]([H:12])[C@@:6]12[H:13]>>[C:1](=[O:2])([H:7])[H:8].[C:3](=[C:4](/[C:6](=[N:5]\[H:12])[H:13])[H:11])([H:9])[H:10]"
C       -1.20334452      -0.92174056       0.01639952
O       -0.28081831      -1.63608077       0.55794757
C        1.44305368      -0.45184862       0.26218993
C        0.74382273       0.68779867       0.50297417
N       -0.29456899       1.39076216      -1.16749681
C       -0.64709959       0.80899602      -0.01547271
H       -2.09167477      -0.73710217       0.63772399
H       -1.45906565      -1.13407239      -1.03443246
H        2.32526494      -0.66931115       0.85423587
H        1.36251013      -1.00903666      -0.65898987
H        1.09677080       1.48451702       1.14314427
H        0.34865013       0.78558652      -1.67528277
H       -1.34350060       1.40153192       0.57705929
13
Frame=2 idx=001303 GeodesicLength=0.14113496379118695 rxn_smarts="[C:1]1([H:7])([H:8])[O:2][C:3]([H:9])([H:10])[C@@:4]2([H:11])[N:5]([H:12])[C@@:6]12[H:13]>>[C:1](=[O:2])([H:7])[H:8].[C:3](=[C:4](/[C:6](=[N:5]\[H:12])[H:13])[H:11])([H:9])[H:10]"
C       -1.21273383      -0.92747111       0.00594786
O       -0.27628756      -1.64784746       0.51747721
C        1.44116477      -0.45017160       0.27217473
C        0.75113408       0.70235921       0.49663094
N       -0.28609808       1.38217054      -1.16214032
C       -0.64548487       0.81801357      -0.00296711
H       -2.08882938      -0.75631292       0.64850342
H       -1.49372023      -1.13267886      -1.03957813
H        2.31082555      -0.67017737       0.88242311
H        1.39183084      -0.99559074      -0.65866625
H        1.11257034       1.49886841       1.13285564
H        0.33262518       0.75958911      -1.67873489
H       -1.33699681       1.41924922       0.58607379
13
Frame=3 idx=001303 GeodesicLength=0.2116988164426797 rxn_smarts="[C:1]1([H:7])([H:8])[O:2][C:3]([H:9])([H:10])[C@@:4]2([H:11])[N:5]([H:12])[C@@:6]12[H:13]>>[C:1](=[O:2])([H:7])[H:8].[C:3](=[C:4](/[C:6](=[N:5]\[H:12])[H:13])[H:11])([H:9])[H:10]"
C       -1.22229650      -0.93329109      -0.00467834
O       -0.27149907      -1.65911096       0.47457210
C        1.43885538      -0.44855207       0.28226773
C        0.75865312       0.71697777       0.48991772
N       -0.27814405       1.37284650      -1.15708055
C       -0.64359167       0.82699619       0.00951440
H       -2.08469925      -0.77652082       0.66003435
H       -1.52974690      -1.13110414      -1.04391578
H        2.29470193      -0.67139739       0.91154654
H        1.42221589      -0.98169561      -0.65729701
H        1.12878601       1.51342041       1.12173657
H        0.31671761       0.73411764      -1.68144039
H       -1.32995249       1.43731356       0.59482265
13
Frame=4 idx=001303 GeodesicLength=0.28225503488528525 rxn_smarts="[C:1]1([H:7])([H:8])[O:2][C:3]([H:9])([H:10])[C@@:4]2([H:11])[N:5]([H:12])[C@@:6]12[H:13]>>[C:1](=[O:2])([H:7])[H:8].[C:3](=[C:4](/[C:6](=[N:5]\[H:12])[H:13])[H:11])([H:9])[H:10]"
C       -1.23201395      -0.93921576      -0.01544515
O       -0.26645762      -1.66969097       0.42914472
C        1.43607074      -0.44699920       0.29243071
C        0.76637964       0.73164919       0.48279227
N       -0.27071778       1.36284813      -1.15229163
C       -0.64141798       0.83597094       0.02196012
H       -2.07913478      -0.79783066       0.67229709
H       -1.56707020      -1.12936012      -1.04731531
H        2.27672148      -0.67298691       0.94155923
H        1.45361670      -0.96738110      -0.65476427
H        1.14541039       1.52810897       1.10980507
H        0.30097792       0.70916095      -1.68346902
H       -1.32236455       1.45572653       0.60329616
13
Frame=5 idx=001303 GeodesicLength=0.35281663921748063 rxn_smarts="[C:1]1([H:7])([H:8])[O:2][C:3]([H:9])([H:10])[C@@:4]2([H:11])[N:5]([H:12])[C@@:6]12[H:13]>>[C:1](=[O:2])([H:7])[H:8].[C:3](=[C:4](/[C:6](=[N:5]\[H:12])[H:13])[H:11])([H:9])[H:10]"
C       -1.24185769      -0.94526644      -0.02630913
O       -0.26118203      -1.67937935       0.38117658
C        1.43275657      -0.44552587       0.30260943
C        0.77431378       0.74636682       0.47520971
N       -0.26383047       1.35225123      -1.14774635
C       -0.63896342       0.84497469       0.03436270
H       -2.07200174      -0.82034719       0.68522858
H       -1.60554902      -1.12749161      -1.04964859
H        2.25671307      -0.67496295       0.97237790
H        1.48594666      -0.95271388      -0.65094805
H        1.16243726       1.54286280       1.09708605
H        0.28545076       0.68473579      -1.68489788
H       -1.31423373       1.47449596       0.61149905
13
Frame=6 idx=001303 GeodesicLength=0.42349979810391764 rxn_smarts="[C:1]1([H:7])([H:8])[O:2][C:3]([H:9])([H:10])[C@@:4]2([H:11])[N:5]([H:12])[C@@:6]12[H:13]>>[C:1](=[O:2])([H:7])[H:8].[C:3](=[C:4](/[C:6](=[N:5]\[H:12])[H:13])[H:11])([H:9])[H:10]"
C       -1.25177540      -0.95149344      -0.03721735
O       -0.25569532      -1.68799816       0.33075362
C        1.42885801      -0.44417377       0.31274192
C        0.78244987       0.76114363       0.46714152
N       -0.25751495       1.34118986      -1.14345314
C       -0.63623421       0.85408594       0.04672926
H       -2.06317821      -0.84417304       0.69874227
H       -1.64495125      -1.12561280      -1.05084014
H        2.23451905      -0.67738152       1.00390701
H        1.51907197      -0.93784223      -0.64576191
H        1.17985911       1.55765670       1.08364412
H        0.27015912       0.66090287      -1.68587319
H       -1.30556779       1.49369597       0.61948603
13
Frame=7 idx=001303 GeodesicLength=0.49396607329518627 rxn_smarts="[C:1]1([H:7])([H:8])[O:2][C:3]([H:9])([H:10])[C@@:4]2([H:11])[N:5]([H:12])[C@@:6]12[H:13]>>[C:1](=[O:2])([H:7])[H:8].[C:3](=[C:4](/[C:6](=[N:5]\[H:12])[H:13])[H:11])([H:9])[H:10]"
C       -1.26173731      -0.95784823      -0.04814833
O       -0.25010909      -1.69509473       0.27801119
C        1.42430357      -0.44283502       0.32272340
C        0.79081686       0.77589144       0.45851051
N       -0.25175113       1.32959897      -1.13922489
C       -0.63318732       0.86323523       0.05904158
H       -2.05257329      -0.86933080       0.71251810
H       -1.68503408      -1.12379012      -1.05071064
H        2.20999973      -0.68004983       1.03584905
H        1.55271062      -0.92277718      -0.63897236
H        1.19772381       1.57222486       1.06945744
H        0.25511774       0.63765282      -1.68624176
H       -1.29628011       1.51312260       0.62718670
13
Frame=8 idx=001303 GeodesicLength=0.564328036876196 rxn_smarts="[C:1]1([H:7])([H:8])[O:2][C:3]([H:9])([H:10])[C@@:4]2([H:11])[N:5]([H:12])[C@@:6]12[H:13]>>[C:1](=[O:2])([H:7])[H:8].[C:3](=[C:4](/[C:6](=[N:5]\[H:12])[H:13])[H:11])([H:9])[H:10]"
C       -1.27168634      -0.96437604      -0.05904157
O       -0.24452980      -1.70043548       0.22342890
C        1.41905795      -0.44153882       0.33243647
C        0.79940529       0.79059568       0.44928895
N       -0.24654344       1.31762626      -1.13498373
C       -0.62982791       0.87248072       0.07133556
H       -2.04027342      -0.89579235       0.72622625
H       -1.72534934      -1.12225181      -1.04924859
H        2.18316768      -0.68288951       1.06789934
H        1.58661181      -0.90777352      -0.63055914
H        1.21601452       1.58646080       1.05460294
H        0.24033548       0.61511331      -1.68607553
H       -1.28638249       1.53278075       0.63469016
13
Frame=9 idx=001303 GeodesicLength=0.6348239865253813 rxn_smarts="[C:1]1([H:7])([H:8])[O:2][C:3]([H:9])([H:10])[C@@:4]2([H:11])[N:5]([H:12])[C@@:6]12[H:13]>>[C:1](=[O:2])([H:7])[H:8].[C:3](=[C:4](/[C:6](=[N:5]\[H:12])[H:13])[H:11])([H:9])[H:10]"
C       -1.28151842      -0.97117283      -0.06982583
O       -0.23900559      -1.70399397       0.16764296
C        1.41314157      -0.44037805       0.34179352
C        0.80819868       0.80528132       0.43951102
N       -0.24199639       1.30557997      -1.13080323
C       -0.62618195       0.88198905       0.08368033
H       -2.02643720      -0.92356259       0.73963358
H       -1.76529370      -1.12133177      -1.04665978
H        2.15409825      -0.68601561       1.09982340
H        1.62042345      -0.89319204      -0.62055617
H        1.23472786       1.60043369       1.03922054
H        0.22575220       0.59347404      -1.68567681
H       -1.27590877       1.55288877       0.64221646
13
Frame=10 idx=001303 GeodesicLength=0.7053461813190736 rxn_smarts="[C:1]1([H:7])([H:8])[O:2][C:3]([H:9])([H:10])[C@@:4]2([H:11])[N:5]([H:12])[C@@:6]12[H:13]>>[C:1](=[O:2])([H:7])[H:8].[C:3](=[C:4](/[C:6](=[N:5]\[H:12])[H:13])[H:11])([H:9])[H:10]"
C       -1.29119363      -0.97822490      -0.08047877
O       -0.23367287      -1.70546904       0.11115586
C        1.40655801      -0.43926462       0.35068336
C        0.81721564       0.81987872       0.42913761
N       -0.23808061       1.29345317      -1.12645388
C       -0.62221308       0.89170500       0.09613259
H       -2.01126810      -0.95259968       0.75228918
H       -1.80448718      -1.12119761      -1.04294994
H        2.12276858      -0.68923816       1.13131715
H        1.65384736      -0.87909760      -0.60890565
H        1.25397298       1.61399381       1.02317919
H        0.21133702       0.57278981      -1.68492266
H       -1.26478410       1.57327109       0.64981596
13
Frame=11 idx=001303 GeodesicLength=0.7762557876003062 rxn_smarts="[C:1]1([H:7])([H:8])[O:2][C:3]([H:9])([H:10])[C@@:4]2([H:11])[N:5]([H:12])[C@@:6]12[H:13]>>[C:1](=[O:2])([H:7])[H:8].[C:3](=[C:4](/[C:6](=[N:5]\[H:12])[H:13])[H:11])([H:9])[H:10]"
C       -1.30065634      -0.98561885      -0.09097932
O       -0.22855396      -1.70505754       0.05435660
C        1.39934040      -0.43826723       0.35905868
C        0.82639598       0.83440654       0.41821049
N       -0.23479102       1.28154795      -1.12203027
C       -0.61795849       0.90180204       0.10871178
H       -1.99477270      -0.98281790       0.76422496
H       -1.84268400      -1.12211973      -1.03831227
H        2.08931921      -0.69251597       1.16223190
H        1.68673208      -0.86591157      -0.59570312
H        1.27362492       1.62714629       1.00668800
H        0.19709342       0.55323117      -1.68406738
H       -1.25308948       1.59417481       0.65760996
13
Frame=12 idx=001303 GeodesicLength=0.8467687986860967 rxn_smarts="[C:1]1([H:7])([H:8])[O:2][C:3]([H:9])([H:10])[C@@:4]2([H:11])[N:5]([H:12])[C@@:6]12[H:13]>>[C:1](=[O:2])([H:7])[H:8].[C:3](=[C:4](/[C:6](=[N:5]\[H:12])[H:13])[H:11])([H:9])[H:10]"
C       -1.30987843      -0.99322508      -0.10135614
O       -0.22392661      -1.70231687      -0.00115287
C        1.39159739      -0.43718811       0.36677175
C        0.83581089       0.84866686       0.40677369
N       -0.23222413       1.26968753      -1.11705519
C       -0.61331511       0.91204387       0.12156735
H       -1.97796530      -1.01372831       0.77418351
H       -1.87891904      -1.12445888      -1.03316137
H        2.05452347      -0.69529523       1.19172443
H        1.71824624      -0.85359975      -0.58098427
H        1.29389665       1.63953358       0.98966878
H        0.18273110       0.53477761      -1.68268887
H       -1.24057713       1.61510278       0.66570921
13
Frame=13 idx=001303 GeodesicLength=0.9173156789555243 rxn_smarts="[C:1]1([H:7])([H:8])[O:2][C:3]([H:9])([H:10])[C@@:4]2([H:11])[N:5]([H:12])[C@@:6]12[H:13]>>[C:1](=[O:2])([H:7])[H:8].[C:3](=[C:4](/[C:6](=[N:5]\[H:12])[H:13])[H:11])([H:9])[H:10]"
C       -1.31888199      -1.00113552      -0.11160239
O       -0.21983475      -1.69765222      -0.05499793
C        1.38340263      -0.43605394       0.37380063
C        0.84540505       0.86270421       0.39488143
N       -0.23028795       1.25811067      -1.11157231
C       -0.60829451       0.92255137       0.13474924
H       -1.96110280      -1.04523980       0.78228751
H       -1.91307718      -1.12842468      -1.02777601
H        2.01859008      -0.69752850       1.21969680
H        1.74839136      -0.84238408      -0.56496199
H        1.31469659       1.65125930       0.97220884
H        0.16830110       0.51754392      -1.68095084
H       -1.22730765       1.63624925       0.67423702
13
Frame=14 idx=001303 GeodesicLength=0.987969128539651 rxn_smarts="[C:1]1([H:7])([H:8])[O:2][C:3]([H:9])([H:10])[C@@:4]2([H:11])[N:5]([H:12])[C@@:6]12[H:13]>>[C:1](=[O:2])([H:7])[H:8].[C:3](=[C:4](/[C:6](=[N:5]\[H:12])[H:13])[H:11])([H:9])[H:10]"
C       -1.32767243      -1.00937585      -0.12174585
O       -0.21627340      -1.69139959      -0.10660611
C        1.37488357      -0.43490656       0.38016421
C        0.85512752       0.87650728       0.38262101
N       -0.22900629       1.24697627      -1.10558418
C       -0.60291269       0.93340060       0.14833853
H       -1.94460852      -1.07711570       0.78843851
H       -1.94493286      -1.13419856      -1.02255956
H        1.98202180      -0.69909894       1.24604426
H        1.77701521      -0.83245466      -0.54786783
H        1.33596632       1.66236140       0.95438672
H        0.15370297       0.50157189      -1.67897820
H       -1.21331121       1.65773244       0.68334849
13
Frame=15 idx=001303 GeodesicLength=1.0586333193601647 rxn_smarts="[C:1]1([H:7])([H:8])[O:2][C:3]([H:9])([H:10])[C@@:4]2([H:11])[N:5]([H:12])[C@@:6]12[H:13]>>[C:1](=[O:2])([H:7])[H:8].[C:3](=[C:4](/[C:6](=[N:5]\[H:12])[H:13])[H:11])([H:9])[H:10]"
C       -1.33630161      -1.01791721      -0.13183202
O       -0.21326955      -1.68374870      -0.15565736
C        1.36613144      -0.43368979       0.38589383
C        0.86495559       0.89002468       0.37004105
N       -0.22835307       1.23625952      -1.09898503
C       -0.59714684       0.94454411       0.16237479
H       -1.92882581      -1.10916690       0.79253510
H       -1.97445942      -1.14182067      -1.01775992
H        1.94517929      -0.69982177       1.27066997
H        1.80406103      -0.82373620      -0.52981098
H        1.35771009       1.67278984       0.93615393
H        0.13886677       0.48681458      -1.67667870
H       -1.19854791       1.67946852       0.69305534
13
Frame=16 idx=001303 GeodesicLength=1.1292754388128705 rxn_smarts="[C:1]1([H:7])([H:8])[O:2][C:3]([H:9])([H:10])[C@@:4]2([H:11])[N:5]([H:12])[C@@:6]12[H:13]>>[C:1](=[O:2])([H:7])[H:8].[C:3](=[C:4](/[C:6](=[N:5]\[H:12])[H:13])[H:11])([H:9])[H:10]"
C       -1.34481989      -1.02674763      -0.14190962
O       -0.21081820      -1.67494439      -0.20198473
C        1.35722379      -0.43237947       0.39104426
C        0.87485404       0.90323109       0.35719455
N       -0.22830461       1.22595751      -1.09172474
C       -0.59097955       0.95596752       0.17689127
H       -1.91400219      -1.14124196       0.79459300
H       -2.00170332      -1.15130829      -1.01360800
H        1.90837690      -0.69957716       1.29357909
H        1.82952700      -0.81616145      -0.51091327
H        1.37990555       1.68254656       0.91747920
H        0.12373074       0.47321863      -1.67401985
H       -1.18299027       1.70143903       0.70337884
