18
Frame=0 idx=002971 GeodesicLength=0.0 rxn_smarts="[C:1]([C:2]([C:3]1([C:4]([H:12])([H:13])[H:14])[C:5]([H:15])([H:16])[C:6]1([H:17])[H:18])([H:10])[H:11])([H:7])([H:8])[H:9]>>[C:1]([C:2]([C:6]([C:5]([C:3][C:4]([H:12])([H:13])[H:14])([H:15])[H:16])([H:17])[H:18])([H:10])[H:11])([H:7])([H:8])[H:9]"
C        1.72193144      -0.90101192      -0.83556361
C        0.92092205      -0.57648386       0.43586007
C       -0.60049558       0.47105458       1.00895713
C       -0.39631483       1.83693515       0.40252705
C       -1.83079687      -0.18933591       0.50625718
C       -0.76068560      -0.71197729      -0.36890808
H        1.34761363      -1.77950654      -1.36580771
H        2.76095097      -1.09050637      -0.55500602
H        1.71994526      -0.05777055      -1.53009164
H        0.92522228      -1.41304742       1.12915102
H        1.46674162       0.23435265       0.90932675
H       -1.05014458       2.50620309       0.96928962
H       -0.66903330       1.95191691      -0.65865309
H        0.62672303       2.20072831       0.53096925
H       -2.31825875      -0.90422636       1.16348801
H       -2.53705864       0.45492518      -0.01458330
H       -0.67808376      -0.24371714      -1.34142164
H       -0.64917832      -1.78853246      -0.38579091
18
Frame=1 idx=002971 GeodesicLength=0.06994485804605562 rxn_smarts="[C:1]([C:2]([C:3]1([C:4]([H:12])([H:13])[H:14])[C:5]([H:15])([H:16])[C:6]1([H:17])[H:18])([H:10])[H:11])([H:7])([H:8])[H:9]>>[C:1]([C:2]([C:6]([C:5]([C:3][C:4]([H:12])([H:13])[H:14])([H:15])[H:16])([H:17])[H:18])([H:10])[H:11])([H:7])([H:8])[H:9]"
C        1.73731735      -0.90648808      -0.82647586
C        0.91917164      -0.58924051       0.43536982
C       -0.59443294       0.48588759       0.99075009
C       -0.40688640       1.85359965       0.38986255
C       -1.82520245      -0.19049438       0.51500571
C       -0.76349220      -0.70711271      -0.37836074
H        1.36242401      -1.77480887      -1.37285713
H        2.77014860      -1.11217973      -0.53486360
H        1.75442733      -0.05565815      -1.51146077
H        0.90684230      -1.43430756       1.11905965
H        1.47120660       0.20537920       0.93044632
H       -1.04280900       2.51646989       0.98475870
H       -0.71911626       1.97514099      -0.65930850
H        0.61923006       2.21793019       0.48705387
H       -2.28434106      -0.91034072       1.18723834
H       -2.54782368       0.44503394       0.00578930
H       -0.68902935      -0.23382355      -1.34944298
H       -0.66763457      -1.78498719      -0.41256477
18
Frame=2 idx=002971 GeodesicLength=0.13961717348722408 rxn_smarts="[C:1]([C:2]([C:3]1([C:4]([H:12])([H:13])[H:14])[C:5]([H:15])([H:16])[C:6]1([H:17])[H:18])([H:10])[H:11])([H:7])([H:8])[H:9]>>[C:1]([C:2]([C:6]([C:5]([C:3][C:4]([H:12])([H:13])[H:14])([H:15])[H:16])([H:17])[H:18])([H:10])[H:11])([H:7])([H:8])[H:9]"
C        1.75285915      -0.91206978      -0.81694785
C        0.91722395      -0.60220934       0.43475361
C       -0.58795382       0.50086102       0.97180586
C       -0.41800752       1.87051990       0.37678620
C       -1.81880502      -0.19157313       0.52395383
C       -0.76629232      -0.70216137      -0.38815537
H        1.37764839      -1.76960240      -1.37994776
H        2.77899664      -1.13444409      -0.51430133
H        1.78956423      -0.05359275      -1.49153246
H        0.88818009      -1.45576731       1.10821902
H        1.47470064       0.17524963       0.95224343
H       -1.03422955       2.52665714       1.00009038
H       -0.77052275       1.99821911      -0.65851435
H        0.61032114       2.23558045       0.44122336
H       -2.24896648      -0.91587814       1.21065464
H       -2.55791343       0.43483822       0.02702510
H       -0.70046106      -0.22375002      -1.35770648
H       -0.68634228      -1.78087715      -0.43964982
18
Frame=3 idx=002971 GeodesicLength=0.2089915617539982 rxn_smarts="[C:1]([C:2]([C:3]1([C:4]([H:12])([H:13])[H:14])[C:5]([H:15])([H:16])[C:6]1([H:17])[H:18])([H:10])[H:11])([H:7])([H:8])[H:9]>>[C:1]([C:2]([C:6]([C:5]([C:3][C:4]([H:12])([H:13])[H:14])([H:15])[H:16])([H:17])[H:18])([H:10])[H:11])([H:7])([H:8])[H:9]"
C        1.76853843      -0.91773944      -0.80697932
C        0.91508439      -0.61538429       0.43398469
C       -0.58103797       0.51595194       0.95209552
C       -0.42968635       1.88766976       0.36332981
C       -1.81155952      -0.19253601       0.53307784
C       -0.76908662      -0.69715891      -0.39827982
H        1.39331594      -1.76384600      -1.38706304
H        2.78745876      -1.15726359      -0.49336998
H        1.82530242      -0.05158621      -1.47025800
H        0.86929393      -1.47741865       1.09657495
H        1.47711262       0.14395172       0.97465413
H       -1.02434764       2.53672404       1.01516093
H       -0.82304248       2.02104836      -0.65612149
H        0.59978316       2.25375479       0.39357181
H       -2.21215787      -0.92073639       1.23364367
H       -2.56722736       0.42437721       0.04910691
H       -0.71242193      -0.21357162      -1.36620976
H       -0.70532190      -1.77623671      -0.46691884
18
Frame=4 idx=002971 GeodesicLength=0.27806416650999677 rxn_smarts="[C:1]([C:2]([C:3]1([C:4]([H:12])([H:13])[H:14])[C:5]([H:15])([H:16])[C:6]1([H:17])[H:18])([H:10])[H:11])([H:7])([H:8])[H:9]>>[C:1]([C:2]([C:6]([C:5]([C:3][C:4]([H:12])([H:13])[H:14])([H:15])[H:16])([H:17])[H:18])([H:10])[H:11])([H:7])([H:8])[H:9]"
C        1.78434707      -0.92347462      -0.79656537
C        0.91276352      -0.62876552       0.43304206
C       -0.57366403       0.53113737       0.93158961
C       -0.44191966       1.90501544       0.34952296
C       -1.80341805      -0.19333891       0.54234671
C       -0.77187579      -0.69214584      -0.40871849
H        1.40946267      -1.75748364      -1.39419007
H        2.79550392      -1.18060929      -0.47211938
H        1.86158996      -0.04963826      -1.44757033
H        0.85024894      -1.49926287       1.08407574
H        1.47831889       0.11146535       0.99761168
H       -1.01307569       2.54663550       1.02985599
H       -0.87650975       2.04354876      -0.65198983
H        0.58740122       2.27252078       0.34417513
H       -2.17395562      -0.92481490       1.25611165
H       -2.57566464       0.41369671       0.07200749
H       -0.72495216      -0.20337266      -1.37494971
H       -0.72460082      -1.77111339      -0.49423584
18
Frame=5 idx=002971 GeodesicLength=0.3468762023035161 rxn_smarts="[C:1]([C:2]([C:3]1([C:4]([H:12])([H:13])[H:14])[C:5]([H:15])([H:16])[C:6]1([H:17])[H:18])([H:10])[H:11])([H:7])([H:8])[H:9]>>[C:1]([C:2]([C:6]([C:5]([C:3][C:4]([H:12])([H:13])[H:14])([H:15])[H:16])([H:17])[H:18])([H:10])[H:11])([H:7])([H:8])[H:9]"
C        1.80029435      -0.92922886      -0.78568765
C        0.91026655      -0.64238597       0.43195683
C       -0.56580110       0.54641068       0.91025107
C       -0.45464214       1.92251827       0.33539006
C       -1.79434036      -0.19393077       0.55171515
C       -0.77467827      -0.68714542      -0.41943373
H        1.42613358      -1.75039223      -1.40134742
H        2.80315076      -1.20443514      -0.45060871
H        1.89837961      -0.04768006      -1.42333730
H        0.83106242      -1.52135071       1.07069163
H        1.47826223       0.07772912       1.02110712
H       -1.00034321       2.55641809       1.04404235
H       -0.93100841       2.06570113      -0.64605519
H        0.57320085       2.29181171       0.29298919
H       -2.13445447      -0.92814697       1.27797016
H       -2.58314096       0.40285200       0.09568684
H       -0.73811849      -0.19321890      -1.38388405
H       -0.74422294      -1.76552598      -0.52144633
18
Frame=6 idx=002971 GeodesicLength=0.41539698570857725 rxn_smarts="[C:1]([C:2]([C:3]1([C:4]([H:12])([H:13])[H:14])[C:5]([H:15])([H:16])[C:6]1([H:17])[H:18])([H:10])[H:11])([H:7])([H:8])[H:9]>>[C:1]([C:2]([C:6]([C:5]([C:3][C:4]([H:12])([H:13])[H:14])([H:15])[H:16])([H:17])[H:18])([H:10])[H:11])([H:7])([H:8])[H:9]"
C        1.81635458      -0.93497323      -0.77435496
C        0.90759826      -0.65622573       0.43067018
C       -0.55744857       0.56172674       0.88803648
C       -0.46786716       1.94013023       0.32096388
C       -1.78429826      -0.19427434       0.56115376
C       -0.77750083      -0.68222992      -0.43042100
H        1.44337050      -1.74253234      -1.40850190
H        2.81035356      -1.22867642      -0.42888879
H        1.93559676      -0.04573551      -1.39753895
H        0.81182240      -1.54365142       1.05635426
H        1.47676668       0.04278674       1.04500860
H       -0.98607525       2.56598577       1.05757013
H       -0.98609491       2.08735326      -0.63815878
H        0.55684991       2.31175373       0.24027245
H       -2.09368184      -0.93052623       1.29916816
H       -2.58955256       0.39189993       0.12010438
H       -0.75196633      -0.18323876      -1.39302860
H       -0.76422693      -1.75957251      -0.54840928
18
Frame=7 idx=002971 GeodesicLength=0.48363590078481744 rxn_smarts="[C:1]([C:2]([C:3]1([C:4]([H:12])([H:13])[H:14])[C:5]([H:15])([H:16])[C:6]1([H:17])[H:18])([H:10])[H:11])([H:7])([H:8])[H:9]>>[C:1]([C:2]([C:6]([C:5]([C:3][C:4]([H:12])([H:13])[H:14])([H:15])[H:16])([H:17])[H:18])([H:10])[H:11])([H:7])([H:8])[H:9]"
C        1.83252438      -0.94066904      -0.76256263
C        0.90476652      -0.67028051       0.42915984
C       -0.54860100       0.57705865       0.86490240
C       -0.48156565       1.95780489       0.30629255
C       -1.77327247      -0.19432031       0.57060939
C       -0.78035669      -0.67745111      -0.44166105
H        1.46121764      -1.73384570      -1.41562846
H        2.81711024      -1.25325486      -0.40701348
H        1.97317080      -0.04380395      -1.37013458
H        0.79259305      -1.56615554       1.04101901
H        1.47370709       0.00667200       1.06920695
H       -0.97018571       2.57528759       1.07030375
H       -1.04150658       2.10841657      -0.62819888
H        0.53815572       2.33236917       0.18618916
H       -2.05173626      -0.93187456       1.31966076
H       -2.59481555       0.38091155       0.14520437
H       -0.76654518      -0.17353809      -1.40237253
H       -0.78466037      -1.75332676      -0.57497656
18
Frame=8 idx=002971 GeodesicLength=0.5516251316371462 rxn_smarts="[C:1]([C:2]([C:3]1([C:4]([H:12])([H:13])[H:14])[C:5]([H:15])([H:16])[C:6]1([H:17])[H:18])([H:10])[H:11])([H:7])([H:8])[H:9]>>[C:1]([C:2]([C:6]([C:5]([C:3][C:4]([H:12])([H:13])[H:14])([H:15])[H:16])([H:17])[H:18])([H:10])[H:11])([H:7])([H:8])[H:9]"
C        1.84879600      -0.94626985      -0.75030369
C        0.90177555      -0.68455132       0.42740710
C       -0.53926181       0.59236839       0.84079976
C       -0.49569766       1.97548256       0.29140505
C       -1.76124267      -0.19402431       0.58004113
C       -0.78326479      -0.67287180      -0.45313639
H        1.47973510      -1.72423040      -1.42270547
H        2.82340237      -1.27811250      -0.38502926
H        2.01103339      -0.04185528      -1.34103776
H        0.77343352      -1.58886123       1.02464219
H        1.46895798      -0.03057896       1.09358301
H       -0.95257756       2.58428682       1.08209543
H       -1.09701410       2.12882499      -0.61607808
H        0.51696886       2.35365422       0.13089182
H       -2.00870172      -0.93210686       1.33940047
H       -2.59885102       0.36995297       0.17093569
H       -0.78191528      -0.16422983      -1.41190404
H       -0.80557615      -1.74687761      -0.60100696
18
Frame=9 idx=002971 GeodesicLength=0.6193870249181344 rxn_smarts="[C:1]([C:2]([C:3]1([C:4]([H:12])([H:13])[H:14])[C:5]([H:15])([H:16])[C:6]1([H:17])[H:18])([H:10])[H:11])([H:7])([H:8])[H:9]>>[C:1]([C:2]([C:6]([C:5]([C:3][C:4]([H:12])([H:13])[H:14])([H:15])[H:16])([H:17])[H:18])([H:10])[H:11])([H:7])([H:8])[H:9]"
C        1.86518295      -0.95169557      -0.73754440
C        0.89862007      -0.69909919       0.42544548
C       -0.52938501       0.60762791       0.81569309
C       -0.51008895       1.99309719       0.27632860
C       -1.74818940      -0.19333898       0.58940657
C       -0.78626190      -0.66852018      -0.46480108
H        1.49897804      -1.71351461      -1.42974533
H        2.82929010      -1.30314164      -0.36300521
H        2.04909256      -0.03977091      -1.31008388
H        0.75434176      -1.61185698       1.00717431
H        1.46245425      -0.06899754       1.11808815
H       -0.93334223       2.59307901       1.09269533
H       -1.15266975       2.14857036      -0.60172861
H        0.49348784       2.37536355       0.07436491
H       -1.96469764      -0.93129755       1.35835162
H       -2.60159995       0.35910359       0.19726840
H       -0.79815537      -0.15537284      -1.42155047
H       -0.82705736      -1.74023562      -0.62635746
18
Frame=10 idx=002971 GeodesicLength=0.6869712464403963 rxn_smarts="[C:1]([C:2]([C:3]1([C:4]([H:12])([H:13])[H:14])[C:5]([H:15])([H:16])[C:6]1([H:17])[H:18])([H:10])[H:11])([H:7])([H:8])[H:9]>>[C:1]([C:2]([C:6]([C:5]([C:3][C:4]([H:12])([H:13])[H:14])([H:15])[H:16])([H:17])[H:18])([H:10])[H:11])([H:7])([H:8])[H:9]"
C        1.88166663      -0.95693361      -0.72428890
C        0.89530706      -0.71385118       0.42319172
C       -0.51904862       0.62278754       0.78950928
C       -0.52478511       2.01058344       0.26110595
C       -1.73412863      -0.19224497       0.59863688
C       -0.78936907      -0.66449389      -0.47667030
H        1.51900140      -1.70169360      -1.43666225
H        2.83472834      -1.32829606      -0.34096614
H        2.08728198      -0.03763840      -1.27729988
H        0.73542573      -1.63501436       0.98859127
H        1.45401491      -0.10840128       1.14249423
H       -0.91220679       2.60151396       1.10205478
H       -1.20794439       2.16753258      -0.58504910
H        0.46730774       2.39769178       0.01701265
H       -1.91979415      -0.92927654       1.37647449
H       -2.60299344       0.34842207       0.22411078
H       -0.81531560      -0.14712913      -1.43135010
H       -0.84914798      -1.73355835      -0.65089537
18
Frame=11 idx=002971 GeodesicLength=0.7544306052871713 rxn_smarts="[C:1]([C:2]([C:3]1([C:4]([H:12])([H:13])[H:14])[C:5]([H:15])([H:16])[C:6]1([H:17])[H:18])([H:10])[H:11])([H:7])([H:8])[H:9]>>[C:1]([C:2]([C:6]([C:5]([C:3][C:4]([H:12])([H:13])[H:14])([H:15])[H:16])([H:17])[H:18])([H:10])[H:11])([H:7])([H:8])[H:9]"
C        1.89824631      -0.96195251      -0.71052667
C        0.89183951      -0.72878286       0.42061461
C       -0.50828470       0.63780289       0.76219300
C       -0.53972510       2.02788252       0.24580255
C       -1.71907359      -0.19071794       0.60767225
C       -0.79261258      -0.66084590      -0.48873972
H        1.53985577      -1.68871833      -1.44339335
H        2.83972613      -1.35349639      -0.31893868
H        2.12553016      -0.03547842      -1.24264798
H        0.71673374      -1.65828537       0.96887546
H        1.44354673      -0.14866126       1.16662045
H       -0.88909674       2.60953354       1.11003935
H       -1.26258508       2.18566380      -0.56597459
H        0.43834005       2.42060323      -0.04094107
H       -1.87409328      -0.92600992       1.39374506
H       -2.60299182       0.33797290       0.25140207
H       -0.83344828      -0.13958902      -1.44128630
H       -0.87190723      -1.72692096      -0.67451645
18
Frame=12 idx=002971 GeodesicLength=0.8218291063627157 rxn_smarts="[C:1]([C:2]([C:3]1([C:4]([H:12])([H:13])[H:14])[C:5]([H:15])([H:16])[C:6]1([H:17])[H:18])([H:10])[H:11])([H:7])([H:8])[H:9]>>[C:1]([C:2]([C:6]([C:5]([C:3][C:4]([H:12])([H:13])[H:14])([H:15])[H:16])([H:17])[H:18])([H:10])[H:11])([H:7])([H:8])[H:9]"
C        1.91491672      -0.96673522      -0.69623702
C        0.88822992      -0.74385845       0.41767368
C       -0.49714142       0.65263239       0.73369727
C       -0.55483340       2.04493221       0.23047125
C       -1.70304118      -0.18874076       0.61645099
C       -0.79602133      -0.65762610      -0.50100718
H        1.56158703      -1.67454345      -1.44985385
H        2.84428864      -1.37870280      -0.29695693
H        2.16376229      -0.03332862      -1.20609544
H        0.69832371      -1.68159705       0.94802070
H        1.43098985      -0.18961931       1.19026455
H       -0.86396670       2.61710991       1.11648925
H       -1.31635624       2.20294302      -0.54443351
H        0.40652201       2.44406812      -0.09922357
H       -1.82769507      -0.92151474       1.41011996
H       -2.60156293       0.32781166       0.27907816
H       -0.85260805      -0.13283142      -1.45133607
H       -0.89539384      -1.72039938      -0.69712224
18
Frame=13 idx=002971 GeodesicLength=0.8891791876479607 rxn_smarts="[C:1]([C:2]([C:3]1([C:4]([H:12])([H:13])[H:14])[C:5]([H:15])([H:16])[C:6]1([H:17])[H:18])([H:10])[H:11])([H:7])([H:8])[H:9]>>[C:1]([C:2]([C:6]([C:5]([C:3][C:4]([H:12])([H:13])[H:14])([H:15])[H:16])([H:17])[H:18])([H:10])[H:11])([H:7])([H:8])[H:9]"
C        1.93167352      -0.97118490      -0.68137785
C        0.88445427      -0.75911057       0.41437393
C       -0.48563621       0.66720996       0.70398536
C       -0.56992454       2.06164081       0.21511792
C       -1.68605102      -0.18631389       0.62492787
C       -0.79966013      -0.65488331      -0.51344347
H        1.58424875      -1.65894633      -1.45603654
H        2.84845402      -1.40381129      -0.27507755
H        2.20186303      -0.03105892      -1.16744402
H        0.68019371      -1.70498818       0.92599366
H        1.41629494      -0.23119940       1.21332708
H       -0.83690911       2.62437331       1.12116107
H       -1.36919470       2.21937235      -0.52030963
H        0.37216705       2.46772955      -0.15784299
H       -1.78068534      -0.91588967       1.42557089
H       -2.59868856       0.31799058       0.30710851
H       -0.87289851      -0.12691577      -1.46142452
H       -0.91970119      -1.71401434      -0.71860973
18
Frame=14 idx=002971 GeodesicLength=0.9566091034714425 rxn_smarts="[C:1]([C:2]([C:3]1([C:4]([H:12])([H:13])[H:14])[C:5]([H:15])([H:16])[C:6]1([H:17])[H:18])([H:10])[H:11])([H:7])([H:8])[H:9]>>[C:1]([C:2]([C:6]([C:5]([C:3][C:4]([H:12])([H:13])[H:14])([H:15])[H:16])([H:17])[H:18])([H:10])[H:11])([H:7])([H:8])[H:9]"
C        1.94851393      -0.97537236      -0.66594949
C        0.88054846      -0.77439235       0.41061954
C       -0.47392326       0.68150406       0.67299749
C       -0.58505352       2.07797185       0.19984226
C       -1.66815456      -0.18345256       0.63300386
C       -0.80353819      -0.65266642      -0.52609708
H        1.60787026      -1.64207375      -1.46176998
H        2.85219440      -1.42884535      -0.25327338
H        2.23980870      -0.02890661      -1.12683540
H        0.66244409      -1.72821679       0.90285509
H        1.39940614      -0.27306187       1.23551354
H       -0.80765718       2.63113002       1.12402619
H       -1.42067117       2.23491232      -0.49353521
H        0.33488569       2.49183694      -0.21629969
H       -1.73314418      -0.90909882       1.44003544
H       -2.59436182       0.30852875       0.33538367
H       -0.89432982      -0.12191562      -1.47158385
H       -0.94483796      -1.70788146      -0.73893303
18
Frame=15 idx=002971 GeodesicLength=1.0241807883780103 rxn_smarts="[C:1]([C:2]([C:3]1([C:4]([H:12])([H:13])[H:14])[C:5]([H:15])([H:16])[C:6]1([H:17])[H:18])([H:10])[H:11])([H:7])([H:8])[H:9]>>[C:1]([C:2]([C:6]([C:5]([C:3][C:4]([H:12])([H:13])[H:14])([H:15])[H:16])([H:17])[H:18])([H:10])[H:11])([H:7])([H:8])[H:9]"
C        1.96543196      -0.97930528      -0.64993633
C        0.87652603      -0.78962666       0.40636517
C       -0.46210576       0.69546772       0.64070323
C       -0.60015772       2.09387651       0.18472158
C       -1.64940257      -0.18018457       0.64060521
C       -0.80769003      -0.65100391      -0.53897880
H        1.63246915      -1.62393928      -1.46695316
H        2.85551301      -1.45377615      -0.23155470
H        2.27753526      -0.02695937      -1.08428571
H        0.64511287      -1.75115863       0.87865222
H        1.38035025      -0.31494513       1.25662879
H       -0.77622202       2.63736457       1.12496232
H       -1.47055717       2.24954070      -0.46405188
H        0.29473951       2.51632387      -0.27433942
H       -1.68515573      -0.90122448       1.45345577
H       -2.58859669       0.29943499       0.36382950
H       -0.91694977      -0.11785810      -1.48177358
H       -0.97084058      -1.70202680      -0.75805021
18
Frame=16 idx=002971 GeodesicLength=1.091968909290542 rxn_smarts="[C:1]([C:2]([C:3]1([C:4]([H:12])([H:13])[H:14])[C:5]([H:15])([H:16])[C:6]1([H:17])[H:18])([H:10])[H:11])([H:7])([H:8])[H:9]>>[C:1]([C:2]([C:6]([C:5]([C:3][C:4]([H:12])([H:13])[H:14])([H:15])[H:16])([H:17])[H:18])([H:10])[H:11])([H:7])([H:8])[H:9]"
C        1.98242594      -0.98300891      -0.63332788
C        0.87240823      -0.80472289       0.40156517
C       -0.45030980       0.70906356       0.60708431
C       -0.61516722       2.10931116       0.16982343
C       -1.62985001      -0.17654313       0.64765279
C       -0.81214730      -0.64991022      -0.55210612
H        1.65805751      -1.60455425      -1.47148101
H        2.85841143      -1.47862740      -0.20993748
H        2.31500532      -0.02532100      -1.03980389
H        0.62824229      -1.77367058       0.85344838
H        1.35919863      -0.35658382       1.27649343
H       -0.74265961       2.64309143       1.12380309
H       -1.51866126       2.26328087      -0.43174420
H        0.25177947       2.54107190      -0.33171736
H       -1.63678764      -0.89237097       1.46576457
H       -2.58141524       0.29070624       0.39236533
H       -0.94079821      -0.11474651      -1.49195078
H       -0.99773253      -1.69646545      -0.77593177
