19
Frame=0 idx=009712 GeodesicLength=0.0 rxn_smarts="[C:1]([C@@:2]1([H:11])[C@@:3]2([H:12])[C:4]([H:13])([H:14])[C:5]([H:15])([H:16])[C:6]([H:17])([H:18])[C@@:7]12[H:19])([H:8])([H:9])[H:10]>>[C:1](/[C:2](=[C:3](\[C:7](=[C:6]([H:17])[H:18])[H:19])[H:12])[H:11])([H:8])([H:9])[H:10].[C:4](=[C:5]([H:15])[H:16])([H:13])[H:14]"
C       -2.14143366      -0.32508322       0.57991796
C       -1.48226941      -0.33265996      -0.75822778
C       -0.12778435      -0.16132785      -1.06096707
C        0.77714090       1.41656917      -0.57102820
C        1.79634383       1.03247325       0.32562253
C        1.03930989      -0.90608190       0.94916899
C        0.57364533      -1.20023912      -0.30102588
H       -2.51569803       0.68371805       0.80066478
H       -3.00977020      -0.98694481       0.59096849
H       -1.48421751      -0.61507860       1.39712296
H       -2.18099778      -0.33609171      -1.59329122
H        0.05318357      -0.22202327      -2.13212978
H        1.08875873       1.69589388      -1.57168260
H        0.01023640       2.07727866      -0.17836454
H        2.76051218       0.72601415      -0.05931683
H        1.82030431       1.42863492       1.33164222
H        0.47371541      -0.26354984       1.60965293
H        1.68142507      -1.61157005       1.46809187
H        0.86759539      -2.09993173      -0.82681880
19
Frame=1 idx=009712 GeodesicLength=0.0916698965612234 rxn_smarts="[C:1]([C@@:2]1([H:11])[C@@:3]2([H:12])[C:4]([H:13])([H:14])[C:5]([H:15])([H:16])[C:6]([H:17])([H:18])[C@@:7]12[H:19])([H:8])([H:9])[H:10]>>[C:1](/[C:2](=[C:3](\[C:7](=[C:6]([H:17])[H:18])[H:19])[H:12])[H:11])([H:8])([H:9])[H:10].[C:4](=[C:5]([H:15])[H:16])([H:13])[H:14]"
C       -2.14151189      -0.30034387       0.58006796
C       -1.47753331      -0.34917230      -0.75472174
C       -0.12849592      -0.16281487      -1.07319398
C        0.77941824       1.42443182      -0.55887727
C        1.79143767       1.03803826       0.34666930
C        1.04990655      -0.92528785       0.92948411
C        0.55127354      -1.21580341      -0.31186084
H       -2.57865486       0.69406091       0.74022559
H       -2.96417708      -1.01653989       0.63078774
H       -1.47736827      -0.49800212       1.41866964
H       -2.17651982      -0.38229338      -1.58910728
H        0.04776032      -0.22371495      -2.14504883
H        1.10300255       1.69836175      -1.55753995
H        0.01446256       2.09324961      -0.17583367
H        2.76314204       0.74424609      -0.02977356
H        1.80579423       1.44111469       1.35056063
H        0.49172530      -0.30800245       1.61963893
H        1.70833748      -1.63543148       1.42141243
H        0.83800068      -2.11609656      -0.84155922
19
Frame=2 idx=009712 GeodesicLength=0.18283013830159353 rxn_smarts="[C:1]([C@@:2]1([H:11])[C@@:3]2([H:12])[C:4]([H:13])([H:14])[C:5]([H:15])([H:16])[C:6]([H:17])([H:18])[C@@:7]12[H:19])([H:8])([H:9])[H:10]>>[C:1](/[C:2](=[C:3](\[C:7](=[C:6]([H:17])[H:18])[H:19])[H:12])[H:11])([H:8])([H:9])[H:10].[C:4](=[C:5]([H:15])[H:16])([H:13])[H:14]"
C       -2.13915672      -0.27703857       0.58146426
C       -1.47294089      -0.36326813      -0.75037523
C       -0.12971741      -0.16441768      -1.08658578
C        0.78325955       1.43182114      -0.54914594
C        1.78402621       1.04418818       0.37010746
C        1.05827519      -0.94395720       0.90881150
C        0.52906676      -1.23075595      -0.32393874
H       -2.63764759       0.69523617       0.68594477
H       -2.91245477      -1.04208004       0.67676614
H       -1.46889433      -0.38188037       1.43176101
H       -2.17345012      -0.42415887      -1.58207799
H        0.04011902      -0.22639162      -2.15932859
H        1.12270219       1.69606651      -1.54547119
H        0.02093236       2.11193450      -0.18057090
H        2.76505693       0.76392093       0.00707372
H        1.78410206       1.45488657       1.37146299
H        0.50636148      -0.35405092       1.62740279
H        1.73251428      -1.65791844       1.37359981
H        0.80784579      -2.13213621      -0.85690009
19
Frame=3 idx=009712 GeodesicLength=0.2734526983845816 rxn_smarts="[C:1]([C@@:2]1([H:11])[C@@:3]2([H:12])[C:4]([H:13])([H:14])[C:5]([H:15])([H:16])[C:6]([H:17])([H:18])[C@@:7]12[H:19])([H:8])([H:9])[H:10]>>[C:1](/[C:2](=[C:3](\[C:7](=[C:6]([H:17])[H:18])[H:19])[H:12])[H:11])([H:8])([H:9])[H:10].[C:4](=[C:5]([H:15])[H:16])([H:13])[H:14]"
C       -2.13423149      -0.25505263       0.58416309
C       -1.46834832      -0.37551378      -0.74534879
C       -0.13134357      -0.16640898      -1.10112943
C        0.78833128       1.43864290      -0.54172070
C        1.77373415       1.05093510       0.39570846
C        1.06468762      -0.96188880       0.88722290
C        0.50726140      -1.24521184      -0.33720534
H       -2.69107970       0.68871991       0.63909556
H       -2.85577852      -1.06201238       0.72731483
H       -1.45912003      -0.26927387       1.43694380
H       -2.17167905      -0.46136192      -1.57251466
H        0.03051935      -0.23020561      -2.17486091
H        1.14730347       1.68895987      -1.53506039
H        0.02942461       2.13283827      -0.19235924
H        2.76559284       0.78505007       0.05096794
H        1.75496012       1.46991457       1.39387036
H        0.51762912      -0.40153948       1.63278806
H        1.75445628      -1.67852501       1.32483112
H        0.77768044      -2.14806636      -0.87270666
19
Frame=4 idx=009712 GeodesicLength=0.3641470433766649 rxn_smarts="[C:1]([C@@:2]1([H:11])[C@@:3]2([H:12])[C:4]([H:13])([H:14])[C:5]([H:15])([H:16])[C:6]([H:17])([H:18])[C@@:7]12[H:19])([H:8])([H:9])[H:10]>>[C:1](/[C:2](=[C:3](\[C:7](=[C:6]([H:17])[H:18])[H:19])[H:12])[H:11])([H:8])([H:9])[H:10].[C:4](=[C:5]([H:15])[H:16])([H:13])[H:14]"
C       -2.12693917      -0.23441804       0.58814207
C       -1.46374277      -0.38627130      -0.73984113
C       -0.13334455      -0.16889861      -1.11679190
C        0.79453961       1.44503779      -0.53642229
C        1.76062076       1.05835008       0.42311196
C        1.06946050      -0.97892114       0.86496088
C        0.48585648      -1.25931184      -0.35148127
H       -2.73842993       0.67596934       0.60034842
H       -2.79543232      -1.07605036       0.78065478
H       -1.44847291      -0.16210271       1.43541249
H       -2.17115329      -0.49397926      -1.56099634
H        0.01916710      -0.23516019      -2.19163403
H        1.17625669       1.67736887      -1.52593494
H        0.04014991       2.15569694      -0.21062457
H        2.76431696       0.80750912       0.10121879
H        1.71894858       1.48626228       1.41724130
H        0.52596214      -0.45008952       1.63596278
H        1.77458402      -1.69697397       1.27548228
H        0.74765218      -2.16401750      -0.88880929
19
Frame=5 idx=009712 GeodesicLength=0.45479114734452175 rxn_smarts="[C:1]([C@@:2]1([H:11])[C@@:3]2([H:12])[C:4]([H:13])([H:14])[C:5]([H:15])([H:16])[C:6]([H:17])([H:18])[C@@:7]12[H:19])([H:8])([H:9])[H:10]>>[C:1](/[C:2](=[C:3](\[C:7](=[C:6]([H:17])[H:18])[H:19])[H:12])[H:11])([H:8])([H:9])[H:10].[C:4](=[C:5]([H:15])[H:16])([H:13])[H:14]"
C       -2.11754330      -0.21506856       0.59310197
C       -1.45901307      -0.39576625      -0.73400472
C       -0.13564254      -0.17192440      -1.13330745
C        0.80159627       1.45107891      -0.53279255
C        1.74482871       1.06628443       0.45173699
C        1.07287852      -0.99488122       0.84228078
C        0.46479580      -1.27311780      -0.36635642
H       -2.77956705       0.65847284       0.56948344
H       -2.73232756      -1.08442560       0.83499422
H       -1.43747631      -0.06139849       1.42834224
H       -2.17153279      -0.52223032      -1.54804840
H        0.00643406      -0.24117680      -2.20926388
H        1.20845647       1.66189558      -1.51736604
H        0.05312568       2.17994959      -0.23415190
H        2.76064145       0.83074892       0.15648526
H        1.67719051       1.50370315       1.44073173
H        0.53199468      -0.49915513       1.63705137
H        1.79330535      -1.71297432       1.22582346
H        0.71785513      -2.18001454      -0.90474008
19
Frame=6 idx=009712 GeodesicLength=0.5455949019690911 rxn_smarts="[C:1]([C@@:2]1([H:11])[C@@:3]2([H:12])[C:4]([H:13])([H:14])[C:5]([H:15])([H:16])[C:6]([H:17])([H:18])[C@@:7]12[H:19])([H:8])([H:9])[H:10]>>[C:1](/[C:2](=[C:3](\[C:7](=[C:6]([H:17])[H:18])[H:19])[H:12])[H:11])([H:8])([H:9])[H:10].[C:4](=[C:5]([H:15])[H:16])([H:13])[H:14]"
C       -2.10643213      -0.19684149       0.59886797
C       -1.45418889      -0.40430078      -0.72795302
C       -0.13821826      -0.17555611      -1.15051149
C        0.80938774       1.45679111      -0.53044836
C        1.72654702       1.07469432       0.48125310
C        1.07535217      -1.00974147       0.81927343
C        0.44402158      -1.28674070      -0.38162009
H       -2.81499179       0.63748025       0.54595158
H       -2.66759270      -1.08739722       0.88913939
H       -1.42645128       0.03255014       1.41691500
H       -2.17272598      -0.54652133      -1.53408252
H       -0.00743259      -0.24821874      -2.22756414
H        1.24321088       1.64282074      -1.50876394
H        0.06850253       2.20514598      -0.26197380
H        2.75432806       0.85459071       0.21595641
H        1.63048757       1.52220545       1.46382727
H        0.53657308      -0.54849274       1.63632319
H        1.81121942      -1.72639292       1.17580688
H        0.68840357      -2.19607517      -0.92039684
19
Frame=7 idx=009712 GeodesicLength=0.6365624993569013 rxn_smarts="[C:1]([C@@:2]1([H:11])[C@@:3]2([H:12])[C:4]([H:13])([H:14])[C:5]([H:15])([H:16])[C:6]([H:17])([H:18])[C@@:7]12[H:19])([H:8])([H:9])[H:10]>>[C:1](/[C:2](=[C:3](\[C:7](=[C:6]([H:17])[H:18])[H:19])[H:12])[H:11])([H:8])([H:9])[H:10].[C:4](=[C:5]([H:15])[H:16])([H:13])[H:14]"
C       -2.09392618      -0.17960871       0.60517767
C       -1.44924782      -0.41197767      -0.72179350
C       -0.14104359      -0.17975165      -1.16818969
C        0.81779528       1.46223142      -0.52896338
C        1.70600365       1.08344356       0.51128339
C        1.07710427      -1.02348972       0.79605779
C        0.42340937      -1.30020985      -0.39699283
H       -2.84537636       0.61379598       0.52892686
H       -2.60165459      -1.08562647       0.94221241
H       -1.41577428       0.12017431       1.40201774
H       -2.17449012      -0.56735825      -1.51944008
H       -0.02217860      -0.25614535      -2.24625452
H        1.27974044       1.62059747      -1.49950575
H        0.08642628       2.23087428      -0.29300375
H        2.74510141       0.87861727       0.27862329
H        1.57985110       1.54161850       1.48597906
H        0.54040824      -0.59782512       1.63399247
H        1.82863892      -1.73716440       1.12539884
H        0.65921257      -2.21219560      -0.93552601
19
Frame=8 idx=009712 GeodesicLength=0.7277629362816709 rxn_smarts="[C:1]([C@@:2]1([H:11])[C@@:3]2([H:12])[C:4]([H:13])([H:14])[C:5]([H:15])([H:16])[C:6]([H:17])([H:18])[C@@:7]12[H:19])([H:8])([H:9])[H:10]>>[C:1](/[C:2](=[C:3](\[C:7](=[C:6]([H:17])[H:18])[H:19])[H:12])[H:11])([H:8])([H:9])[H:10].[C:4](=[C:5]([H:15])[H:16])([H:13])[H:14]"
C       -2.08033974      -0.16325352       0.61182049
C       -1.44421321      -0.41889526      -0.71563113
C       -0.14410181      -0.18447437      -1.18619054
C        0.82675274       1.46745035      -0.52795816
C        1.68346133       1.09241509       0.54154420
C        1.07830266      -1.03614150       0.77273044
C        0.40285757      -1.31354450      -0.41227540
H       -2.87147529       0.58789978       0.51758487
H       -2.53477514      -1.07973109       0.99367939
H       -1.40582223       0.20219975       1.38431197
H       -2.17667367      -0.58523918      -1.50440916
H       -0.03759669      -0.26484711      -2.26515344
H        1.31739830       1.59563125      -1.48908185
H        0.10703359       2.25679388      -0.32624272
H        2.73285236       0.90246091       0.34361818
H        1.52624434       1.56185183       1.50680343
H        0.54410088      -0.64694092       1.63028256
H        1.84577379      -1.74526817       1.07454849
H        0.63022021      -2.22836721      -0.94998160
19
Frame=9 idx=009712 GeodesicLength=0.8191550110621898 rxn_smarts="[C:1]([C@@:2]1([H:11])[C@@:3]2([H:12])[C:4]([H:13])([H:14])[C:5]([H:15])([H:16])[C:6]([H:17])([H:18])[C@@:7]12[H:19])([H:8])([H:9])[H:10]>>[C:1](/[C:2](=[C:3](\[C:7](=[C:6]([H:17])[H:18])[H:19])[H:12])[H:11])([H:8])([H:9])[H:10].[C:4](=[C:5]([H:15])[H:16])([H:13])[H:14]"
C       -2.06590369      -0.14763248       0.61856688
C       -1.43908038      -0.42520357      -0.70957261
C       -0.14735814      -0.18971812      -1.20438807
C        0.83609769       1.47248317      -0.52704284
C        1.65916812       1.10146103       0.57177728
C        1.07905934      -1.04774001       0.74940938
C        0.38231766      -1.32676603      -0.42728285
H       -2.89379762       0.56022806       0.51105930
H       -2.46711760      -1.07011340       1.04321166
H       -1.39695700       0.27940738       1.36421597
H       -2.17910779      -0.60066079      -1.48924055
H       -0.05347646      -0.27424584      -2.28410804
H        1.35541640       1.56844613      -1.47704263
H        0.13025666       2.28252831      -0.36062824
H        2.71751489       0.92572311       0.41000836
H        1.47067022       1.58276554       1.52601450
H        0.54811029      -0.69568876       1.62539136
H        1.86273709      -1.75069991       1.02327175
H        0.60145033      -2.24457382      -0.96362064
19
Frame=10 idx=009712 GeodesicLength=0.910868148628718 rxn_smarts="[C:1]([C@@:2]1([H:11])[C@@:3]2([H:12])[C:4]([H:13])([H:14])[C:5]([H:15])([H:16])[C:6]([H:17])([H:18])[C@@:7]12[H:19])([H:8])([H:9])[H:10]>>[C:1](/[C:2](=[C:3](\[C:7](=[C:6]([H:17])[H:18])[H:19])[H:12])[H:11])([H:8])([H:9])[H:10].[C:4](=[C:5]([H:15])[H:16])([H:13])[H:14]"
C       -2.05077308      -0.13263187       0.62531001
C       -1.43387357      -0.43097590      -0.70366852
C       -0.15081510      -0.19544630      -1.22271162
C        0.84582223       1.47735408      -0.52599128
C        1.63327542       1.11049979       0.60186869
C        1.07943320      -1.05836070       0.72611605
C        0.36174026      -1.33987903      -0.44195111
H       -2.91296241       0.53078913       0.50878450
H       -2.39860319      -1.05712310       1.09072963
H       -1.38942560       0.35266238       1.34192271
H       -2.18173517      -0.61398954      -1.47404666
H       -0.06973100      -0.28426161      -2.30303318
H        1.39340859       1.53925337      -1.46310243
H        0.15623426       2.30792233      -0.39553510
H        2.69910301       0.94816409       0.47736158
H        1.41369939       1.60437104       1.54345699
H        0.55278475      -0.74403864       1.61945360
H        1.87953463      -1.75352318       0.97146724
H        0.57288338      -2.26078635      -0.97643110
19
Frame=11 idx=009712 GeodesicLength=1.0029660130806974 rxn_smarts="[C:1]([C@@:2]1([H:11])[C@@:3]2([H:12])[C:4]([H:13])([H:14])[C:5]([H:15])([H:16])[C:6]([H:17])([H:18])[C@@:7]12[H:19])([H:8])([H:9])[H:10]>>[C:1](/[C:2](=[C:3](\[C:7](=[C:6]([H:17])[H:18])[H:19])[H:12])[H:11])([H:8])([H:9])[H:10].[C:4](=[C:5]([H:15])[H:16])([H:13])[H:14]"
C       -2.03502782      -0.11811522       0.63193160
C       -1.42859235      -0.43632375      -0.69797309
C       -0.15446178      -0.20166031      -1.24111686
C        0.85583415       1.48207157      -0.52457476
C        1.60588772       1.11943603       0.63172424
C        1.07946438      -1.06808443       0.70289137
C        0.34111885      -1.35289811      -0.45622419
H       -2.92926394       0.49968371       0.51026511
H       -2.32913929      -1.04089956       1.13618425
H       -1.38347290       0.42267962       1.31750494
H       -2.18448142      -0.62555796      -1.45892743
H       -0.08627630      -0.29486072      -2.32187402
H        1.43090401       1.50833421      -1.44701872
H        0.18493946       2.33278047      -0.43032564
H        2.67761495       0.96954611       0.54521139
H        1.35587980       1.62663456       1.55904685
H        0.55837656      -0.79199322       1.61256946
H        1.89614460      -1.75377737       0.91909642
H        0.54455133      -2.27699561      -0.98839091
19
Frame=12 idx=009712 GeodesicLength=1.0955703608624934 rxn_smarts="[C:1]([C@@:2]1([H:11])[C@@:3]2([H:12])[C:4]([H:13])([H:14])[C:5]([H:15])([H:16])[C:6]([H:17])([H:18])[C@@:7]12[H:19])([H:8])([H:9])[H:10]>>[C:1](/[C:2](=[C:3](\[C:7](=[C:6]([H:17])[H:18])[H:19])[H:12])[H:11])([H:8])([H:9])[H:10].[C:4](=[C:5]([H:15])[H:16])([H:13])[H:14]"
C       -2.01869467      -0.10393950       0.63835245
C       -1.42324124      -0.44135057      -0.69252236
C       -0.15829614      -0.20837456      -1.25959378
C        0.86606525       1.48663403      -0.52262199
C        1.57704426       1.12819527       0.66130620
C        1.07918426      -1.07700105       0.67974904
C        0.32046412      -1.36584525      -0.47009277
H       -2.94288426       0.46695477       0.51516300
H       -2.25856259      -1.02145938       1.17958836
H       -1.37930521       0.49008447       1.29094091
H       -2.18731782      -0.63563703      -1.44393421
H       -0.10307493      -0.30603872      -2.34061788
H        1.46754249       1.47588444      -1.42861975
H        0.21635816       2.35696150      -0.46451197
H        2.65305217       0.98969885       0.61327341
H        1.29756997       1.64954802       1.57276750
H        0.56507563      -0.83960550       1.60479603
H        1.91252427      -1.75150357       0.86610377
H        0.51649629      -2.29320621      -0.99952597
19
Frame=13 idx=009712 GeodesicLength=1.1887522186524446 rxn_smarts="[C:1]([C@@:2]1([H:11])[C@@:3]2([H:12])[C:4]([H:13])([H:14])[C:5]([H:15])([H:16])[C:6]([H:17])([H:18])[C@@:7]12[H:19])([H:8])([H:9])[H:10]>>[C:1](/[C:2](=[C:3](\[C:7](=[C:6]([H:17])[H:18])[H:19])[H:12])[H:11])([H:8])([H:9])[H:10].[C:4](=[C:5]([H:15])[H:16])([H:13])[H:14]"
C       -2.00173342      -0.08992587       0.64446629
C       -1.41778646      -0.44620794      -0.68734813
C       -0.16228729      -0.21565386      -1.27813939
C        0.87634292       1.49103635      -0.51993926
C        1.54675716       1.13668390       0.69056740
C        1.07862346      -1.08520996       0.65672344
C        0.29981587      -1.37877338      -0.48353013
H       -2.95372437       0.43287808       0.52312976
H       -2.18680751      -0.99865549       1.22089991
H       -1.37706950       0.55529753       1.26218352
H       -2.19017982      -0.64448553      -1.42910589
H       -0.12006115      -0.31785151      -2.35925624
H        1.50283244       1.44223909      -1.40777769
H        0.25027850       2.38027679      -0.49752702
H        2.62540650       1.00845756       0.68116010
H        1.23915124       1.67302349       1.58465659
H        0.57301379      -0.88695816       1.59616682
H        1.92862626      -1.74671386       0.81249290
H        0.48880138      -2.30945724      -1.00982297
19
Frame=14 idx=009712 GeodesicLength=1.2827952011893429 rxn_smarts="[C:1]([C@@:2]1([H:11])[C@@:3]2([H:12])[C:4]([H:13])([H:14])[C:5]([H:15])([H:16])[C:6]([H:17])([H:18])[C@@:7]12[H:19])([H:8])([H:9])[H:10]>>[C:1](/[C:2](=[C:3](\[C:7](=[C:6]([H:17])[H:18])[H:19])[H:12])[H:11])([H:8])([H:9])[H:10].[C:4](=[C:5]([H:15])[H:16])([H:13])[H:14]"
C       -1.98406994      -0.07594216       0.65026026
C       -1.41224079      -0.45093058      -0.68245793
C       -0.16646243      -0.22350060      -1.29679272
C        0.88668157       1.49526260      -0.51647323
C        1.51492465       1.14486259       0.71954794
C        1.07778316      -1.09279737       0.63378085
C        0.27918345      -1.39169319      -0.49659669
H       -2.96185906       0.39727258       0.53418419
H       -2.11344936      -0.97236795       1.26017209
H       -1.37690376       0.61880067       1.23104464
H       -2.19311117      -0.65222075      -1.41441475
H       -0.13729318      -0.33030744      -2.37782696
H        1.53665253       1.40736487      -1.38442172
H        0.28684356       2.40271552      -0.52919100
H        2.59461191       1.02573652       0.74895399
H        1.18059639       1.69709422       1.59474959
H        0.58230402      -0.93413605       1.58665394
H        1.94432394      -1.73946494       0.75819951
H        0.46148451      -2.32574855      -1.01937202
19
Frame=15 idx=009712 GeodesicLength=1.3779616345228323 rxn_smarts="[C:1]([C@@:2]1([H:11])[C@@:3]2([H:12])[C:4]([H:13])([H:14])[C:5]([H:15])([H:16])[C:6]([H:17])([H:18])[C@@:7]12[H:19])([H:8])([H:9])[H:10]>>[C:1](/[C:2](=[C:3](\[C:7](=[C:6]([H:17])[H:18])[H:19])[H:12])[H:11])([H:8])([H:9])[H:10].[C:4](=[C:5]([H:15])[H:16])([H:13])[H:14]"
C       -1.96555919      -0.06181393       0.65568889
C       -1.40657194      -0.45559722      -0.67785616
C       -0.17081654      -0.23196807      -1.31559301
C        0.89699285       1.49928290      -0.51213106
C        1.48139094       1.15266450       0.74825890
C        1.07667163      -1.09985190       0.61090277
C        0.25859378      -1.40464433      -0.50932267
H       -2.96704552       0.36025260       0.54832152
H       -2.03817535      -0.94231676       1.29734898
H       -1.37889343       0.68085746       1.19736286
H       -2.19610095      -0.65895264      -1.39981844
H       -0.15478980      -0.34347022      -2.39636042
H        1.56873424       1.37135337      -1.35847670
H        0.32602772       2.42417312      -0.55921829
H        2.56052175       1.04145414       0.81661592
H        1.12187867       1.72168614       1.60309138
H        0.59303387      -0.98124866       1.57620782
H        1.95952112      -1.72974848       0.70318574
H        0.43458616      -2.34211202      -1.02820802
19
Frame=16 idx=009712 GeodesicLength=1.4746519361223158 rxn_smarts="[C:1]([C@@:2]1([H:11])[C@@:3]2([H:12])[C:4]([H:13])([H:14])[C:5]([H:15])([H:16])[C:6]([H:17])([H:18])[C@@:7]12[H:19])([H:8])([H:9])[H:10]>>[C:1](/[C:2](=[C:3](\[C:7](=[C:6]([H:17])[H:18])[H:19])[H:12])[H:11])([H:8])([H:9])[H:10].[C:4](=[C:5]([H:15])[H:16])([H:13])[H:14]"
C       -1.94601538      -0.04734440       0.66071146
C       -1.40075391      -0.46026962      -0.67355010
C       -0.17535694      -0.24112018      -1.33460261
C        0.90720293       1.50306288      -0.50683456
C        1.44594488       1.16002642       0.77672784
C        1.07530199      -1.10646735       0.58806180
C        0.23807267      -1.41768128      -0.52175733
H       -2.96897032       0.32192179       0.56564776
H       -1.96056517      -0.90813126       1.33233558
H       -1.38310880       0.74168409       1.16094186
H       -2.19916846      -0.66474787      -1.38526412
H       -0.17260431      -0.35742517      -2.41491319
H        1.59884701       1.33423946      -1.32987566
H        0.36782844       2.44455635      -0.58736098
H        2.52293046       1.05554508       0.88421188
H        1.06285243       1.74671456       1.60973514
H        0.60529149      -1.02840667       1.56475565
H        1.97412593      -1.71755332       0.64741694
H        0.40814507      -2.35860351      -1.03638734
