14
Frame=0 idx=006191 GeodesicLength=0.0 rxn_smarts="[O:1]([C@:2]12[C:3]([H:8])([H:9])[C@@:4]1([H:10])[C:5]([H:11])([H:12])[C:6]2([H:13])[H:14])[H:7]>>[O:1]=[C:2]1[C:3]([H:8])([H:9])[C@:4]1([C:5]([C:6]([H:7])([H:13])[H:14])([H:11])[H:12])[H:10]"
O        1.30021439       0.92087283       1.57541134
C        0.64248037       0.59597039       0.49410873
C        0.72107734       0.91933038      -0.94958247
C       -0.63471327       0.87194068      -0.24953397
C       -1.13798207      -0.55148525      -0.19636960
C        0.11426457      -1.16419316       0.47013256
H        0.89418088      -0.35172430       1.32564036
H        1.12368962       1.91588482      -1.09149371
H        0.97110659       0.20737022      -1.72893909
H       -1.26554914       1.74741610      -0.17749498
H       -2.00952076      -0.64783598       0.44969089
H       -1.37151037      -0.99965739      -1.16486582
H       -0.11857645      -1.69923522       1.39701733
H        0.77083826      -1.76465411      -0.15372162
14
Frame=1 idx=006191 GeodesicLength=0.08968646685909044 rxn_smarts="[O:1]([C@:2]12[C:3]([H:8])([H:9])[C@@:4]1([H:10])[C:5]([H:11])([H:12])[C:6]2([H:13])[H:14])[H:7]>>[O:1]=[C:2]1[C:3]([H:8])([H:9])[C@:4]1([C:5]([C:6]([H:7])([H:13])[H:14])([H:11])[H:12])[H:10]"
O        1.29990587       0.92642290       1.57340565
C        0.64077603       0.60647206       0.49347283
C        0.72253274       0.92501000      -0.95076958
C       -0.63492646       0.87074381      -0.25339939
C       -1.13884127      -0.55290632      -0.19422497
C        0.11247833      -1.16680669       0.47311470
H        0.91355422      -0.36267681       1.33874041
H        1.11863729       1.92302005      -1.10030091
H        0.98015196       0.20804092      -1.72307828
H       -1.26641111       1.74586212      -0.18218821
H       -2.01098086      -0.64437860       0.45192662
H       -1.37432916      -1.00043853      -1.16251810
H       -0.12875738      -1.71224151       1.39134559
H        0.76620979      -1.76612341      -0.15552635
14
Frame=2 idx=006191 GeodesicLength=0.17927457454656862 rxn_smarts="[O:1]([C@:2]12[C:3]([H:8])([H:9])[C@@:4]1([H:10])[C:5]([H:11])([H:12])[C:6]2([H:13])[H:14])[H:7]>>[O:1]=[C:2]1[C:3]([H:8])([H:9])[C@:4]1([C:5]([C:6]([H:7])([H:13])[H:14])([H:11])[H:12])[H:10]"
O        1.29977983       0.93133895       1.57137056
C        0.63889698       0.61738553       0.49274544
C        0.72390719       0.93080382      -0.95205866
C       -0.63520984       0.86959973      -0.25740748
C       -1.13967759      -0.55427800      -0.19203644
C        0.11070783      -1.16926559       0.47628804
H        0.93322423      -0.37396997       1.35228519
H        1.11347092       1.93015857      -1.10934897
H        0.98925834       0.20880961      -1.71708405
H       -1.26742047       1.74431723      -0.18712532
H       -2.01241696      -0.64084250       0.45417699
H       -1.37708300      -1.00130952      -1.16007001
H       -0.13907009      -1.72537754       1.38539879
H        0.76163262      -1.76737033      -0.15713407
14
Frame=3 idx=006191 GeodesicLength=0.26881362506963713 rxn_smarts="[O:1]([C@:2]12[C:3]([H:8])([H:9])[C@@:4]1([H:10])[C:5]([H:11])([H:12])[C:6]2([H:13])[H:14])[H:7]>>[O:1]=[C:2]1[C:3]([H:8])([H:9])[C@:4]1([C:5]([C:6]([H:7])([H:13])[H:14])([H:11])[H:12])[H:10]"
O        1.29986766       0.93557358       1.56928042
C        0.63682663       0.62874624       0.49192185
C        0.72519326       0.93671798      -0.95345630
C       -0.63557091       0.86851403      -0.26156626
C       -1.14048823      -0.55559472      -0.18980063
C        0.10895494      -1.17155392       0.47966883
H        0.95319145      -0.38565121       1.36633990
H        1.10818142       1.93730198      -1.11865676
H        0.99842533       0.20968214      -1.71094868
H       -1.26859132       1.74278233      -0.19232665
H       -2.01382864      -0.63722350       0.45644155
H       -1.37976442      -1.00227414      -1.15751528
H       -0.14951665      -1.73864974       1.37914460
H        0.75711949      -1.76837104      -0.15852660
14
Frame=4 idx=006191 GeodesicLength=0.3583275260762292 rxn_smarts="[O:1]([C@:2]12[C:3]([H:8])([H:9])[C@@:4]1([H:10])[C:5]([H:11])([H:12])[C:6]2([H:13])[H:14])[H:7]>>[O:1]=[C:2]1[C:3]([H:8])([H:9])[C@:4]1([C:5]([C:6]([H:7])([H:13])[H:14])([H:11])[H:12])[H:10]"
O        1.30020027       0.93908063       1.56710633
C        0.63454833       0.64058950       0.49099878
C        0.72638368       0.94275878      -0.95496779
C       -0.63601637       0.86749225      -0.26588184
C       -1.14127068      -0.55685063      -0.18751344
C        0.10722151      -1.17365686       0.48327268
H        0.97345609      -0.39776700       1.38096940
H        1.10275922       1.94445098      -1.12824354
H        1.00765251       0.21066454      -1.70466265
H       -1.26993728       1.74125733      -0.19781323
H       -2.01521555      -0.63351781       0.45871945
H       -1.38236674      -1.00333503      -1.15484734
H       -0.16009851      -1.75206433       1.37254948
H        0.75268353      -1.76910233      -0.15968630
14
Frame=5 idx=006191 GeodesicLength=0.4478490028094156 rxn_smarts="[O:1]([C@:2]12[C:3]([H:8])([H:9])[C@@:4]1([H:10])[C:5]([H:11])([H:12])[C:6]2([H:13])[H:14])[H:7]>>[O:1]=[C:2]1[C:3]([H:8])([H:9])[C@:4]1([C:5]([C:6]([H:7])([H:13])[H:14])([H:11])[H:12])[H:10]"
O        1.30080965       0.94179975       1.56481089
C        0.63204298       0.65295788       0.48997287
C        0.72747059       0.94893392      -0.95659870
C       -0.63655412       0.86654068      -0.27036196
C       -1.14202088      -0.55803885      -0.18517030
C        0.10551073      -1.17555595       0.48711680
H        0.99401486      -0.41037658       1.39624615
H        1.09719396       1.95160731      -1.13813085
H        1.01693915       0.21176651      -1.69821619
H       -1.27147573       1.73974281      -0.20361073
H       -2.01657654      -0.62972057       0.46101097
H       -1.38488041      -1.00449544      -1.15205853
H       -0.17081377      -1.76562409       1.36558342
H        0.74833953      -1.76953739      -0.16059384
14
Frame=6 idx=006191 GeodesicLength=0.5374012332180295 rxn_smarts="[O:1]([C@:2]12[C:3]([H:8])([H:9])[C@@:4]1([H:10])[C:5]([H:11])([H:12])[C:6]2([H:13])[H:14])[H:7]>>[O:1]=[C:2]1[C:3]([H:8])([H:9])[C@:4]1([C:5]([C:6]([H:7])([H:13])[H:14])([H:11])[H:12])[H:10]"
O        1.30172728       0.94366927       1.56235137
C        0.62929098       0.66589510       0.48884212
C        0.72844650       0.95525029      -0.95835337
C       -0.63719133       0.86566585      -0.27501267
C       -1.14273560      -0.55915168      -0.18276578
C        0.10382406      -1.17723385       0.49122031
H        1.01486562      -0.42354055       1.41224892
H        1.09147278       1.95877294      -1.14834075
H        1.02628500       0.21299640      -1.69159638
H       -1.27322338       1.73823700      -0.20974826
H       -2.01791081      -0.62582597       0.46331716
H       -1.38729722      -1.00575731      -1.14914008
H       -0.18165604      -1.77932950       1.35820671
H        0.74410217      -1.76964800      -0.16122929
14
Frame=7 idx=006191 GeodesicLength=0.6269844923162473 rxn_smarts="[O:1]([C@:2]12[C:3]([H:8])([H:9])[C@@:4]1([H:10])[C:5]([H:11])([H:12])[C:6]2([H:13])[H:14])[H:7]>>[O:1]=[C:2]1[C:3]([H:8])([H:9])[C@:4]1([C:5]([C:6]([H:7])([H:13])[H:14])([H:11])[H:12])[H:10]"
O        1.30298186       0.94462187       1.55968138
C        0.62627258       0.67944523       0.48760502
C        0.72930326       0.96171556      -0.96023544
C       -0.63793502       0.86487437      -0.27983839
C       -1.14341142      -0.56018169      -0.18029523
C        0.10216299      -1.17867473       0.49560039
H        1.03600189      -0.43731759       1.42906036
H        1.08558511       1.96594531      -1.15889663
H        1.03568793       0.21436443      -1.68479136
H       -1.27519758       1.73673929      -0.21625309
H       -2.01921698      -0.62182945       0.46563955
H       -1.38960909      -1.00712110      -1.14608476
H       -0.19261347      -1.79317564       1.35038257
H        0.73998794      -1.76940584      -0.16157437
14
Frame=8 idx=006191 GeodesicLength=0.7166257760212618 rxn_smarts="[O:1]([C@:2]12[C:3]([H:8])([H:9])[C@@:4]1([H:10])[C:5]([H:11])([H:12])[C:6]2([H:13])[H:14])[H:7]>>[O:1]=[C:2]1[C:3]([H:8])([H:9])[C@:4]1([C:5]([C:6]([H:7])([H:13])[H:14])([H:11])[H:12])[H:10]"
O        1.30460364       0.94457380       1.55673582
C        0.62296582       0.69366301       0.48626033
C        0.73003199       0.96833837      -0.96224876
C       -0.63879235       0.86417425      -0.28484309
C       -1.14404352      -0.56111846      -0.17775072
C        0.10053016      -1.17985868       0.50027877
H        1.05740819      -0.45178244       1.44678318
H        1.07951555       1.97312379      -1.16982736
H        1.04514753       0.21588167      -1.67778449
H       -1.27741783       1.73524813      -0.22315941
H       -2.02049277      -0.61772404       0.46798102
H       -1.39180555      -1.00858678      -1.14288147
H       -0.20366643      -1.80715740       1.34206463
H        0.73601558      -1.76877522      -0.16160844
14
Frame=9 idx=006191 GeodesicLength=0.8063001313932948 rxn_smarts="[O:1]([C@:2]12[C:3]([H:8])([H:9])[C@@:4]1([H:10])[C:5]([H:11])([H:12])[C:6]2([H:13])[H:14])[H:7]>>[O:1]=[C:2]1[C:3]([H:8])([H:9])[C@:4]1([C:5]([C:6]([H:7])([H:13])[H:14])([H:11])[H:12])[H:10]"
O        1.30661556       0.94344254       1.55343852
C        0.61935405       0.70859921       0.48481012
C        0.73062565       0.97512848      -0.96439465
C       -0.63976713       0.86357238      -0.29002637
C       -1.14462472      -0.56195368      -0.17512586
C        0.09892980      -1.18076998       0.50527102
H        1.07906046      -0.46700315       1.46551248
H        1.07325022       1.98031073      -1.18115675
H        1.05465982       0.21756089      -1.67056360
H       -1.27990286       1.73376307      -0.23049730
H       -2.02173347      -0.61350518       0.47034453
H       -1.39387481      -1.01015164      -1.13952154
H       -0.21479640      -1.82126547       1.33322344
H        0.73220383      -1.76772818      -0.16131404
14
Frame=10 idx=006191 GeodesicLength=0.8960119793544662 rxn_smarts="[O:1]([C@:2]12[C:3]([H:8])([H:9])[C@@:4]1([H:10])[C:5]([H:11])([H:12])[C:6]2([H:13])[H:14])[H:7]>>[O:1]=[C:2]1[C:3]([H:8])([H:9])[C@:4]1([C:5]([C:6]([H:7])([H:13])[H:14])([H:11])[H:12])[H:10]"
O        1.30904092       0.94113075       1.54971203
C        0.61541722       0.72431225       0.48325178
C        0.73107518       0.98209513      -0.96667662
C       -0.64086381       0.86307728      -0.29538705
C       -1.14514885      -0.56267543      -0.17241239
C        0.09736582      -1.18139196       0.51059618
H        1.10093005      -0.48305509       1.48536792
H        1.06677280       1.98749965      -1.19291902
H        1.06422022       0.21942006      -1.66311344
H       -1.28267060       1.73227888      -0.23830125
H       -2.02293358      -0.60916559       0.47273669
H       -1.39580767      -1.01181117      -1.13599417
H       -0.22597442      -1.83548696       1.32381301
H        0.72857673      -1.76622780      -0.16067367
14
Frame=11 idx=006191 GeodesicLength=0.9857309230336502 rxn_smarts="[O:1]([C@:2]12[C:3]([H:8])([H:9])[C@@:4]1([H:10])[C:5]([H:11])([H:12])[C:6]2([H:13])[H:14])[H:7]>>[O:1]=[C:2]1[C:3]([H:8])([H:9])[C@:4]1([C:5]([C:6]([H:7])([H:13])[H:14])([H:11])[H:12])[H:10]"
O        1.31188600       0.93754988       1.54546720
C        0.61114362       0.74085484       0.48158545
C        0.73137461       0.98924640      -0.96909527
C       -0.64208195       0.86269727      -0.30091764
C       -1.14560755      -0.56327334      -0.16960240
C        0.09584306      -1.18171421       0.51626703
H        1.12298198      -0.50000879       1.50646314
H        1.06006817       1.99468678      -1.20514360
H        1.07382003       0.22147725      -1.65542351
H       -1.28573574       1.73079137      -0.24660075
H       -2.02408517      -0.60469907       0.47516494
H       -1.39759465      -1.01355677      -1.13229001
H       -0.23716946      -1.84980632       1.31380042
H        0.72515705      -1.76424528      -0.15967497
14
Frame=12 idx=006191 GeodesicLength=1.0754333126700228 rxn_smarts="[O:1]([C@:2]12[C:3]([H:8])([H:9])[C@@:4]1([H:10])[C:5]([H:11])([H:12])[C:6]2([H:13])[H:14])[H:7]>>[O:1]=[C:2]1[C:3]([H:8])([H:9])[C@:4]1([C:5]([C:6]([H:7])([H:13])[H:14])([H:11])[H:12])[H:10]"
O        1.31515704       0.93259804       1.54060124
C        0.60652374       0.75828304       0.47980960
C        0.73151615       0.99659202      -0.97165302
C       -0.64341926       0.86244108      -0.30660622
C       -1.14599142      -0.56373527      -0.16668630
C        0.09436668      -1.18172860       0.52229680
H        1.14516191      -0.51793113       1.52893500
H        1.05311906       2.00186397      -1.21786538
H        1.08344864       0.22375064      -1.64748359
H       -1.28911065       1.72929466      -0.25542221
H       -2.02517821      -0.60009971       0.47763870
H       -1.39922658      -1.01537697      -1.12839910
H       -0.24833827      -1.86420373       1.30314139
H        0.72197118      -1.76174802      -0.15830691
14
Frame=13 idx=006191 GeodesicLength=1.1650850561186796 rxn_smarts="[O:1]([C@:2]12[C:3]([H:8])([H:9])[C@@:4]1([H:10])[C:5]([H:11])([H:12])[C:6]2([H:13])[H:14])[H:7]>>[O:1]=[C:2]1[C:3]([H:8])([H:9])[C@:4]1([C:5]([C:6]([H:7])([H:13])[H:14])([H:11])[H:12])[H:10]"
O        1.31884301       0.92618112       1.53500345
C        0.60155626       0.77664753       0.47792142
C        0.73149430       1.00414002      -0.97435182
C       -0.64486837       0.86231606      -0.31243481
C       -1.14628878      -0.56404983      -0.16365452
C        0.09294324      -1.18143343       0.52869278
H        1.16740427      -0.53688332       1.55292206
H        1.04590965       2.00902407      -1.23111771
H        1.09309068       0.22625939      -1.63928992
H       -1.29280292       1.72778397      -0.26478428
H       -2.02619927      -0.59536153       0.48017050
H       -1.40069507      -1.01725623      -1.12431236
H       -0.25943329      -1.87865815       1.29179953
H        0.71904628      -1.75870967      -0.15656431
14
Frame=14 idx=006191 GeodesicLength=1.2546655182102577 rxn_smarts="[O:1]([C@:2]12[C:3]([H:8])([H:9])[C@@:4]1([H:10])[C:5]([H:11])([H:12])[C:6]2([H:13])[H:14])[H:7]>>[O:1]=[C:2]1[C:3]([H:8])([H:9])[C@:4]1([C:5]([C:6]([H:7])([H:13])[H:14])([H:11])[H:12])[H:10]"
O        1.32291849       0.91820057       1.52854908
C        0.59624943       0.79599711       0.47591663
C        0.73130379       1.01189911      -0.97719511
C       -0.64641702       0.86233161      -0.31837744
C       -1.14648543      -0.56420451      -0.16049677
C        0.09158248      -1.18083336       0.53545607
H        1.18962618      -0.55691723       1.57858153
H        1.03842190       2.01615416      -1.24493847
H        1.10272669       0.22902809      -1.63084369
H       -1.29681472       1.72625164      -0.27469899
H       -2.02713000      -0.59047901       0.48277626
H       -1.40199316      -1.01917245      -1.12002116
H       -0.27040134      -1.89314856       1.27974151
H        0.71641272      -1.75510715      -0.15444945
14
Frame=15 idx=006191 GeodesicLength=1.344158189978487 rxn_smarts="[O:1]([C@:2]12[C:3]([H:8])([H:9])[C@@:4]1([H:10])[C:5]([H:11])([H:12])[C:6]2([H:13])[H:14])[H:7]>>[O:1]=[C:2]1[C:3]([H:8])([H:9])[C@:4]1([C:5]([C:6]([H:7])([H:13])[H:14])([H:11])[H:12])[H:10]"
O        1.32734106       0.90856782       1.52110784
C        0.59062302       0.81637214       0.47378756
C        0.73094075       1.01987671      -0.98018793
C       -0.64804664       0.86249579      -0.32439952
C       -1.14656468      -0.56418754      -0.15720229
C        0.09029551      -1.17994221       0.54258176
H        1.21172405      -0.57806935       1.60607770
H        1.03063957       2.02323993      -1.25936468
H        1.11233003       0.23207945      -1.62215619
H       -1.30114018       1.72469060      -0.28516409
H       -2.02794789      -0.58544750       0.48547531
H       -1.40311530      -1.02109876      -1.11551812
H       -0.28118166      -1.90765338       1.26693402
H        0.71410236      -1.75092370      -0.15197138
14
Frame=16 idx=006191 GeodesicLength=1.4335727582448858 rxn_smarts="[O:1]([C@:2]12[C:3]([H:8])([H:9])[C@@:4]1([H:10])[C:5]([H:11])([H:12])[C:6]2([H:13])[H:14])[H:7]>>[O:1]=[C:2]1[C:3]([H:8])([H:9])[C@:4]1([C:5]([C:6]([H:7])([H:13])[H:14])([H:11])[H:12])[H:10]"
O        1.33204330       0.89721216       1.51254145
C        0.58471214       0.83780046       0.47152550
C        0.73040329       1.02807792      -0.98333658
C       -0.64973153       0.86281644      -0.33045622
C       -1.14650808      -0.56398842      -0.15376048
C        0.08909443      -1.17878696       0.55005614
H        1.23358097      -0.60035682       1.63558358
H        1.02254710       2.03026396      -1.27443199
H        1.12186797       0.23543531      -1.61324907
H       -1.30576301       1.72309579      -0.29616030
H       -2.02862609      -0.58026404       0.48829021
H       -1.40405967      -1.02300183      -1.11079879
H       -0.29170850      -1.92215136       1.25334562
H        0.71214767      -1.74615262      -0.14914908
