12
Frame=0 idx=011812 GeodesicLength=0.0 rxn_smarts="[N:1]#[C:2][C@@:3]1([H:8])[O:4][C@@:5]2([H:9])[C:6]([H:10])([H:11])[C@@:7]12[H:12]>>[N:1]#[C:2][C@@:3]1([H:8])[O:4][C:5]([H:9])([H:10])[C@:7]1([C:6][H:11])[H:12]"
N        2.80229174       1.22077715       0.26557287
C        1.94746257       0.45674613       0.27847730
C        0.85876145      -0.51900506       0.26402193
O       -0.09710986      -0.32437072       1.32132208
C       -1.16634292      -0.28676877       0.39677509
C       -0.92219407       0.95090742      -0.90114697
C       -0.24665273      -0.33958216      -0.81039049
H        1.27234147      -1.52825626       0.30548777
H       -1.97462647      -1.00193141       0.52160872
H       -1.75336788       0.73201294       0.29766501
H       -0.36316602       1.71717593      -0.34492924
H       -0.35739726      -1.07770522      -1.59446410
12
Frame=1 idx=011812 GeodesicLength=0.05194194413535472 rxn_smarts="[N:1]#[C:2][C@@:3]1([H:8])[O:4][C@@:5]2([H:9])[C:6]([H:10])([H:11])[C@@:7]12[H:12]>>[N:1]#[C:2][C@@:3]1([H:8])[O:4][C:5]([H:9])([H:10])[C@:7]1([C:6][H:11])[H:12]"
N        2.80618673       1.21698597       0.26120515
C        1.94998169       0.45456609       0.27806363
C        0.85952019      -0.51959372       0.26480031
O       -0.09544309      -0.32212477       1.32196784
C       -1.16623624      -0.28578944       0.39780475
C       -0.92062558       0.95106541      -0.89196237
C       -0.24438582      -0.33935989      -0.80964639
H        1.27205989      -1.52933322       0.30650106
H       -1.96800092      -1.00800214       0.52447202
H       -1.77441323       0.73558618       0.28410823
H       -0.36206460       1.72141492      -0.34197752
H       -0.35657901      -1.07541540      -1.59533671
12
Frame=2 idx=011812 GeodesicLength=0.10387969290790303 rxn_smarts="[N:1]#[C:2][C@@:3]1([H:8])[O:4][C@@:5]2([H:9])[C:6]([H:10])([H:11])[C@@:7]12[H:12]>>[N:1]#[C:2][C@@:3]1([H:8])[O:4][C:5]([H:9])([H:10])[C@:7]1([C:6][H:11])[H:12]"
N        2.81008317       1.21319847       0.25685583
C        1.95254044       0.45237171       0.27762894
C        0.86033626      -0.52021122       0.26556336
O       -0.09363397      -0.32001273       1.32268617
C       -1.16606418      -0.28476673       0.39900380
C       -0.91903726       0.95125507      -0.88260399
C       -0.24214209      -0.33909909      -0.80882460
H        1.27184769      -1.53043694       0.30738866
H       -1.96139954      -1.01379443       0.52753642
H       -1.79564332       0.73888439       0.26975011
H       -0.36101773       1.72566831      -0.33884826
H       -0.35586945      -1.07305682      -1.59613643
12
Frame=3 idx=011812 GeodesicLength=0.15581677998203097 rxn_smarts="[N:1]#[C:2][C@@:3]1([H:8])[O:4][C@@:5]2([H:9])[C:6]([H:10])([H:11])[C@@:7]12[H:12]>>[N:1]#[C:2][C@@:3]1([H:8])[O:4][C:5]([H:9])([H:10])[C@:7]1([C:6][H:11])[H:12]"
N        2.81395126       1.20944526       0.25254153
C        1.95513889       0.45015794       0.27716662
C        0.86121109      -0.52086438       0.26630536
O       -0.09167272      -0.31805530       1.32348133
C       -1.16582277      -0.28369851       0.40038552
C       -0.91743368       0.95147384      -0.87306045
C       -0.23992816      -0.33880209      -0.80792046
H        1.27170902      -1.53157337       0.30813426
H       -1.95484229      -1.01929052       0.53080970
H       -1.81701496       0.74190703       0.25455840
H       -0.36001201       1.72993186      -0.33554586
H       -0.35528368      -1.07063175      -1.59685596
12
Frame=4 idx=011812 GeodesicLength=0.207766599712305 rxn_smarts="[N:1]#[C:2][C@@:3]1([H:8])[O:4][C@@:5]2([H:9])[C:6]([H:10])([H:11])[C@@:7]12[H:12]>>[N:1]#[C:2][C@@:3]1([H:8])[O:4][C:5]([H:9])([H:10])[C@:7]1([C:6][H:11])[H:12]"
N        2.81775807       1.20575749       0.24828114
C        1.95777520       0.44791937       0.27666852
C        0.86214576      -0.52156028       0.26702055
O       -0.08954895      -0.31627263       1.32435804
C       -1.16550803      -0.28258575       0.40196393
C       -0.91582303       0.95171851      -0.86331947
C       -0.23775208      -0.33847119      -0.80692898
H        1.27164918      -1.53274871       0.30872213
H       -1.94834915      -1.02447661       0.53429834
H       -1.83847681       0.74466026       0.23850210
H       -0.35903282       1.73420118      -0.33207803
H       -0.35483733      -1.06814164      -1.59748828
12
Frame=5 idx=011812 GeodesicLength=0.2597592734091409 rxn_smarts="[N:1]#[C:2][C@@:3]1([H:8])[O:4][C@@:5]2([H:9])[C:6]([H:10])([H:11])[C@@:7]12[H:12]>>[N:1]#[C:2][C@@:3]1([H:8])[O:4][C:5]([H:9])([H:10])[C@:7]1([C:6][H:11])[H:12]"
N        2.82148139       1.20216527       0.24409237
C        1.96045292       0.44565185       0.27612882
C        0.86314337      -0.52230572       0.26770398
O       -0.08725398      -0.31468388       1.32532426
C       -1.16511992      -0.28143241       0.40375437
C       -0.91421853       0.95198604      -0.85336684
C       -0.23562301      -0.33810896      -0.80584665
H        1.27167689      -1.53396928       0.30913641
H       -1.94194323      -1.02934181       0.53801129
H       -1.85997953       0.74715493       0.22154594
H       -0.35807051       1.73847218      -0.32845254
H       -0.35454587      -1.06558821      -1.59803140
12
Frame=6 idx=011812 GeodesicLength=0.3117918033137164 rxn_smarts="[N:1]#[C:2][C@@:3]1([H:8])[O:4][C@@:5]2([H:9])[C:6]([H:10])([H:11])[C@@:7]12[H:12]>>[N:1]#[C:2][C@@:3]1([H:8])[O:4][C:5]([H:9])([H:10])[C@:7]1([C:6][H:11])[H:12]"
N        2.82511027       1.19870334       0.23999690
C        1.96318333       0.44335462       0.27554071
C        0.86420985      -0.52310593       0.26835370
O       -0.08478393      -0.31331129       1.32639788
C       -1.16467291      -0.28025034       0.40577625
C       -0.91264652       0.95226970      -0.84319943
C       -0.23355722      -0.33771745      -0.80467579
H        1.27181161      -1.53523716       0.30936881
H       -1.93566272      -1.03388763       0.54195306
H       -1.88144571       0.74941282       0.20366725
H       -0.35711400       1.74273962      -0.32468497
H       -0.35443205      -1.06297029      -1.59849435
12
Frame=7 idx=011812 GeodesicLength=0.3634206816095058 rxn_smarts="[N:1]#[C:2][C@@:3]1([H:8])[O:4][C@@:5]2([H:9])[C:6]([H:10])([H:11])[C@@:7]12[H:12]>>[N:1]#[C:2][C@@:3]1([H:8])[O:4][C:5]([H:9])([H:10])[C@:7]1([C:6][H:11])[H:12]"
N        2.82855420       1.19539222       0.23604415
C        1.96591822       0.44101275       0.27490220
C        0.86532136      -0.52396751       0.26893674
O       -0.08212890      -0.31216297       1.32749751
C       -1.16411186      -0.27893843       0.40797279
C       -0.91098518       0.95257304      -0.83287660
C       -0.23152285      -0.33731922      -0.80341844
H        1.27198815      -1.53655946       0.30937776
H       -1.92945228      -1.03799928       0.54612347
H       -1.90292727       0.75131356       0.18505302
H       -0.35617618       1.74700335      -0.32078960
H       -0.35447740      -1.06034808      -1.59882299
12
Frame=8 idx=011812 GeodesicLength=0.41536387737552527 rxn_smarts="[N:1]#[C:2][C@@:3]1([H:8])[O:4][C@@:5]2([H:9])[C:6]([H:10])([H:11])[C@@:7]12[H:12]>>[N:1]#[C:2][C@@:3]1([H:8])[O:4][C:5]([H:9])([H:10])[C@:7]1([C:6][H:11])[H:12]"
N        2.83191315       1.19220811       0.23214677
C        1.96870058       0.43865100       0.27420981
C        0.86650352      -0.52488244       0.26949571
O       -0.07928396      -0.31124498       1.32874789
C       -1.16349675      -0.27764384       0.41045789
C       -0.90943092       0.95289321      -0.82225341
C       -0.22957698      -0.33687138      -0.80204588
H        1.27228984      -1.53793007       0.30919486
H       -1.92340341      -1.04184115       0.55053441
H       -1.92426236       0.75301885       0.16530706
H       -0.35523273       1.75126041      -0.31672853
H       -0.35471998      -1.05761771      -1.59906659
12
Frame=9 idx=011812 GeodesicLength=0.4669383082008347 rxn_smarts="[N:1]#[C:2][C@@:3]1([H:8])[O:4][C@@:5]2([H:9])[C:6]([H:10])([H:11])[C@@:7]12[H:12]>>[N:1]#[C:2][C@@:3]1([H:8])[O:4][C:5]([H:9])([H:10])[C@:7]1([C:6][H:11])[H:12]"
N        2.83515483       1.18915659       0.22836845
C        1.97150271       0.43626724       0.27347277
C        0.86773383      -0.52584883       0.27000059
O       -0.07626899      -0.31056296       1.33005851
C       -1.16280211      -0.27626075       0.41314747
C       -0.90785117       0.95323614      -0.81145281
C       -0.22768707      -0.33639808      -0.80058366
H        1.27265565      -1.53934060       0.30880048
H       -1.91747147      -1.04529149       0.55517893
H       -1.94551745       0.75436958       0.14475505
H       -0.35431191       1.75552040      -0.31254985
H       -0.35513684      -1.05484725      -1.59919594
12
Frame=10 idx=011812 GeodesicLength=0.5184633690145132 rxn_smarts="[N:1]#[C:2][C@@:3]1([H:8])[O:4][C@@:5]2([H:9])[C:6]([H:10])([H:11])[C@@:7]12[H:12]>>[N:1]#[C:2][C@@:3]1([H:8])[O:4][C:5]([H:9])([H:10])[C@:7]1([C:6][H:11])[H:12]"
N        2.83826952       1.18625174       0.22468446
C        1.97432713       0.43386293       0.27267705
C        0.86902087      -0.52687035       0.27046401
O       -0.07306890      -0.31012405       1.33148167
C       -1.16204036      -0.27484219       0.41609794
C       -0.90633121       0.95359248      -0.80039997
C       -0.22587739      -0.33588756      -0.79901415
H        1.27312065      -1.54079846       0.30819276
H       -1.91169931      -1.04841452       0.56005312
H       -1.96656989       0.75546051       0.12321949
H       -0.35340152       1.75977155      -0.30823684
H       -0.35574960      -1.05200208      -1.59921954
12
Frame=11 idx=011812 GeodesicLength=0.5700996774972676 rxn_smarts="[N:1]#[C:2][C@@:3]1([H:8])[O:4][C@@:5]2([H:9])[C:6]([H:10])([H:11])[C@@:7]12[H:12]>>[N:1]#[C:2][C@@:3]1([H:8])[O:4][C:5]([H:9])([H:10])[C@:7]1([C:6][H:11])[H:12]"
N        2.84127947       1.18346610       0.22107554
C        1.97716378       0.43144829       0.27182713
C        0.87036062      -0.52793969       0.27088690
O       -0.06966978      -0.30993460       1.33301600
C       -1.16119971      -0.27340203       0.41932377
C       -0.90488084       0.95395726      -0.78905553
C       -0.22415387      -0.33533022      -0.79732063
H        1.27367478      -1.54228865       0.30735698
H       -1.90608534      -1.05123214       0.56518556
H       -1.98741066       0.75630138       0.10059584
H       -0.35251640       1.76401749      -0.30376603
H       -0.35656205      -1.04906320      -1.59912554
12
Frame=12 idx=011812 GeodesicLength=0.6217594203352386 rxn_smarts="[N:1]#[C:2][C@@:3]1([H:8])[O:4][C@@:5]2([H:9])[C:6]([H:10])([H:11])[C@@:7]12[H:12]>>[N:1]#[C:2][C@@:3]1([H:8])[O:4][C:5]([H:9])([H:10])[C@:7]1([C:6][H:11])[H:12]"
N        2.84420504       1.18079039       0.21750908
C        1.98001014       0.42903419       0.27092135
C        0.87174798      -0.52905408       0.27127555
O       -0.06608385      -0.30999661       1.33468374
C       -1.16029076      -0.27193903       0.42284671
C       -0.90352622       0.95434671      -0.77739341
C       -0.22252357      -0.33471059      -0.79549400
H        1.27431548      -1.54381850       0.30629250
H       -1.90063704      -1.05374635       0.57057117
H       -2.00796050       0.75684989       0.07681347
H       -0.35167488       1.76825662      -0.29911896
H       -0.35758180      -1.04601262      -1.59890719
12
Frame=13 idx=011812 GeodesicLength=0.6733002447327314 rxn_smarts="[N:1]#[C:2][C@@:3]1([H:8])[O:4][C@@:5]2([H:9])[C:6]([H:10])([H:11])[C@@:7]12[H:12]>>[N:1]#[C:2][C@@:3]1([H:8])[O:4][C:5]([H:9])([H:10])[C@:7]1([C:6][H:11])[H:12]"
N        2.84699408       1.17825785       0.21403418
C        1.98285137       0.42661602       0.26996206
C        0.87317866      -0.53021838       0.27161888
O       -0.06231493      -0.31032430       1.33645343
C       -1.15931378      -0.27045244       0.42663800
C       -0.90225090       0.95473470      -0.76546634
C       -0.22098668      -0.33405024      -0.79354989
H        1.27504566      -1.54537938       0.30499610
H       -1.89536889      -1.05594362       0.57619425
H       -2.02816908       0.75715392       0.05205150
H       -0.35086323       1.77248274      -0.29435977
H       -0.35880227      -1.04287688      -1.59857240
12
Frame=14 idx=011812 GeodesicLength=0.7248339616553965 rxn_smarts="[N:1]#[C:2][C@@:3]1([H:8])[O:4][C@@:5]2([H:9])[C:6]([H:10])([H:11])[C@@:7]12[H:12]>>[N:1]#[C:2][C@@:3]1([H:8])[O:4][C:5]([H:9])([H:10])[C@:7]1([C:6][H:11])[H:12]"
N        2.84968115       1.17584911       0.21062092
C        1.98568369       0.42421045       0.26894464
C        0.87464935      -0.53142583       0.27192146
O       -0.05835920      -0.31092165       1.33834989
C       -1.15827069      -0.26896127       0.43073179
C       -0.90109426       0.95512560      -0.75322057
C       -0.21955661      -0.33333409      -0.79147100
H        1.27586419      -1.54696838       0.30345457
H       -1.89029401      -1.05785123       0.58207476
H       -2.04796595       0.75721632       0.02616775
H       -0.35010393       1.77669207      -0.28945917
H       -0.36023373      -1.03963110      -1.59811505
12
Frame=15 idx=011812 GeodesicLength=0.7763558713911417 rxn_smarts="[N:1]#[C:2][C@@:3]1([H:8])[O:4][C@@:5]2([H:9])[C:6]([H:10])([H:11])[C@@:7]12[H:12]>>[N:1]#[C:2][C@@:3]1([H:8])[O:4][C:5]([H:9])([H:10])[C@:7]1([C:6][H:11])[H:12]"
N        2.85225420       1.17356672       0.20726781
C        1.98849509       0.42182346       0.26786521
C        0.87615576      -0.53267483       0.27218229
O       -0.05421677      -0.31179793       1.34037130
C       -1.15716250      -0.26747689       0.43513444
C       -0.90007124       0.95551095      -0.74064736
C       -0.21824055      -0.33256181      -0.78925218
H        1.27677228      -1.54857983       0.30166189
H       -1.88541993      -1.05947903       0.58821352
H       -2.06728031       0.75706259      -0.00084719
H       -0.34940486       1.78087881      -0.28442096
H       -0.36188117      -1.03627221      -1.59752878
12
Frame=16 idx=011812 GeodesicLength=0.8278645498307392 rxn_smarts="[N:1]#[C:2][C@@:3]1([H:8])[O:4][C@@:5]2([H:9])[C:6]([H:10])([H:11])[C@@:7]12[H:12]>>[N:1]#[C:2][C@@:3]1([H:8])[O:4][C:5]([H:9])([H:10])[C@:7]1([C:6][H:11])[H:12]"
N        2.85473269       1.17138974       0.20393059
C        1.99127729       0.41946762       0.26673678
C        0.87769238      -0.53395870       0.27240989
O       -0.04989600      -0.31295345       1.34252521
C       -1.15599553      -0.26601237       0.43985360
C       -0.89919827       0.95588919      -0.72772896
C       -0.21704185      -0.33172436      -0.78688621
H        1.27776460      -1.55020577       0.29962119
H       -1.88075331      -1.06084926       0.59460854
H       -2.08605730       0.75670064      -0.02902538
H       -0.34878793       1.78504078      -0.27923114
H       -0.36373677      -1.03278406      -1.59681410
