11
Frame=0 idx=000638 GeodesicLength=0.0 rxn_smarts="[O:1]=[C:2]([N:3]([C:4]([C:5]#[C:6][H:11])([H:9])[H:10])[H:8])[H:7]>>[O+:1](=[C:2]([N:3]([C-:4]([H:9])[H:10])[H:8])[H:7])[C:5]#[C:6][H:11]"
O       -1.20815394      -0.55582618      -0.46273146
C       -1.34288192       0.38558619       0.45550005
N       -0.28558857       1.11312827       0.69164925
C        0.83880767       0.90598216      -0.07983965
C        0.06352034      -1.15196751      -0.52817360
C        0.63557132      -2.17620108      -0.83051889
H       -2.24804934       0.42933224       1.03867896
H       -0.25803475       1.66123539       1.53961463
H        0.70151989       1.06343434      -1.14020578
H        1.75979544       1.26768246       0.35379167
H        1.34349386      -2.94238630      -1.03776521
11
Frame=1 idx=000638 GeodesicLength=0.10293693497559754 rxn_smarts="[O:1]=[C:2]([N:3]([C:4]([C:5]#[C:6][H:11])([H:9])[H:10])[H:8])[H:7]>>[O+:1](=[C:2]([N:3]([C-:4]([H:9])[H:10])[H:8])[H:7])[C:5]#[C:6][H:11]"
O       -1.23347435      -0.53931898      -0.47229258
C       -1.35755112       0.40191997       0.44577495
N       -0.28351376       1.10447031       0.69462461
C        0.83479435       0.89798978      -0.08727343
C        0.06839354      -1.14905424      -0.54021457
C        0.65127509      -2.17182790      -0.82424219
H       -2.25565710       0.45126813       1.04038123
H       -0.23575215       1.60979786       1.56777438
H        0.69425772       1.06063261      -1.14688550
H        1.75538395       1.27497858       0.33405661
H        1.36184382      -2.94085611      -1.01170352
11
Frame=2 idx=000638 GeodesicLength=0.2058962567465131 rxn_smarts="[O:1]=[C:2]([N:3]([C:4]([C:5]#[C:6][H:11])([H:9])[H:10])[H:8])[H:7]>>[O+:1](=[C:2]([N:3]([C-:4]([H:9])[H:10])[H:8])[H:7])[C:5]#[C:6][H:11]"
O       -1.25908390      -0.52135064      -0.48255357
C       -1.37141985       0.41799934       0.43712247
N       -0.28117116       1.09514399       0.69798245
C        0.83080536       0.89043341      -0.09480511
C        0.07402056      -1.14588601      -0.55307928
C        0.66712098      -2.16676843      -0.82010675
H       -2.26251723       0.47308877       1.04271829
H       -0.21397796       1.55584935       1.59412839
H        0.68660507       1.05874155      -1.15349331
H        1.75044392       1.28297897       0.31428900
H        1.37917421      -2.94023030      -0.98220257
11
Frame=3 idx=000638 GeodesicLength=0.3088790899333586 rxn_smarts="[O:1]=[C:2]([N:3]([C:4]([C:5]#[C:6][H:11])([H:9])[H:10])[H:8])[H:7]>>[O+:1](=[C:2]([N:3]([C-:4]([H:9])[H:10])[H:8])[H:7])[C:5]#[C:6][H:11]"
O       -1.28495889      -0.50222570      -0.49296532
C       -1.38470778       0.43411079       0.42940819
N       -0.27876426       1.08551189       0.70143743
C        0.82692616       0.88296146      -0.10211967
C        0.08044972      -1.14309274      -0.56520077
C        0.68293586      -2.16218233      -0.81525853
H       -2.26893378       0.49542761       1.04542938
H       -0.19322570       1.50067733       1.61795461
H        0.67909737       1.05660991      -1.15990427
H        1.74494526       1.29142830       0.29496510
H        1.39623605      -2.93922653      -0.95374614
11
Frame=4 idx=000638 GeodesicLength=0.4118790136982945 rxn_smarts="[O:1]=[C:2]([N:3]([C:4]([C:5]#[C:6][H:11])([H:9])[H:10])[H:8])[H:7]>>[O+:1](=[C:2]([N:3]([C-:4]([H:9])[H:10])[H:8])[H:7])[C:5]#[C:6][H:11]"
O       -1.31114594      -0.48158143      -0.50398262
C       -1.39734573       0.45006605       0.42268426
N       -0.27619346       1.07533850       0.70508868
C        0.82314438       0.87573299      -0.10936009
C        0.08772162      -1.14034593      -0.57749182
C        0.69871798      -2.15764281      -0.81128960
H       -2.27456717       0.51752478       1.04902933
H       -0.17340994       1.44423006       1.63938514
H        0.67155246       1.05484282      -1.16616518
H        1.73890291       1.30033940       0.27600598
H        1.41262288      -2.93850443      -0.92390408
11
Frame=5 idx=000638 GeodesicLength=0.5148865333242549 rxn_smarts="[O:1]=[C:2]([N:3]([C:4]([C:5]#[C:6][H:11])([H:9])[H:10])[H:8])[H:7]>>[O+:1](=[C:2]([N:3]([C-:4]([H:9])[H:10])[H:8])[H:7])[C:5]#[C:6][H:11]"
O       -1.33759853      -0.45950526      -0.51534651
C       -1.40945468       0.46602400       0.41682649
N       -0.27361590       1.06486774       0.70874163
C        0.81943720       0.86866026      -0.11642404
C        0.09596093      -1.13791358      -0.58909326
C        0.71460000      -2.15362125      -0.80653669
H       -2.27958205       0.53970237       1.05328419
H       -0.15469590       1.38692923       1.65824173
H        0.66414992       1.05291288      -1.17226664
H        1.73225536       1.30960146       0.25758393
H        1.42854366      -2.93765786      -0.89501084
11
Frame=6 idx=000638 GeodesicLength=0.6178897522710857 rxn_smarts="[O:1]=[C:2]([N:3]([C:4]([C:5]#[C:6][H:11])([H:9])[H:10])[H:8])[H:7]>>[O+:1](=[C:2]([N:3]([C-:4]([H:9])[H:10])[H:8])[H:7])[C:5]#[C:6][H:11]"
O       -1.36437648      -0.43562452      -0.52747401
C       -1.42096790       0.48177223       0.41193357
N       -0.27091435       1.05384670       0.71249464
C        0.81581737       0.86186972      -0.12344481
C        0.10519736      -1.13551011      -0.60090969
C        0.73043278      -2.14981177      -0.80272886
H       -2.28368299       0.56118620       1.05870101
H       -0.13699969       1.32884717       1.67464881
H        0.65674397       1.05137476      -1.17825316
H        1.72504648       1.31924789       0.23962640
H        1.44370345      -2.93719828      -0.86459391
11
Frame=7 idx=000638 GeodesicLength=0.7209044091512892 rxn_smarts="[O:1]=[C:2]([N:3]([C:4]([C:5]#[C:6][H:11])([H:9])[H:10])[H:8])[H:7]>>[O+:1](=[C:2]([N:3]([C-:4]([H:9])[H:10])[H:8])[H:7])[C:5]#[C:6][H:11]"
O       -1.39148450      -0.40988499      -0.54026107
C       -1.43197421       0.49739965       0.40792376
N       -0.26817185       1.04238819       0.71623983
C        0.81226701       0.85534102      -0.13040218
C        0.11552874      -1.13325741      -0.61253303
C        0.74625449      -2.14651649      -0.79891576
H       -2.28697777       0.58209546       1.06515624
H       -0.12035926       1.27014242       1.68859055
H        0.64940622       1.04998100      -1.18415824
H        1.71725182       1.32925246       0.22218517
H        1.45825929      -2.93694131      -0.83382526
11
Frame=8 idx=000638 GeodesicLength=0.8238840256004196 rxn_smarts="[O:1]=[C:2]([N:3]([C:4]([C:5]#[C:6][H:11])([H:9])[H:10])[H:8])[H:7]>>[O+:1](=[C:2]([N:3]([C-:4]([H:9])[H:10])[H:8])[H:7])[C:5]#[C:6][H:11]"
O       -1.41892722      -0.38232592      -0.55346986
C       -1.44259821       0.51308139       0.40470290
N       -0.26550922       1.03071061       0.71986373
C        0.80882615       0.84885113      -0.13710079
C        0.12698041      -1.13156888      -0.62303712
C        0.76175277      -2.14446195      -0.79380980
H       -2.28965373       0.60278246       1.07245853
H       -0.10512127       1.21174672       1.69998060
H        0.64242006       1.04804187      -1.18992199
H        1.70886943       1.33950336       0.20543249
H        1.47296083      -2.93636078      -0.80509869
11
Frame=9 idx=000638 GeodesicLength=0.9269108119482847 rxn_smarts="[O:1]=[C:2]([N:3]([C:4]([C:5]#[C:6][H:11])([H:9])[H:10])[H:8])[H:7]>>[O+:1](=[C:2]([N:3]([C-:4]([H:9])[H:10])[H:8])[H:7])[C:5]#[C:6][H:11]"
O       -1.44675624      -0.35246921      -0.56739773
C       -1.45277273       0.52866917       0.40233049
N       -0.26285227       1.01856953       0.72340680
C        0.80536644       0.84268858      -0.14383954
C        0.13969252      -1.12996214      -0.63336805
C        0.77716833      -2.14304253      -0.78870504
H       -2.29150291       0.62272895       1.08083523
H       -0.09079124       1.15254473       1.70902928
H        0.63536690       1.04629029      -1.19568703
H        1.69982883       1.35007358       0.18909620
H        1.48725236      -2.93609094      -0.77570061
11
Frame=10 idx=000638 GeodesicLength=1.0299166543635863 rxn_smarts="[O:1]=[C:2]([N:3]([C:4]([C:5]#[C:6][H:11])([H:9])[H:10])[H:8])[H:7]>>[O+:1](=[C:2]([N:3]([C-:4]([H:9])[H:10])[H:8])[H:7])[C:5]#[C:6][H:11]"
O       -1.47498465      -0.32023649      -0.58196105
C       -1.46258164       0.54422883       0.40076608
N       -0.26025926       1.00610170       0.72681530
C        0.80195452       0.83672803      -0.15048173
C        0.15370442      -1.12873470      -0.64299025
C        0.79212782      -2.14285439      -0.78302810
H       -2.29263790       0.64197638       1.09025613
H       -0.07766196       1.09336710       1.71574501
H        0.62849002       1.04430544      -1.20144154
H        1.69016377       1.36098887       0.17329921
H        1.50168485      -2.93587076      -0.74697906
11
Frame=11 idx=000638 GeodesicLength=1.1329520784415315 rxn_smarts="[O:1]=[C:2]([N:3]([C:4]([C:5]#[C:6][H:11])([H:9])[H:10])[H:8])[H:7]>>[O+:1](=[C:2]([N:3]([C-:4]([H:9])[H:10])[H:8])[H:7])[C:5]#[C:6][H:11]"
O       -1.50365489      -0.28530208      -0.59722531
C       -1.47204390       0.55978635       0.39997716
N       -0.25772991       0.99325846       0.73007050
C        0.79853862       0.83104593      -0.15711883
C        0.16911880      -1.12781664      -0.65204170
C        0.80657065      -2.14398333      -0.77660801
H       -2.29303845       0.66041400       1.10072487
H       -0.06558676       1.03384205       1.72020470
H        0.62167290       1.04219888      -1.20726736
H        1.67981464       1.37231960       0.15794198
H        1.51633831      -2.93576320      -0.71865799
11
Frame=12 idx=000638 GeodesicLength=1.2359889131669373 rxn_smarts="[O:1]=[C:2]([N:3]([C:4]([C:5]#[C:6][H:11])([H:9])[H:10])[H:8])[H:7]>>[O+:1](=[C:2]([N:3]([C-:4]([H:9])[H:10])[H:8])[H:7])[C:5]#[C:6][H:11]"
O       -1.53282686      -0.24738466      -0.61339546
C       -1.48116908       0.57532980       0.39992859
N       -0.25522355       0.98005978       0.73321635
C        0.79513128       0.82580546      -0.16381686
C        0.18598486      -1.12730748      -0.66067419
C        0.82026206      -2.14676786      -0.76939355
H       -2.29267487       0.67781151       1.11231972
H       -0.05447021       0.97378590       1.72264730
H        0.61489948       1.04016511      -1.21337052
H        1.66876906       1.38442140       0.14299035
H        1.53131783      -2.93591898      -0.69045174
11
Frame=13 idx=000638 GeodesicLength=1.3390181058642767 rxn_smarts="[O:1]=[C:2]([N:3]([C:4]([C:5]#[C:6][H:11])([H:9])[H:10])[H:8])[H:7]>>[O+:1](=[C:2]([N:3]([C-:4]([H:9])[H:10])[H:8])[H:7])[C:5]#[C:6][H:11]"
O       -1.56216959      -0.20576151      -0.63050371
C       -1.48946819       0.58928347       0.40128860
N       -0.25236995       0.96491083       0.73608153
C        0.79171953       0.82125386      -0.17121034
C        0.20530818      -1.12531235      -0.67263069
C        0.83561379      -2.14823339      -0.76480268
H       -2.29080527       0.69159464       1.12593392
H       -0.04371025       0.91288810       1.72211784
H        0.60733590       1.04035070      -1.21935063
H        1.65684857       1.39702419       0.12803769
H        1.54169728      -2.93799853      -0.65496153
11
Frame=14 idx=000638 GeodesicLength=1.4422460095214906 rxn_smarts="[O:1]=[C:2]([N:3]([C:4]([C:5]#[C:6][H:11])([H:9])[H:10])[H:8])[H:7]>>[O+:1](=[C:2]([N:3]([C-:4]([H:9])[H:10])[H:8])[H:7])[C:5]#[C:6][H:11]"
O       -1.59229767      -0.16057273      -0.64759647
C       -1.49801266       0.60469702       0.40280500
N       -0.25008034       0.95049391       0.73855692
C        0.78818930       0.81645007      -0.17813047
C        0.22573045      -1.12510717      -0.68010891
C        0.84813257      -2.15364485      -0.75511462
H       -2.28903343       0.70667446       1.13955708
H       -0.03464807       0.85158995       1.71946233
H        0.60054438       1.03776067      -1.22561780
H        1.64413527       1.40978844       0.11362537
H        1.55734021      -2.93812977      -0.62743843
11
Frame=15 idx=000638 GeodesicLength=1.5455738533266141 rxn_smarts="[O:1]=[C:2]([N:3]([C:4]([C:5]#[C:6][H:11])([H:9])[H:10])[H:8])[H:7]>>[O+:1](=[C:2]([N:3]([C-:4]([H:9])[H:10])[H:8])[H:7])[C:5]#[C:6][H:11]"
O       -1.62280451      -0.11113581      -0.66520658
C       -1.50621798       0.61993780       0.40514164
N       -0.24790925       0.93545263       0.74069712
C        0.78455171       0.81209979      -0.18528413
C        0.24836719      -1.12500838      -0.68726952
C        0.86025315      -2.16037751      -0.74439543
H       -2.28644469       0.72003262       1.15438799
H       -0.02661637       0.78951930       1.71430643
H        0.59363674       1.03512904      -1.23218227
H        1.63035691       1.42335782       0.09935339
H        1.57282711      -2.93900730      -0.59954865
11
Frame=16 idx=000638 GeodesicLength=1.6490867730322607 rxn_smarts="[O:1]=[C:2]([N:3]([C:4]([C:5]#[C:6][H:11])([H:9])[H:10])[H:8])[H:7]>>[O+:1](=[C:2]([N:3]([C-:4]([H:9])[H:10])[H:8])[H:7])[C:5]#[C:6][H:11]"
O       -1.65384141      -0.05699270      -0.68306644
C       -1.51429578       0.63533569       0.40813790
N       -0.24601446       0.92006858       0.74243256
C        0.78079550       0.80792766      -0.19246870
C        0.27313749      -1.12555970      -0.69291545
C        0.87122150      -2.16926079      -0.73096430
H       -2.28337337       0.73226359       1.17004000
H       -0.01991533       0.72718972       1.70666363
H        0.58681315       1.03160963      -1.23905443
H        1.61554037       1.43752415       0.08528979
H        1.58993235      -2.94010582      -0.57409457
