17
Frame=0 idx=010100 GeodesicLength=0.0 rxn_smarts="[C:1]([C@@:2]1([H:11])[C:3]([H:12])([H:13])[C@:4]1([C:5]([C:6](=[O:7])[H:17])([H:15])[H:16])[H:14])([H:8])([H:9])[H:10]>>[C:1]([C:2](=[C:3]([H:12])[H:13])[H:11])([H:8])([H:9])[H:10].[C:4](=[C:5]([H:15])[H:16])([C:6](=[O:7])[H:17])[H:14]"
C       -2.06876062      -0.19884835      -0.06626359
C       -1.26332988       1.00653547      -0.17505738
C       -0.06371605       1.14501708       0.58922397
C        0.74936985       0.18097272      -0.36748501
C        0.70162529      -1.24737217      -0.20879368
C        2.17738727      -0.23396394       0.15314777
O        3.16521322      -0.19321736      -0.55760977
H       -2.36950501      -0.42654108       0.95948570
H       -1.39019863      -1.06381888      -0.34307355
H       -2.93732996      -0.20952024      -0.72105004
H       -1.41894075       1.68033224      -1.00988126
H        0.40045351       2.12723341       0.58550182
H       -0.07784630       0.71180453       1.58915667
H        0.85714516       0.54423854      -1.38326156
H        0.78474394      -1.90496949      -1.06179969
H        0.52591776      -1.68847533       0.76296463
H        2.22777128      -0.22940708       1.25479496
17
Frame=1 idx=010100 GeodesicLength=0.12995501227122655 rxn_smarts="[C:1]([C@@:2]1([H:11])[C:3]([H:12])([H:13])[C@:4]1([C:5]([C:6](=[O:7])[H:17])([H:15])[H:16])[H:14])([H:8])([H:9])[H:10]>>[C:1]([C:2](=[C:3]([H:12])[H:13])[H:11])([H:8])([H:9])[H:10].[C:4](=[C:5]([H:15])[H:16])([C:6](=[O:7])[H:17])[H:14]"
C       -2.08558706      -0.19293686      -0.05864097
C       -1.25563588       0.99678332      -0.18136204
C       -0.07204516       1.14708202       0.60186755
C        0.75231042       0.17253676      -0.38312498
C        0.72115315      -1.25386946      -0.22281931
C        2.19640374      -0.23804112       0.14729324
O        3.18213907      -0.15265431      -0.56056330
H       -2.44729870      -0.36065739       0.95897081
H       -1.42031187      -1.08436089      -0.26047828
H       -2.92110663      -0.22015793      -0.75536569
H       -1.41225790       1.67631375      -1.01123340
H        0.38779865       2.13121997       0.60504913
H       -0.09173092       0.71053703       1.60003403
H        0.86572190       0.53647732      -1.39841187
H        0.79670653      -1.91074013      -1.07766327
H        0.54997189      -1.70103969       0.74742898
H        2.25376876      -0.25649240       1.24901938
17
Frame=2 idx=010100 GeodesicLength=0.25832110698934163 rxn_smarts="[C:1]([C@@:2]1([H:11])[C:3]([H:12])([H:13])[C@:4]1([C:5]([C:6](=[O:7])[H:17])([H:15])[H:16])[H:14])([H:8])([H:9])[H:10]>>[C:1]([C:2](=[C:3]([H:12])[H:13])[H:11])([H:8])([H:9])[H:10].[C:4](=[C:5]([H:15])[H:16])([C:6](=[O:7])[H:17])[H:14]"
C       -2.10116268      -0.18768070      -0.05047477
C       -1.24801610       0.98672304      -0.18623636
C       -0.08054285       1.14975974       0.61502356
C        0.75512158       0.16427229      -0.39931739
C        0.73976826      -1.25998645      -0.23765197
C        2.21511205      -0.24303166       0.14106136
O        3.19771551      -0.11221222      -0.56237793
H       -2.52392044      -0.29298938       0.95186937
H       -1.45025313      -1.09999169      -0.17282655
H       -2.89954785      -0.23740831      -0.78882691
H       -1.40641613       1.67195131      -1.01094949
H        0.37477650       2.13576796       0.62423654
H       -0.10543148       0.71036372       1.61156264
H        0.87437617       0.52908375      -1.41394109
H        0.80686458      -1.91610818      -1.09431172
H        0.57162560      -1.71280612       0.73091536
H        2.27993039      -0.28570709       1.24224535
17
Frame=3 idx=010100 GeodesicLength=0.38551778436920003 rxn_smarts="[C:1]([C@@:2]1([H:11])[C:3]([H:12])([H:13])[C@:4]1([C:5]([C:6](=[O:7])[H:17])([H:15])[H:16])[H:14])([H:8])([H:9])[H:10]>>[C:1]([C:2](=[C:3]([H:12])[H:13])[H:11])([H:8])([H:9])[H:10].[C:4](=[C:5]([H:15])[H:16])([C:6](=[O:7])[H:17])[H:14]"
C       -2.11543956      -0.18318447      -0.04171971
C       -1.24052590       0.97656521      -0.18976343
C       -0.08913344       1.15335078       0.62858658
C        0.75779661       0.15625671      -0.41611707
C        0.75735705      -1.26577884      -0.25327095
C        2.23350947      -0.24902805       0.13468870
O        3.21203837      -0.07192791      -0.56248472
H       -2.59790266      -0.22544807       0.93804491
H       -1.48036173      -1.11022121      -0.08199750
H       -2.87344334      -0.26077608      -0.81971377
H       -1.40149712       1.66722276      -1.00940619
H        0.36152310       2.14126290       0.64280028
H       -0.11879071       0.71170638       1.62377012
H        0.88318991       0.52216631      -1.42993304
H        0.81528961      -1.92123516      -1.11165034
H        0.59023549      -1.72371625       0.71349126
H        2.30615485      -0.31721501       1.23467488
17
Frame=4 idx=010100 GeodesicLength=0.5117181414816968 rxn_smarts="[C:1]([C@@:2]1([H:11])[C:3]([H:12])([H:13])[C@:4]1([C:5]([C:6](=[O:7])[H:17])([H:15])[H:16])[H:14])([H:8])([H:9])[H:10]>>[C:1]([C:2](=[C:3]([H:12])[H:13])[H:11])([H:8])([H:9])[H:10].[C:4](=[C:5]([H:15])[H:16])([C:6](=[O:7])[H:17])[H:14]"
C       -2.12841720      -0.17945120      -0.03223210
C       -1.23312124       0.96634291      -0.19208005
C       -0.09783837       1.15798616       0.64245219
C        0.76035971       0.14850821      -0.43358636
C        0.77397315      -1.27122985      -0.26971919
C        2.25154795      -0.25603062       0.12832911
O        3.22512357      -0.03180675      -0.56039781
H       -2.66832851      -0.15926031       0.91779211
H       -1.51082427      -1.11472687       0.01041014
H       -2.84350126      -0.28966890      -0.84657811
H       -1.39742282       1.66191356      -1.00693712
H        0.34799146       2.14784989       0.66057587
H       -0.13182993       0.71481703       1.63660674
H        0.89235105       0.51573373      -1.44640895
H        0.82229357      -1.92613561      -1.12966620
H        0.60540143      -1.73361497       0.69509772
H        2.33224169      -0.35122640       1.22634201
17
Frame=5 idx=010100 GeodesicLength=0.6370616341594697 rxn_smarts="[C:1]([C@@:2]1([H:11])[C:3]([H:12])([H:13])[C@:4]1([C:5]([C:6](=[O:7])[H:17])([H:15])[H:16])[H:14])([H:8])([H:9])[H:10]>>[C:1]([C:2](=[C:3]([H:12])[H:13])[H:11])([H:8])([H:9])[H:10].[C:4](=[C:5]([H:15])[H:16])([C:6](=[O:7])[H:17])[H:14]"
C       -2.14016748      -0.17633747      -0.02191850
C       -1.22572001       0.95604597      -0.19331668
C       -0.10671317       1.16366904       0.65652530
C        0.76283352       0.14098010      -0.45180371
C        0.78975114      -1.27634828      -0.28698227
C        2.26921815      -0.26401983       0.12203608
O        3.23699308       0.00828579      -0.55572737
H       -2.73444107      -0.09545945       0.89169192
H       -1.54207506      -1.11362151       0.10301897
H       -2.81042466      -0.32312709      -0.86841844
H       -1.39399908       1.65585733      -1.00378670
H        0.33411043       2.15550422       0.67744916
H       -0.14466422       0.71977511       1.64998622
H        0.90201277       0.50970959      -1.46341694
H        0.82828116      -1.93084303      -1.14826909
H        0.61694950      -1.74237630       0.67575142
H        2.35805501      -0.38769421       1.21718064
17
Frame=6 idx=010100 GeodesicLength=0.761829801264178 rxn_smarts="[C:1]([C@@:2]1([H:11])[C:3]([H:12])([H:13])[C@:4]1([C:5]([C:6](=[O:7])[H:17])([H:15])[H:16])[H:14])([H:8])([H:9])[H:10]>>[C:1]([C:2](=[C:3]([H:12])[H:13])[H:11])([H:8])([H:9])[H:10].[C:4](=[C:5]([H:15])[H:16])([C:6](=[O:7])[H:17])[H:14]"
C       -2.15088780      -0.17379350      -0.01073340
C       -1.21824914       0.94563114      -0.19365969
C       -0.11576372       1.17042855       0.67077850
C        0.76526947       0.13366610      -0.47084333
C        0.80490044      -1.28120785      -0.30511615
C        2.28660886      -0.27287210       0.11588974
O        3.24766253       0.04842336      -0.54813180
H       -2.79622464      -0.03451794       0.86016106
H       -1.57428823      -1.10706533       0.19516395
H       -2.77505658      -0.36049338      -0.88460581
H       -1.39112981       1.64896622      -1.00024028
H        0.31984374       2.16433286       0.69345470
H       -0.15728211       0.72657350       1.66390632
H        0.91229280       0.50413046      -1.48100443
H        0.83356547      -1.93544587      -1.16753624
H        0.62503561      -1.75004120       0.65538801
H        2.38370311      -0.42671503       1.20712884
17
Frame=7 idx=010100 GeodesicLength=0.8861038055242441 rxn_smarts="[C:1]([C@@:2]1([H:11])[C:3]([H:12])([H:13])[C@:4]1([C:5]([C:6](=[O:7])[H:17])([H:15])[H:16])[H:14])([H:8])([H:9])[H:10]>>[C:1]([C:2](=[C:3]([H:12])[H:13])[H:11])([H:8])([H:9])[H:10].[C:4](=[C:5]([H:15])[H:16])([C:6](=[O:7])[H:17])[H:14]"
C       -2.16072990      -0.17166199       0.00133667
C       -1.21062191       0.93501699      -0.19320627
C       -0.12504646       1.17817309       0.68519925
C        0.76769485       0.12651238      -0.49077657
C        0.81961845      -1.28582250      -0.32412185
C        2.30378528      -0.28249333       0.10985773
O        3.25709590       0.08866616      -0.53739642
H       -2.85366717       0.02323338       0.82356305
H       -1.60780617      -1.09524961       0.28648665
H       -2.73787168      -0.40108138      -0.89482961
H       -1.38865535       1.64114452      -0.99639484
H        0.30510770       2.17422416       0.70864622
H       -0.16978192       0.73509587       1.67832023
H        0.92326929       0.49893922      -1.49920277
H        0.83843006      -1.93994796      -1.18744749
H        0.62990052      -1.75655634       0.63398033
H        2.40927851      -0.46819265       1.19598569
17
Frame=8 idx=010100 GeodesicLength=1.0101873045416305 rxn_smarts="[C:1]([C@@:2]1([H:11])[C:3]([H:12])([H:13])[C@:4]1([C:5]([C:6](=[O:7])[H:17])([H:15])[H:16])[H:14])([H:8])([H:9])[H:10]>>[C:1]([C:2](=[C:3]([H:12])[H:13])[H:11])([H:8])([H:9])[H:10].[C:4](=[C:5]([H:15])[H:16])([C:6](=[O:7])[H:17])[H:14]"
C       -2.16988960      -0.16989163       0.01429049
C       -1.20277342       0.92415923      -0.19204894
C       -0.13456882       1.18690406       0.69984372
C        0.77013644       0.11951216      -0.51168697
C        0.83406701      -1.29028349      -0.34403979
C        2.32085799      -0.29277579       0.10393633
O        3.26524823       0.12910597      -0.52331274
H       -2.90696502       0.07768666       0.78206015
H       -1.64291377      -1.07831433       0.37695730
H       -2.69932573      -0.44456809      -0.89895153
H       -1.38648992       1.63241503      -0.99238870
H        0.28988138       2.18526064       0.72315212
H       -0.18215589       0.74525194       1.69330770
H        0.93498173       0.49419307      -1.51809381
H        0.84303479      -1.94445430      -1.20809062
H        0.63184913      -1.76202709       0.61148553
H        2.43502548      -0.51217404       1.18357977
17
Frame=9 idx=010100 GeodesicLength=1.1338306637365494 rxn_smarts="[C:1]([C@@:2]1([H:11])[C:3]([H:12])([H:13])[C@:4]1([C:5]([C:6](=[O:7])[H:17])([H:15])[H:16])[H:14])([H:8])([H:9])[H:10]>>[C:1]([C:2](=[C:3]([H:12])[H:13])[H:11])([H:8])([H:9])[H:10].[C:4](=[C:5]([H:15])[H:16])([C:6](=[O:7])[H:17])[H:14]"
C       -2.17837441      -0.16813720       0.02815348
C       -1.19458395       0.91291494      -0.19015124
C       -0.14458619       1.19638561       0.71467739
C        0.77263780       0.11254573      -0.53363322
C        0.84848271      -1.29447378      -0.36480838
C        2.33778659      -0.30367361       0.09792555
O        3.27197080       0.16945840      -0.50586426
H       -2.95599713       0.12851174       0.73613725
H       -1.68010340      -1.05618501       0.46619929
H       -2.65932806      -0.49014547      -0.89668420
H       -1.38434063       1.62257060      -0.98804108
H        0.27380717       2.19702145       0.73699380
H       -0.19485216       0.75686137       1.70868221
H        0.94761975       0.48965607      -1.53762073
H        0.84780529      -1.94882824      -1.22927638
H        0.63123070      -1.76616143       0.58786144
H        2.46082512      -0.55832115       1.16944908
17
Frame=10 idx=010100 GeodesicLength=1.2573664011683865 rxn_smarts="[C:1]([C@@:2]1([H:11])[C:3]([H:12])([H:13])[C@:4]1([C:5]([C:6](=[O:7])[H:17])([H:15])[H:16])[H:14])([H:8])([H:9])[H:10]>>[C:1]([C:2](=[C:3]([H:12])[H:13])[H:11])([H:8])([H:9])[H:10].[C:4](=[C:5]([H:15])[H:16])([C:6](=[O:7])[H:17])[H:14]"
C       -2.18644388      -0.16651204       0.04282816
C       -1.18599889       0.90128141      -0.18757295
C       -0.15497107       1.20669384       0.72985859
C        0.77518824       0.10565263      -0.55667397
C        0.86290009      -1.29855964      -0.38642628
C        2.35473782      -0.31502197       0.09186576
O        3.27713250       0.20990606      -0.48489450
H       -3.00106921       0.17569481       0.68551002
H       -1.71960953      -1.02889614       0.55433196
H       -2.61848111      -0.53783885      -0.88803753
H       -1.38216082       1.61176579      -0.98350359
H        0.25709391       2.20976224       0.75042594
H       -0.20764762       0.76981393       1.72467877
H        0.96106559       0.48548464      -1.55788884
H        0.85260009      -1.95329862      -1.25109621
H        0.62844568      -1.76922752       0.56314492
H        2.48721821      -0.60670056       1.15344977
17
Frame=11 idx=010100 GeodesicLength=1.380735576427315 rxn_smarts="[C:1]([C@@:2]1([H:11])[C:3]([H:12])([H:13])[C@:4]1([C:5]([C:6](=[O:7])[H:17])([H:15])[H:16])[H:14])([H:8])([H:9])[H:10]>>[C:1]([C:2](=[C:3]([H:12])[H:13])[H:11])([H:8])([H:9])[H:10].[C:4](=[C:5]([H:15])[H:16])([C:6](=[O:7])[H:17])[H:14]"
C       -2.19412297      -0.16484936       0.05825892
C       -1.17692467       0.88918812      -0.18424053
C       -0.16585568       1.21772003       0.74548589
C        0.77777152       0.09876839      -0.58085512
C        0.87742806      -1.30251807      -0.40883985
C        2.37170675      -0.32674246       0.08562179
O        3.28047717       0.25022856      -0.46041617
H       -3.04214171       0.21900529       0.63015166
H       -1.76181923      -0.99616723       0.64118960
H       -2.57674177      -0.58730162      -0.87283338
H       -1.37975961       1.59994159      -0.97864230
H        0.23956660       2.22330892       0.76362576
H       -0.22075226       0.78397134       1.74132321
H        0.97532335       0.48156462      -1.57889025
H        0.85754199      -1.95787093      -1.27345102
H        0.62392562      -1.77113791       0.53734838
H        2.51437683      -0.65710928       1.13516341
17
Frame=12 idx=010100 GeodesicLength=1.5041188793759785 rxn_smarts="[C:1]([C@@:2]1([H:11])[C:3]([H:12])([H:13])[C@:4]1([C:5]([C:6](=[O:7])[H:17])([H:15])[H:16])[H:14])([H:8])([H:9])[H:10]>>[C:1]([C:2](=[C:3]([H:12])[H:13])[H:11])([H:8])([H:9])[H:10].[C:4](=[C:5]([H:15])[H:16])([C:6](=[O:7])[H:17])[H:14]"
C       -2.20157667      -0.16303386       0.07434113
C       -1.16732671       0.87663220      -0.18006655
C       -0.17733001       1.22938788       0.76171831
C        0.78037929       0.09185597      -0.60622161
C        0.89216679      -1.30639793      -0.43193207
C        2.38884040      -0.33873105       0.07905197
O        3.28190062       0.29025047      -0.43255636
H       -3.07930534       0.25816121       0.56984998
H       -1.80729236      -0.95772166       0.72655940
H       -2.53425332      -0.63821989      -0.85092391
H       -1.37701179       1.58720400      -0.97334917
H        0.22116244       2.23758877       0.77683721
H       -0.23432293       0.79913416       1.75874045
H        0.99034679       0.47785676      -1.60067316
H        0.86267372      -1.96266448      -1.29617704
H        0.61819149      -1.77195301       0.51062248
H        2.54275759      -0.70934953       1.11417896
17
Frame=13 idx=010100 GeodesicLength=1.6273849087890409 rxn_smarts="[C:1]([C@@:2]1([H:11])[C:3]([H:12])([H:13])[C@:4]1([C:5]([C:6](=[O:7])[H:17])([H:15])[H:16])[H:14])([H:8])([H:9])[H:10]>>[C:1]([C:2](=[C:3]([H:12])[H:13])[H:11])([H:8])([H:9])[H:10].[C:4](=[C:5]([H:15])[H:16])([C:6](=[O:7])[H:17])[H:14]"
C       -2.20887044      -0.16081621       0.09095443
C       -1.15706554       0.86352231      -0.17500712
C       -0.18956590       1.24152332       0.77865626
C        0.78301685       0.08481757      -0.63285773
C        0.90720045      -1.31017528      -0.45565282
C        2.40611069      -0.35094579       0.07195847
O        3.28111641       0.32969748      -0.40132452
H       -3.11218836       0.29286427       0.50503022
H       -1.85666272      -0.91319119       0.80984800
H       -2.49099102      -0.69016519      -0.82197661
H       -1.37361831       1.57350281      -0.96753105
H        0.20168694       2.25234162       0.79024559
H       -0.24868178       0.81507379       1.77696310
H        1.00620987       0.47419617      -1.62327884
H        0.86815643      -1.96769868      -1.31915708
H        0.61176782      -1.77161234       0.48303073
H        2.57237861      -0.76293465       1.09009897
17
Frame=14 idx=010100 GeodesicLength=1.7506035753351825 rxn_smarts="[C:1]([C@@:2]1([H:11])[C:3]([H:12])([H:13])[C@:4]1([C:5]([C:6](=[O:7])[H:17])([H:15])[H:16])[H:14])([H:8])([H:9])[H:10]>>[C:1]([C:2](=[C:3]([H:12])[H:13])[H:11])([H:8])([H:9])[H:10].[C:4](=[C:5]([H:15])[H:16])([C:6](=[O:7])[H:17])[H:14]"
C       -2.21617580      -0.15814922       0.10789020
C       -1.14608783       0.84990708      -0.16883806
C       -0.20257491       1.25401538       0.79663695
C        0.78555603       0.07756932      -0.66071265
C        0.92254399      -1.31397885      -0.47973079
C        2.42370905      -0.36315690       0.06411471
O        3.27783967       0.36856243      -0.36716067
H       -3.14084315       0.32282782       0.43471017
H       -1.91050454      -0.86209661       0.89054481
H       -2.44726461      -0.74283611      -0.78580626
H       -1.36937064       1.55907416      -0.96089416
H        0.18128153       2.26747784       0.80438072
H       -0.26391137       0.83146124       1.79624675
H        1.02254520       0.47045319      -1.64669917
H        0.87379755      -1.97328626      -1.34200899
H        0.60533543      -1.77029544       0.45499271
H        2.60412439      -0.81754906       1.06233374
17
Frame=15 idx=010100 GeodesicLength=1.873730206564339 rxn_smarts="[C:1]([C@@:2]1([H:11])[C:3]([H:12])([H:13])[C@:4]1([C:5]([C:6](=[O:7])[H:17])([H:15])[H:16])[H:14])([H:8])([H:9])[H:10]>>[C:1]([C:2](=[C:3]([H:12])[H:13])[H:11])([H:8])([H:9])[H:10].[C:4](=[C:5]([H:15])[H:16])([C:6](=[O:7])[H:17])[H:14]"
C       -2.22356881      -0.15481523       0.12493735
C       -1.13428334       0.83579097      -0.16137050
C       -0.21647525       1.26667461       0.81594554
C        0.78790416       0.06999329      -0.68981499
C        0.93821402      -1.31782720      -0.50403426
C        2.44169728      -0.37526812       0.05522171
O        3.27179152       0.40654174      -0.33040635
H       -3.16490733       0.34752631       0.35862586
H       -1.96957621      -0.80372324       0.96786756
H       -2.40295609      -0.79589671      -0.74195994
H       -1.36397729       1.54403691      -0.95318710
H        0.15991740       2.28272475       0.81968718
H       -0.28029816       0.84797057       1.81679596
H        1.03917599       0.46643425      -1.67097767
H        0.87952183      -1.97955370      -1.36449682
H        0.59949170      -1.76803002       0.42678721
H        2.63832858      -0.87257916       1.03037925
17
Frame=16 idx=010100 GeodesicLength=1.9967367773823619 rxn_smarts="[C:1]([C@@:2]1([H:11])[C:3]([H:12])([H:13])[C@:4]1([C:5]([C:6](=[O:7])[H:17])([H:15])[H:16])[H:14])([H:8])([H:9])[H:10]>>[C:1]([C:2](=[C:3]([H:12])[H:13])[H:11])([H:8])([H:9])[H:10].[C:4](=[C:5]([H:15])[H:16])([C:6](=[O:7])[H:17])[H:14]"
C       -2.23109671      -0.15062139       0.14190118
C       -1.12152060       0.82118980      -0.15231564
C       -0.23137515       1.27924587       0.83697894
C        0.78991716       0.06193770      -0.72016413
C        0.95421677      -1.32176478      -0.52838546
C        2.46016345      -0.38714118       0.04485706
O        3.26260337       0.44343690      -0.29156974
H       -3.18388428       0.36631228       0.27594127
H       -2.03478019      -0.73708684       1.04090976
H       -2.35796347      -0.84895570      -0.68973774
H       -1.35707684       1.52857335      -0.94402798
H        0.13763970       2.29773230       0.83677029
H       -0.29815785       0.86415199       1.83890112
H        1.05579502       0.46190408      -1.69615939
H        0.88519784      -1.98668707      -1.38629230
H        0.59484596      -1.76485977       0.39881352
H        2.67547583      -0.92736754       0.99357926
