11
Frame=0 idx=004890 GeodesicLength=0.0 rxn_smarts="[O:1]([C:2]1([H:7])[C:3]([H:8])([H:9])[O:4][C:5]1([H:10])[H:11])[H:6]>>[C:2]1([H:7])=[C:5]([H:10])[O:4][C:3]1([H:8])[H:9].[O:1]([H:6])[H:11]"
O        1.37602548      -1.14122985      -0.07045300
C       -0.06530644      -0.17366869       0.67659763
C       -0.14521056       1.19040450       0.06036401
O       -1.02066717       0.70711308      -0.96394519
C       -0.94778168      -0.60046117      -0.34894756
H        2.11108189      -0.65791205      -0.46809675
H        0.12861072      -0.47320030       1.69461518
H       -0.66501600       1.88904468       0.72446759
H        0.76929894       1.64698993      -0.32180605
H       -1.84655843      -1.20126767      -0.29615288
H        0.30552325      -1.18581246      -0.68664299
11
Frame=1 idx=004890 GeodesicLength=0.06677114002418898 rxn_smarts="[O:1]([C:2]1([H:7])[C:3]([H:8])([H:9])[O:4][C:5]1([H:10])[H:11])[H:6]>>[C:2]1([H:7])=[C:5]([H:10])[O:4][C:3]1([H:8])[H:9].[O:1]([H:6])[H:11]"
O        1.38959415      -1.14042388      -0.06948374
C       -0.06486816      -0.17415217       0.68423189
C       -0.14213340       1.19034585       0.06637468
O       -1.00085761       0.69967185      -0.97018589
C       -0.94484235      -0.60113204      -0.34487618
H        2.08836935      -0.63350549      -0.50159549
H        0.10672553      -0.46984190       1.70734980
H       -0.66958019       1.89485291       0.71765888
H        0.77829418       1.64274001      -0.30715995
H       -1.84948610      -1.19376015      -0.29431349
H        0.30878460      -1.21479497      -0.68800051
11
Frame=2 idx=004890 GeodesicLength=0.13313868521934993 rxn_smarts="[O:1]([C:2]1([H:7])[C:3]([H:8])([H:9])[O:4][C:5]1([H:10])[H:11])[H:6]>>[C:2]1([H:7])=[C:5]([H:10])[O:4][C:3]1([H:8])[H:9].[O:1]([H:6])[H:11]"
O        1.40342151      -1.13899310      -0.06965122
C       -0.06414571      -0.17442887       0.69179939
C       -0.13930321       1.19030793       0.07241319
O       -0.98150157       0.69224563      -0.97552853
C       -0.94146613      -0.60164793      -0.34077287
H        2.06473477      -0.61075906      -0.53357035
H        0.08485509      -0.46605943       1.71942486
H       -0.67403078       1.90054139       0.71071601
H        0.78670123       1.63845378      -0.29263291
H       -1.85164141      -1.18618300      -0.29259303
H        0.31237622      -1.24347733      -0.68960454
11
Frame=3 idx=004890 GeodesicLength=0.1996288259900102 rxn_smarts="[O:1]([C:2]1([H:7])[C:3]([H:8])([H:9])[O:4][C:5]1([H:10])[H:11])[H:6]>>[C:2]1([H:7])=[C:5]([H:10])[O:4][C:3]1([H:8])[H:9].[O:1]([H:6])[H:11]"
O        1.41738678      -1.13695195      -0.07076233
C       -0.06329016      -0.17449841       0.69956593
C       -0.13661007       1.19052342       0.07851845
O       -0.96260214       0.68489379      -0.98018600
C       -0.93772283      -0.60224785      -0.33671160
H        2.04035142      -0.58975826      -0.56456633
H        0.06267066      -0.46179620       1.73141657
H       -0.67816894       1.90645411       0.70393113
H        0.79475723       1.63449150      -0.27834846
H       -1.85309459      -1.17917017      -0.29116471
H        0.31632263      -1.27193997      -0.69169265
11
Frame=4 idx=004890 GeodesicLength=0.2660963810164008 rxn_smarts="[O:1]([C:2]1([H:7])[C:3]([H:8])([H:9])[O:4][C:5]1([H:10])[H:11])[H:6]>>[C:2]1([H:7])=[C:5]([H:10])[O:4][C:3]1([H:8])[H:9].[O:1]([H:6])[H:11]"
O        1.43144581      -1.13448742      -0.07291657
C       -0.06226280      -0.17441364       0.70742973
C       -0.13403826       1.19090344       0.08465689
O       -0.94422766       0.67764037      -0.98405869
C       -0.93364094      -0.60289476      -0.33261665
H        2.01532966      -0.57017561      -0.59420794
H        0.04016841      -0.45708508       1.74309283
H       -0.68195398       1.91252698       0.69720393
H        0.80245406       1.63068518      -0.26436159
H       -1.85388333      -1.17258420      -0.28985892
H        0.32060903      -1.30011527      -0.69436302
11
Frame=5 idx=004890 GeodesicLength=0.3327123482509 rxn_smarts="[O:1]([C:2]1([H:7])[C:3]([H:8])([H:9])[O:4][C:5]1([H:10])[H:11])[H:6]>>[C:2]1([H:7])=[C:5]([H:10])[O:4][C:3]1([H:8])[H:9].[O:1]([H:6])[H:11]"
O        1.44560479      -1.13165905      -0.07605582
C       -0.06109993      -0.17416932       0.71544458
C       -0.13157358       1.19144976       0.09083805
O       -0.92643132       0.67049269      -0.98719440
C       -0.92926848      -0.60361020      -0.32847894
H        1.98981717      -0.55193922      -0.62257737
H        0.01727663      -0.45189582       1.75452455
H       -0.68536458       1.91881326       0.69057933
H        0.80985504       1.62699777      -0.25069134
H       -1.85407771      -1.16647610      -0.28867499
H        0.32526197      -1.32800379      -0.69771365
11
Frame=6 idx=004890 GeodesicLength=0.39925543124661467 rxn_smarts="[O:1]([C:2]1([H:7])[C:3]([H:8])([H:9])[O:4][C:5]1([H:10])[H:11])[H:6]>>[C:2]1([H:7])=[C:5]([H:10])[O:4][C:3]1([H:8])[H:9].[O:1]([H:6])[H:11]"
O        1.45981636      -1.12841691      -0.08006148
C       -0.05982158      -0.17376911       0.72359455
C       -0.12920673       1.19206988       0.09705210
O       -0.90928557       0.66344747      -0.98954310
C       -0.92462279      -0.60435030      -0.32426200
H        1.96388358      -0.53501530      -0.64969773
H       -0.00603590      -0.44615916       1.76562128
H       -0.68833620       1.92518990       0.68403196
H        0.81696736       1.62326422      -0.23734013
H       -1.85365627      -1.16081116      -0.28760556
H        0.33029773      -1.35544953      -0.70178988
11
Frame=7 idx=004890 GeodesicLength=0.46581371895341733 rxn_smarts="[O:1]([C:2]1([H:7])[C:3]([H:8])([H:9])[O:4][C:5]1([H:10])[H:11])[H:6]>>[C:2]1([H:7])=[C:5]([H:10])[O:4][C:3]1([H:8])[H:9].[O:1]([H:6])[H:11]"
O        1.47401844      -1.12491912      -0.08497465
C       -0.05843181      -0.17324559       0.73190389
C       -0.12689866       1.19277476       0.10328361
O       -0.89282028       0.65651713      -0.99115732
C       -0.91975120      -0.60515977      -0.31993737
H        1.93765044      -0.51916021      -0.67536279
H       -0.02978275      -0.43991133       1.77640753
H       -0.69080819       1.93172699       0.67756066
H        0.82383536       1.61949526      -0.22439285
H       -1.85268587      -1.15565237      -0.28655408
H        0.33567451      -1.38246575      -0.70677662
11
Frame=8 idx=004890 GeodesicLength=0.5323962597945753 rxn_smarts="[O:1]([C:2]1([H:7])[C:3]([H:8])([H:9])[O:4][C:5]1([H:10])[H:11])[H:6]>>[C:2]1([H:7])=[C:5]([H:10])[O:4][C:3]1([H:8])[H:9].[O:1]([H:6])[H:11]"
O        1.48819875      -1.12117479      -0.09070200
C       -0.05697650      -0.17260222       0.74040241
C       -0.12464624       1.19356165       0.10953865
O       -0.87706003       0.64971592      -0.99204663
C       -0.91467284      -0.60604717      -0.31547889
H        1.91121864      -0.50438675      -0.69968315
H       -0.05403259      -0.43309892       1.78688679
H       -0.69276709       1.93844129       0.67119610
H        0.83048823       1.61566015      -0.21184897
H       -1.85117677      -1.15104345      -0.28550479
H        0.34142644      -1.40902572      -0.71275952
11
Frame=9 idx=004890 GeodesicLength=0.5990425797427313 rxn_smarts="[O:1]([C:2]1([H:7])[C:3]([H:8])([H:9])[O:4][C:5]1([H:10])[H:11])[H:6]>>[C:2]1([H:7])=[C:5]([H:10])[O:4][C:3]1([H:8])[H:9].[O:1]([H:6])[H:11]"
O        1.50233440      -1.11723059      -0.09720637
C       -0.05547653      -0.17184949       0.74912085
C       -0.12242785       1.19442519       0.11581876
O       -0.86200240       0.64303238      -0.99225409
C       -0.90941837      -0.60703588      -0.31086010
H        1.88466546      -0.49058696      -0.72265321
H       -0.07881141      -0.42570586       1.79706733
H       -0.69419373       1.94535364       0.66493456
H        0.83696842       1.61174872      -0.19971278
H       -1.84917771      -1.14701602      -0.28441062
H        0.34753971      -1.43513513      -0.71984434
11
Frame=10 idx=004890 GeodesicLength=0.6657132950738975 rxn_smarts="[O:1]([C:2]1([H:7])[C:3]([H:8])([H:9])[O:4][C:5]1([H:10])[H:11])[H:6]>>[C:2]1([H:7])=[C:5]([H:10])[O:4][C:3]1([H:8])[H:9].[O:1]([H:6])[H:11]"
O        1.51639465      -1.11313345      -0.10445888
C       -0.05393484      -0.17099257       0.75806256
C       -0.12022610       1.19531933       0.12211654
O       -0.84766184       0.63643625      -0.99179316
C       -0.90402005      -0.60812170      -0.30604337
H        1.85806607      -0.47761033      -0.74416563
H       -0.10409525      -0.41772511       1.80688938
H       -0.69506835       1.95242903       0.65872546
H        0.84329893       1.60769071      -0.18799316
H       -1.84673421      -1.14354368      -0.28320185
H        0.35398100      -1.46074848      -0.72813789
11
Frame=11 idx=004890 GeodesicLength=0.7323454975716565 rxn_smarts="[O:1]([C:2]1([H:7])[C:3]([H:8])([H:9])[O:4][C:5]1([H:10])[H:11])[H:6]>>[C:2]1([H:7])=[C:5]([H:10])[O:4][C:3]1([H:8])[H:9].[O:1]([H:6])[H:11]"
O        1.53037640      -1.10887948      -0.11232414
C       -0.05237059      -0.17003518       0.76724487
C       -0.11806386       1.19623627       0.12843412
O       -0.83407898       0.62995923      -0.99067743
C       -0.89847382      -0.60928011      -0.30102024
H        1.83143074      -0.46554242      -0.76431423
H       -0.12982456      -0.40910979       1.81631745
H       -0.69540794       1.95965548       0.65257607
H        0.84944510       1.60344296      -0.17665208
H       -1.84381025      -1.14060619      -0.28191271
H        0.36077776      -1.48584077      -0.73767167
11
Frame=12 idx=004890 GeodesicLength=0.7989637878787837 rxn_smarts="[O:1]([C:2]1([H:7])[C:3]([H:8])([H:9])[O:4][C:5]1([H:10])[H:11])[H:6]>>[C:2]1([H:7])=[C:5]([H:10])[O:4][C:3]1([H:8])[H:9].[O:1]([H:6])[H:11]"
O        1.54420361      -1.10452082      -0.12083189
C       -0.05088510      -0.16895288       0.77668744
C       -0.11590370       1.19714986       0.13475980
O       -0.82119418       0.62351883      -0.98890881
C       -0.89284311      -0.61055333      -0.29572465
H        1.80497926      -0.45417849      -0.78296662
H       -0.15605651      -0.39985382       1.82533897
H       -0.69517970       1.96703047       0.64647795
H        0.85550709       1.59897909      -0.16577508
H       -1.84051426      -1.13827635      -0.28039077
H        0.36788661      -1.51034256      -0.74866635
11
Frame=13 idx=004890 GeodesicLength=0.8655663862586799 rxn_smarts="[O:1]([C:2]1([H:7])[C:3]([H:8])([H:9])[O:4][C:5]1([H:10])[H:11])[H:6]>>[C:2]1([H:7])=[C:5]([H:10])[O:4][C:3]1([H:8])[H:9].[O:1]([H:6])[H:11]"
O        1.55786700      -1.10011975      -0.12986252
C       -0.04940848      -0.16777773       0.78644006
C       -0.11375260       1.19808592       0.14109344
O       -0.80903138       0.61715917      -0.98658732
C       -0.88709836      -0.61194218      -0.29017240
H        1.77858887      -0.44350718      -0.80015362
H       -0.18268491      -0.38998433       1.83399142
H       -0.69439150       1.97459417       0.64037278
H        0.86142362       1.59433394      -0.15528912
H       -1.83678798      -1.13653259      -0.27868307
H        0.37527571      -1.53430944      -0.76114963
11
Frame=14 idx=004890 GeodesicLength=0.9321882301028488 rxn_smarts="[O:1]([C:2]1([H:7])[C:3]([H:8])([H:9])[O:4][C:5]1([H:10])[H:11])[H:6]>>[C:2]1([H:7])=[C:5]([H:10])[O:4][C:3]1([H:8])[H:9].[O:1]([H:6])[H:11]"
O        1.57138209      -1.09565038      -0.13936658
C       -0.04803360      -0.16646876       0.79650262
C       -0.11161754       1.19902086       0.14744411
O       -0.79756477       0.61082477      -0.98367949
C       -0.88128307      -0.61344638      -0.28432268
H        1.75241037      -0.43354921      -0.81593820
H       -0.20970849      -0.37942916       1.84221272
H       -0.69308781       1.98231660       0.63427634
H        0.86725227       1.58945526      -0.14517606
H       -1.83271257      -1.13537577      -0.27674043
H        0.38296311      -1.55769783      -0.77521234
11
Frame=15 idx=004890 GeodesicLength=0.9988314427053216 rxn_smarts="[O:1]([C:2]1([H:7])[C:3]([H:8])([H:9])[O:4][C:5]1([H:10])[H:11])[H:6]>>[C:2]1([H:7])=[C:5]([H:10])[O:4][C:3]1([H:8])[H:9].[O:1]([H:6])[H:11]"
O        1.58470630      -1.09116567      -0.14927719
C       -0.04677460      -0.16502378       0.80691650
C       -0.10949492       1.19996883       0.15380470
O       -0.78677069       0.60450459      -0.98024446
C       -0.87539891      -0.61508522      -0.27815924
H        1.72645202      -0.42424292      -0.83029111
H       -0.23706525      -0.36821952       1.85003465
H       -0.69126779       1.99022979       0.62814031
H        0.87299049       1.58436391      -0.13542539
H       -1.82828726      -1.13482860      -0.27453475
H        0.39091062      -1.58050141      -0.79096403
11
Frame=16 idx=004890 GeodesicLength=1.065479077424097 rxn_smarts="[O:1]([C:2]1([H:7])[C:3]([H:8])([H:9])[O:4][C:5]1([H:10])[H:11])[H:6]>>[C:2]1([H:7])=[C:5]([H:10])[O:4][C:3]1([H:8])[H:9].[O:1]([H:6])[H:11]"
O        1.59781748      -1.08669099      -0.15952627
C       -0.04566125      -0.16342438       0.81769911
C       -0.10738950       1.20092076       0.16016825
O       -0.77663077       0.59817077      -0.97629953
C       -0.86945416      -0.61685990      -0.27165598
H        1.70075542      -0.41556545      -0.84319867
H       -0.26470040      -0.35635089       1.85744273
H       -0.68895037       1.99832026       0.62192552
H        0.87864212       1.57903958      -0.12602196
H       -1.82352504      -1.13488509      -0.27203012
H        0.39909647      -1.60267466      -0.80850308
