12
Frame=0 idx=002163 GeodesicLength=0.0 rxn_smarts="[O:1]=[C:2]([C:3]1([H:8])[C:4]([H:9])([H:10])[O:5][C:6]1([H:11])[H:12])[H:7]>>[O:1]([C:2][C:3]1([H:8])[C:4]([H:9])([H:10])[O:5][C:6]1([H:11])[H:12])[H:7]"
O        2.06639216      -0.07094933       0.85790232
C        1.23692166      -0.89967387       0.30508153
C        0.10598078      -0.34051286      -0.48308759
C       -1.25417323      -0.43758566       0.24465587
O       -1.37278909       0.98553833       0.28629127
C       -0.13945438       1.17220019      -0.42579305
H        2.22329074      -1.21722289       1.01123689
H        0.11460531      -0.79910321      -1.47189543
H       -2.05535327      -0.90510625      -0.33276063
H       -1.21994194      -0.87997341       1.24429287
H        0.58964427       1.73853777       0.15784608
H       -0.29512302       1.65385115      -1.39377017
12
Frame=1 idx=002163 GeodesicLength=0.041092611259549224 rxn_smarts="[O:1]=[C:2]([C:3]1([H:8])[C:4]([H:9])([H:10])[O:5][C:6]1([H:11])[H:12])[H:7]>>[O:1]([C:2][C:3]1([H:8])[C:4]([H:9])([H:10])[O:5][C:6]1([H:11])[H:12])[H:7]"
O        2.11069407      -0.07924396       0.78982818
C        1.23826518      -0.89999718       0.30225539
C        0.10691405      -0.33739620      -0.48243294
C       -1.25316633      -0.44022241       0.24348861
O       -1.37893788       0.98265330       0.28495955
C       -0.14338800       1.17479795      -0.42125592
H        2.18763415      -1.21787875       1.06910705
H        0.11856110      -0.79163898      -1.47338812
H       -2.05214677      -0.91077941      -0.33472487
H       -1.21922893      -0.88198786       1.24348060
H        0.58089529       1.74265843       0.16719135
H       -0.29609593       1.65903507      -1.38850889
12
Frame=2 idx=002163 GeodesicLength=0.08157501953160251 rxn_smarts="[O:1]=[C:2]([C:3]1([H:8])[C:4]([H:9])([H:10])[O:5][C:6]1([H:11])[H:12])[H:7]>>[O:1]([C:2][C:3]1([H:8])[C:4]([H:9])([H:10])[O:5][C:6]1([H:11])[H:12])[H:7]"
O        2.15125089      -0.09379463       0.72288869
C        1.23911257      -0.90156583       0.29903649
C        0.10757932      -0.33511725      -0.48187469
C       -1.25247504      -0.44282859       0.24222331
O       -1.38415417       0.97966895       0.28401767
C       -0.14617036       1.17653196      -0.41604277
H        2.15270556      -1.20638767       1.12407510
H        0.12200394      -0.78463341      -1.47500436
H       -2.04940914      -0.91578084      -0.33679447
H       -1.21903169      -0.88430030       1.24234253
H        0.57404058       1.74439538       0.17739924
H       -0.29545247       1.66381221      -1.38226674
12
Frame=3 idx=002163 GeodesicLength=0.12176223785227909 rxn_smarts="[O:1]=[C:2]([C:3]1([H:8])[C:4]([H:9])([H:10])[O:5][C:6]1([H:11])[H:12])[H:7]>>[O:1]([C:2][C:3]1([H:8])[C:4]([H:9])([H:10])[O:5][C:6]1([H:11])[H:12])[H:7]"
O        2.18695261      -0.11280405       0.65930617
C        1.23870861      -0.90443275       0.29821300
C        0.10783224      -0.33390348      -0.48032174
C       -1.25297182      -0.44517262       0.24063035
O       -1.38912261       0.97714206       0.28274943
C       -0.14809658       1.17754866      -0.41028827
H        2.12475393      -1.18597257       1.17145985
H        0.12552013      -0.77891135      -1.47553302
H       -2.04784006      -0.91959355      -0.34005271
H       -1.22129820      -0.88650744       1.24088632
H        0.56832076       1.74466053       0.18860597
H       -0.29275902       1.66794655      -1.37565535
12
Frame=4 idx=002163 GeodesicLength=0.16168865291691525 rxn_smarts="[O:1]=[C:2]([C:3]1([H:8])[C:4]([H:9])([H:10])[O:5][C:6]1([H:11])[H:12])[H:7]>>[O:1]([C:2][C:3]1([H:8])[C:4]([H:9])([H:10])[O:5][C:6]1([H:11])[H:12])[H:7]"
O        2.21855581      -0.13590497       0.59798923
C        1.23748472      -0.90816476       0.29892491
C        0.10782790      -0.33346173      -0.47812533
C       -1.25427159      -0.44735848       0.23876383
O       -1.39376891       0.97486648       0.28144026
C       -0.14933111       1.17797879      -0.40404511
H        2.10174567      -1.15796827       1.21358166
H        0.12912832      -0.77399770      -1.47534906
H       -2.04705237      -0.92247206      -0.34422202
H       -1.22525414      -0.88883980       1.23904584
H        0.56353205       1.74369470       0.20054893
H       -0.28859636       1.67162781      -1.36855314
12
Frame=5 idx=002163 GeodesicLength=0.20150780818424815 rxn_smarts="[O:1]=[C:2]([C:3]1([H:8])[C:4]([H:9])([H:10])[O:5][C:6]1([H:11])[H:12])[H:7]>>[O:1]([C:2][C:3]1([H:8])[C:4]([H:9])([H:10])[O:5][C:6]1([H:11])[H:12])[H:7]"
O        2.24616444      -0.16252192       0.54036687
C        1.23592860      -0.91244630       0.30019151
C        0.10769744      -0.33347331      -0.47570287
C       -1.25594277      -0.44944584       0.23676572
O       -1.39802523       0.97277603       0.28018200
C       -0.15006511       1.17808559      -0.39762556
H        2.08234236      -1.12437132       1.25108630
H        0.13266444      -0.76954875      -1.47490295
H       -2.04671233      -0.92483722      -0.34877167
H       -1.22989881      -0.89127154       1.23700925
H        0.55956169       1.74199142       0.21264849
H       -0.28371472       1.67506317      -1.36124707
12
Frame=6 idx=002163 GeodesicLength=0.2411469202787137 rxn_smarts="[O:1]=[C:2]([C:3]1([H:8])[C:4]([H:9])([H:10])[O:5][C:6]1([H:11])[H:12])[H:7]>>[O:1]([C:2][C:3]1([H:8])[C:4]([H:9])([H:10])[O:5][C:6]1([H:11])[H:12])[H:7]"
O        2.27001211      -0.19206464       0.48730289
C        1.23437769      -0.91718209       0.30115886
C        0.10759222      -0.33372058      -0.47336884
C       -1.25757826      -0.45146547       0.23476040
O       -1.40176455       0.97077331       0.27914255
C       -0.15041535       1.17797623      -0.39121444
H        2.06496645      -1.08649031       1.28447057
H        0.13606939      -0.76528231      -1.47452754
H       -2.04647699      -0.92692070      -0.35325388
H       -1.23441704      -0.89375655       1.23489164
H        0.55627916       1.73983618       0.22449510
H       -0.27864484       1.67829695      -1.35385732
12
Frame=7 idx=002163 GeodesicLength=0.2807982725117633 rxn_smarts="[O:1]=[C:2]([C:3]1([H:8])[C:4]([H:9])([H:10])[O:5][C:6]1([H:11])[H:12])[H:7]>>[O:1]([C:2][C:3]1([H:8])[C:4]([H:9])([H:10])[O:5][C:6]1([H:11])[H:12])[H:7]"
O        2.29082114      -0.22428704       0.43653769
C        1.23219020      -0.92213682       0.30374491
C        0.10738321      -0.33433947      -0.47037243
C       -1.25980177      -0.45334060       0.23251315
O       -1.40558678       0.96897077       0.27776008
C       -0.15048095       1.17758921      -0.38448615
H        2.05202620      -1.04468531       1.31300993
H        0.13984978      -0.76153541      -1.47337345
H       -2.04658793      -0.92853269      -0.35854412
H       -1.24032087      -0.89615850       1.23250401
H        0.55310955       1.73725354       0.23692342
H       -0.27260179       1.68120233      -1.34621703
12
Frame=8 idx=002163 GeodesicLength=0.3205670525036121 rxn_smarts="[O:1]=[C:2]([C:3]1([H:8])[C:4]([H:9])([H:10])[O:5][C:6]1([H:11])[H:12])[H:7]>>[O:1]([C:2][C:3]1([H:8])[C:4]([H:9])([H:10])[O:5][C:6]1([H:11])[H:12])[H:7]"
O        2.30881019      -0.25893355       0.38892724
C        1.22974901      -0.92730505       0.30699698
C        0.10718021      -0.33515198      -0.46710575
C       -1.26224445      -0.45514978       0.23015076
O       -1.40929418       0.96727405       0.27627495
C       -0.15031467       1.17705207      -0.37762976
H        2.04190110      -0.99967811       1.33741837
H        0.14380577      -0.75802498      -1.47189687
H       -2.04684119      -0.92991445      -0.36418201
H       -1.24676425      -0.89856738       1.22997633
H        0.55013240       1.73446346       0.24952060
H       -0.26611992       1.68393569      -1.33845084
12
Frame=9 idx=002163 GeodesicLength=0.36020485357284754 rxn_smarts="[O:1]=[C:2]([C:3]1([H:8])[C:4]([H:9])([H:10])[O:5][C:6]1([H:11])[H:12])[H:7]>>[O:1]([C:2][C:3]1([H:8])[C:4]([H:9])([H:10])[O:5][C:6]1([H:11])[H:12])[H:7]"
O        2.32398323      -0.29513156       0.34566923
C        1.22729400      -0.93257457       0.31032048
C        0.10707977      -0.33596957      -0.46377466
C       -1.26461544      -0.45686058       0.22780327
O       -1.41287977       0.96567718       0.27464027
C       -0.15005147       1.17648998      -0.37088254
H        2.03385185      -0.95330701       1.35762086
H        0.14790118      -0.75458796      -1.47028437
H       -2.04698748      -0.93129659      -0.36972411
H       -1.25312717      -0.90073354       1.22750526
H        0.54714324       1.73178867       0.26190799
H       -0.25959193       1.68650554      -1.33080168
12
Frame=10 idx=002163 GeodesicLength=0.4000343534051191 rxn_smarts="[O:1]=[C:2]([C:3]1([H:8])[C:4]([H:9])([H:10])[O:5][C:6]1([H:11])[H:12])[H:7]>>[O:1]([C:2][C:3]1([H:8])[C:4]([H:9])([H:10])[O:5][C:6]1([H:11])[H:12])[H:7]"
O        2.33687113      -0.33357489       0.30429025
C        1.22435445      -0.93772140       0.31520696
C        0.10696526      -0.33694304      -0.45980575
C       -1.26741955      -0.45846854       0.22522703
O       -1.41675756       0.96420738       0.27249292
C       -0.14970678       1.17581198      -0.36384523
H        2.02951935      -0.90449036       1.37351528
H        0.15248200      -0.75147081      -1.46790281
H       -2.04719779      -0.93251914      -0.37598965
H       -1.26063075      -0.90274123       1.22481029
H        0.54382725       1.72903120       0.27492249
H       -0.25230699       1.68887886      -1.32292177
12
Frame=11 idx=002163 GeodesicLength=0.43989033592036436 rxn_smarts="[O:1]=[C:2]([C:3]1([H:8])[C:4]([H:9])([H:10])[O:5][C:6]1([H:11])[H:12])[H:7]>>[O:1]([C:2][C:3]1([H:8])[C:4]([H:9])([H:10])[O:5][C:6]1([H:11])[H:12])[H:7]"
O        2.34748764      -0.37345338       0.26626740
C        1.22128722      -0.94274788       0.32071032
C        0.10694528      -0.33788386      -0.45557746
C       -1.27028574      -0.45999120       0.22259149
O       -1.42071993       0.96282833       0.27005431
C       -0.14936141       1.17515459      -0.35682178
H        2.02763030      -0.85479938       1.38540199
H        0.15737852      -0.74843799      -1.46517208
H       -2.04730171      -0.93376564      -0.38242415
H       -1.26841421      -0.90453904       1.22209963
H        0.54023227       1.72650517       0.28796664
H       -0.24487823       1.69113028      -1.31509631
12
Frame=12 idx=002163 GeodesicLength=0.4797451025752006 rxn_smarts="[O:1]=[C:2]([C:3]1([H:8])[C:4]([H:9])([H:10])[O:5][C:6]1([H:11])[H:12])[H:7]>>[O:1]([C:2][C:3]1([H:8])[C:4]([H:9])([H:10])[O:5][C:6]1([H:11])[H:12])[H:7]"
O        2.35604428      -0.41464643       0.23160830
C        1.21814330      -0.94766990       0.32662926
C        0.10705420      -0.33874559      -0.45116512
C       -1.27310359      -0.46144579       0.21991963
O       -1.42471623       0.96151104       0.26738929
C       -0.14904080       1.17454587      -0.34983030
H        2.02763055      -0.80446657       1.39349624
H        0.16257874      -0.74541816      -1.46216700
H       -2.04720953      -0.93508384      -0.38892441
H       -1.27627129      -0.90614118       1.21937875
H        0.53633230       1.72426401       0.30097625
H       -0.23744194       1.69329654      -1.30731089
12
Frame=13 idx=002163 GeodesicLength=0.5196297934991724 rxn_smarts="[O:1]=[C:2]([C:3]1([H:8])[C:4]([H:9])([H:10])[O:5][C:6]1([H:11])[H:12])[H:7]>>[O:1]([C:2][C:3]1([H:8])[C:4]([H:9])([H:10])[O:5][C:6]1([H:11])[H:12])[H:7]"
O        2.36269913      -0.45694847       0.19995709
C        1.21490251      -0.95235071       0.33323618
C        0.10727498      -0.33950593      -0.44645534
C       -1.27597742      -0.46282204       0.21718711
O       -1.42892928       0.96026628       0.26431268
C       -0.14880674       1.17401509      -0.34284662
H        2.02996909      -0.75398603       1.39779521
H        0.16816221      -0.74242832      -1.45876610
H       -2.04694713      -0.93652129      -0.39559801
H       -1.28441650      -0.90747305       1.21667155
H        0.53194559       1.72236624       0.31409656
H       -0.22987645       1.69538824      -1.29959032
12
Frame=14 idx=002163 GeodesicLength=0.55949157527255 rxn_smarts="[O:1]=[C:2]([C:3]1([H:8])[C:4]([H:9])([H:10])[O:5][C:6]1([H:11])[H:12])[H:7]>>[O:1]([C:2][C:3]1([H:8])[C:4]([H:9])([H:10])[O:5][C:6]1([H:11])[H:12])[H:7]"
O        2.36735711      -0.50048284       0.17050858
C        1.21142305      -0.95653180       0.34115675
C        0.10756789      -0.34019381      -0.44116056
C       -1.27906542      -0.46409679       0.21429048
O       -1.43354780       0.95911692       0.26057120
C       -0.14871488       1.17355099      -0.33572810
H        2.03553277      -0.70338591       1.39806800
H        0.17428266      -0.73959706      -1.45460878
H       -2.04644994      -0.93806588      -0.40277652
H       -1.29328673      -0.90847715       1.21384410
H        0.52679762       1.72081643       0.32764143
H       -0.22189633       1.69734690      -1.29180658
12
Frame=15 idx=002163 GeodesicLength=0.5994131518631093 rxn_smarts="[O:1]=[C:2]([C:3]1([H:8])[C:4]([H:9])([H:10])[O:5][C:6]1([H:11])[H:12])[H:7]>>[O:1]([C:2][C:3]1([H:8])[C:4]([H:9])([H:10])[O:5][C:6]1([H:11])[H:12])[H:7]"
O        2.37035628      -0.54519683       0.14404466
C        1.20789813      -0.96044677       0.34954718
C        0.10801167      -0.34071881      -0.43566953
C       -1.28207091      -0.46533309       0.21134547
O       -1.43828960       0.95798571       0.25653235
C       -0.14873227       1.17320440      -0.32860867
H        2.04271726      -0.65268693       1.39476579
H        0.18077309      -0.73668668      -1.45016091
H       -2.04567451      -0.93979430      -0.41002317
H       -1.30220067      -0.90929592       1.21099773
H        0.52116385       1.71965031       0.34124048
H       -0.21395232       1.69931891      -1.28401139
12
Frame=16 idx=002163 GeodesicLength=0.6393295060615928 rxn_smarts="[O:1]=[C:2]([C:3]1([H:8])[C:4]([H:9])([H:10])[O:5][C:6]1([H:11])[H:12])[H:7]>>[O:1]([C:2][C:3]1([H:8])[C:4]([H:9])([H:10])[O:5][C:6]1([H:11])[H:12])[H:7]"
O        2.37166544      -0.59086569       0.12028236
C        1.20432243      -0.96394021       0.35868729
C        0.10859173      -0.34106954      -0.42984374
C       -1.28508395      -0.46651354       0.20832217
O       -1.44330972       0.95688996       0.25201134
C       -0.14891774       1.17299698      -0.32145951
H        2.05204739      -0.60237295       1.38778752
H        0.18771584      -0.73374127      -1.44525807
H       -2.04460193      -0.94173658      -0.41746664
H       -1.31136221      -0.90984991       1.20813091
H        0.51485368       1.71891758       0.35502408
H       -0.20592097       1.70128518      -1.27621772
