15
Frame=0 idx=001595 GeodesicLength=0.0 rxn_smarts="[C:1]([C:2]([C@@:3]([C:4]([H:13])([H:14])[H:15])([C:5]#[N:6])[H:12])([H:10])[H:11])([H:7])([H:8])[H:9]>>[C:1]1([H:7])([H:9])[C:2]([H:10])([H:11])[C@:3]([C:4]([H:13])([H:14])[H:15])([H:12])[C:5][N:6]1[H:8]"
C       -1.83450210       0.17044633       0.12307813
C       -0.64186656      -0.64292430      -0.17581580
C        0.69755312      -0.02531343       0.36952221
C        1.93776685      -0.56777753      -0.32294745
C        0.52518086       1.45958021       0.30034987
N       -0.57300634       1.95056123       0.22644008
H       -2.26849979       0.07127125       1.11575023
H       -1.55645377       2.10023530       0.04869190
H       -2.58222037       0.25454134      -0.66152676
H       -0.69816888      -1.63387260       0.28669828
H       -0.52931990      -0.78686325      -1.25344205
H        0.77129469      -0.22624935       1.44585746
H        1.97882367      -1.65484143      -0.23340424
H        1.92856262      -0.31506277      -1.38521298
H        2.84485591      -0.15373106       0.11596116
15
Frame=1 idx=001595 GeodesicLength=0.09309873374441166 rxn_smarts="[C:1]([C:2]([C@@:3]([C:4]([H:13])([H:14])[H:15])([C:5]#[N:6])[H:12])([H:10])[H:11])([H:7])([H:8])[H:9]>>[C:1]1([H:7])([H:9])[C:2]([H:10])([H:11])[C@:3]([C:4]([H:13])([H:14])[H:15])([H:12])[C:5][N:6]1[H:8]"
C       -1.82871025       0.18439970       0.12300229
C       -0.64082373      -0.64044658      -0.17965648
C        0.69630488      -0.02607401       0.36920440
C        1.93833278      -0.56906257      -0.31996758
C        0.53120765       1.45945131       0.29850304
N       -0.56293650       1.95772166       0.20520211
H       -2.25806488       0.07652827       1.11729169
H       -1.57740656       2.07701624       0.06695127
H       -2.58602329       0.24860390      -0.65464805
H       -0.70425118      -1.63306950       0.27763728
H       -0.52936525      -0.78039729      -1.25793023
H        0.76644937      -0.22737414       1.44569840
H        1.97952798      -1.65599567      -0.22876153
H        1.93147206      -0.31769521      -1.38257725
H        2.84428690      -0.15360610       0.12005066
15
Frame=2 idx=001595 GeodesicLength=0.1860985542480339 rxn_smarts="[C:1]([C:2]([C@@:3]([C:4]([H:13])([H:14])[H:15])([C:5]#[N:6])[H:12])([H:10])[H:11])([H:7])([H:8])[H:9]>>[C:1]1([H:7])([H:9])[C:2]([H:10])([H:11])[C@:3]([C:4]([H:13])([H:14])[H:15])([H:12])[C:5][N:6]1[H:8]"
C       -1.82311315       0.19786831       0.12287317
C       -0.63987594      -0.63820320      -0.18345968
C        0.69487068      -0.02683308       0.36888810
C        1.93878222      -0.57014345      -0.31699472
C        0.53673962       1.45927900       0.29677355
N       -0.55321239       1.96432268       0.18351906
H       -2.24777011       0.08145569       1.11873003
H       -1.59653000       2.05461295       0.08528248
H       -2.58961088       0.24295570      -0.64750412
H       -0.71029597      -1.63240725       0.26866160
H       -0.52945922      -0.77424352      -1.26235228
H        0.76145805      -0.22849667       1.44552743
H        1.98027932      -1.65693692      -0.22413480
H        1.93420364      -0.32009551      -1.37993515
H        2.84353414      -0.15313473       0.12412533
15
Frame=3 idx=001595 GeodesicLength=0.2791044502659779 rxn_smarts="[C:1]([C:2]([C@@:3]([C:4]([H:13])([H:14])[H:15])([C:5]#[N:6])[H:12])([H:10])[H:11])([H:7])([H:8])[H:9]>>[C:1]1([H:7])([H:9])[C:2]([H:10])([H:11])[C@:3]([C:4]([H:13])([H:14])[H:15])([H:12])[C:5][N:6]1[H:8]"
C       -1.81768074       0.21090430       0.12274917
C       -0.63900694      -0.63615516      -0.18720151
C        0.69328609      -0.02759565       0.36858346
C        1.93912191      -0.57104477      -0.31405021
C        0.54183713       1.45906282       0.29514034
N       -0.54379925       1.97038885       0.16195646
H       -2.23762502       0.08604671       1.12009839
H       -1.61407920       2.03297205       0.10310111
H       -2.59296990       0.23759722      -0.64008639
H       -0.71629469      -1.63186171       0.25976304
H       -0.52960622      -0.76832834      -1.26668924
H        0.75638219      -0.22964115       1.44534615
H        1.98106369      -1.65769029      -0.21955486
H        1.93675262      -0.32228917      -1.37730477
H        2.84261833      -0.15236569       0.12814885
15
Frame=4 idx=001595 GeodesicLength=0.3721697843783744 rxn_smarts="[C:1]([C:2]([C@@:3]([C:4]([H:13])([H:14])[H:15])([C:5]#[N:6])[H:12])([H:10])[H:11])([H:7])([H:8])[H:9]>>[C:1]1([H:7])([H:9])[C:2]([H:10])([H:11])[C@:3]([C:4]([H:13])([H:14])[H:15])([H:12])[C:5][N:6]1[H:8]"
C       -1.81238516       0.22355729       0.12266823
C       -0.63820048      -0.63426592      -0.19087593
C        0.69158866      -0.02837087       0.36829769
C        1.93937056      -0.57179984      -0.31114362
C        0.54657746       1.45879918       0.29359298
N       -0.53463781       1.97596948       0.14084264
H       -2.22760826       0.09032763       1.12143377
H       -1.63040285       2.01207199       0.12005500
H       -2.59610793       0.23249627      -0.63238045
H       -0.72224637      -1.63141253       0.25091937
H       -0.52980455      -0.76258140      -1.27094199
H        0.75126873      -0.23083462       1.44515932
H        1.98187487      -1.65829162      -0.21503840
H        1.93913844      -0.32430541      -1.37469575
H        2.84157470      -0.15135963       0.13210713
15
Frame=5 idx=001595 GeodesicLength=0.4653349559634199 rxn_smarts="[C:1]([C:2]([C@@:3]([C:4]([H:13])([H:14])[H:15])([C:5]#[N:6])[H:12])([H:10])[H:11])([H:7])([H:8])[H:9]>>[C:1]1([H:7])([H:9])[C:2]([H:10])([H:11])[C@:3]([C:4]([H:13])([H:14])[H:15])([H:12])[C:5][N:6]1[H:8]"
C       -1.80719738       0.23587495       0.12264910
C       -0.63744106      -0.63250253      -0.19449084
C        0.68980998      -0.02916749       0.36803408
C        1.93955134      -0.57244360      -0.30827423
C        0.55103632       1.45848287       0.29213436
N       -0.52565809       1.98112665       0.12027127
H       -2.21767572       0.09434638       1.12276364
H       -1.64587152       1.99188747       0.13603231
H       -2.59903865       0.22760828      -0.62437385
H       -0.72815526      -1.63103920       0.24210115
H       -0.53004602      -0.75694538      -1.27512400
H        0.74614546      -0.23209808       1.44497129
H        1.98270785      -1.65877784      -0.21059050
H        1.94139417      -0.32617312      -1.37210943
H        2.84043857      -0.15017934       0.13600565
15
Frame=6 idx=001595 GeodesicLength=0.5587151623544029 rxn_smarts="[C:1]([C:2]([C@@:3]([C:4]([H:13])([H:14])[H:15])([C:5]#[N:6])[H:12])([H:10])[H:11])([H:7])([H:8])[H:9]>>[C:1]1([H:7])([H:9])[C:2]([H:10])([H:11])[C@:3]([C:4]([H:13])([H:14])[H:15])([H:12])[C:5][N:6]1[H:8]"
C       -1.80208927       0.24789419       0.12268085
C       -0.63671134      -0.63084647      -0.19806602
C        0.68797112      -0.02998946       0.36778505
C        1.93968415      -0.57300970      -0.30542981
C        0.55526692       1.45811215       0.29074780
N       -0.51677666       1.98590719       0.10008792
H       -2.20778333       0.09814388       1.12408656
H       -1.66083772       1.97241505       0.15125018
H       -2.60175828       0.22291328      -0.61608688
H       -0.73402009      -1.63072574       0.23328359
H       -0.53031244      -0.75140024      -1.27925424
H        0.74101676      -0.23342722       1.44477733
H        1.98356105      -1.65918317      -0.20619053
H        1.94355690      -0.32793233      -1.36953511
H        2.83923224      -0.14887140       0.13986332
15
Frame=7 idx=001595 GeodesicLength=0.652359633632678 rxn_smarts="[C:1]([C:2]([C@@:3]([C:4]([H:13])([H:14])[H:15])([C:5]#[N:6])[H:12])([H:10])[H:11])([H:7])([H:8])[H:9]>>[C:1]1([H:7])([H:9])[C:2]([H:10])([H:11])[C@:3]([C:4]([H:13])([H:14])[H:15])([H:12])[C:5][N:6]1[H:8]"
C       -1.79703709       0.25965379       0.12274564
C       -0.63600020      -0.62928261      -0.20161673
C        0.68608618      -0.03083704       0.36754402
C        1.93978390      -0.57352135      -0.30259995
C        0.55930498       1.45768778       0.28942304
N       -0.50791966       1.99034474       0.08011196
H       -2.19790248       0.10174999       1.12538823
H       -1.67556252       1.95362035       0.16595758
H       -2.60426036       0.21840255      -0.60754829
H       -0.73984608      -1.63045474       0.22445591
H       -0.53058980      -0.74594052      -1.28334687
H        0.73588255      -0.23481294       1.44457429
H        1.98443324      -1.65953070      -0.20182009
H        1.94565524      -0.32961188      -1.36696471
H        2.83797210      -0.14746742       0.14369597
15
Frame=8 idx=001595 GeodesicLength=0.7460685743939567 rxn_smarts="[C:1]([C:2]([C@@:3]([C:4]([H:13])([H:14])[H:15])([C:5]#[N:6])[H:12])([H:10])[H:11])([H:7])([H:8])[H:9]>>[C:1]1([H:7])([H:9])[C:2]([H:10])([H:11])[C@:3]([C:4]([H:13])([H:14])[H:15])([H:12])[C:5][N:6]1[H:8]"
C       -1.79202570       0.27118600       0.12282522
C       -0.63530291      -0.62780411      -0.20514749
C        0.68416233      -0.03170652       0.36730499
C        1.93985801      -0.57398907      -0.29978038
C        0.56315979       1.45721573       0.28814060
N       -0.49903209       1.99444201       0.06022605
H       -2.18803491       0.10517432       1.12664146
H       -1.69017945       1.93546623       0.18036568
H       -2.60653009       0.21408404      -0.59880561
H       -0.74563916      -1.63021254       0.21562905
H       -0.53087165      -0.74057953      -1.28740391
H        0.73074383      -0.23623885       1.44435915
H        1.98532561      -1.65983037      -0.19746352
H        1.94770100      -0.33123160      -1.36439683
H        2.83666538      -0.14597574       0.14750554
15
Frame=9 idx=001595 GeodesicLength=0.8391287009003898 rxn_smarts="[C:1]([C:2]([C@@:3]([C:4]([H:13])([H:14])[H:15])([C:5]#[N:6])[H:12])([H:10])[H:11])([H:7])([H:8])[H:9]>>[C:1]1([H:7])([H:9])[C:2]([H:10])([H:11])[C@:3]([C:4]([H:13])([H:14])[H:15])([H:12])[C:5][N:6]1[H:8]"
C       -1.78705251       0.28249995       0.12291356
C       -0.63461878      -0.62640985      -0.20865758
C        0.68219885      -0.03259445       0.36706563
C        1.93990402      -0.57441168      -0.29697196
C        0.56683003       1.45669756       0.28688753
N       -0.49011882       1.99820709       0.04044308
H       -2.17819020       0.10841577       1.12783512
H       -1.70465691       1.91793756       0.19451341
H       -2.60857360       0.20994235      -0.58988315
H       -0.75139984      -1.62999534       0.20681048
H       -0.53115708      -0.73532454      -1.29142405
H        0.72560000      -0.23769530       1.44413053
H        1.98623650      -1.66007929      -0.19311584
H        1.94969038      -0.33279764      -1.36183407
H        2.83530796      -0.14439219       0.15128730
15
Frame=10 idx=001595 GeodesicLength=0.9322025068784564 rxn_smarts="[C:1]([C:2]([C@@:3]([C:4]([H:13])([H:14])[H:15])([C:5]#[N:6])[H:12])([H:10])[H:11])([H:7])([H:8])[H:9]>>[C:1]1([H:7])([H:9])[C:2]([H:10])([H:11])[C@:3]([C:4]([H:13])([H:14])[H:15])([H:12])[C:5][N:6]1[H:8]"
C       -1.78209184       0.29364596       0.12298398
C       -0.63393927      -0.62508286      -0.21216396
C        0.68020759      -0.03349437       0.36681637
C        1.93993558      -0.57480995      -0.29415905
C        0.57034499       1.45614377       0.28564771
N       -0.48107454       2.00165718       0.02046255
H       -2.16835279       0.11147485       1.12893212
H       -1.71927109       1.90095011       0.20879659
H       -2.61036244       0.20601641      -0.58082620
H       -0.75713580      -1.62978048       0.19799552
H       -0.53143298      -0.73018155      -1.29542117
H        0.72044489      -0.23915935       1.44388309
H        1.98716207      -1.66029800      -0.18874719
H        1.95165189      -0.33434067      -1.35926236
H        2.83391374      -0.14274104       0.15506201
15
Frame=11 idx=001595 GeodesicLength=1.0253934536337224 rxn_smarts="[C:1]([C:2]([C@@:3]([C:4]([H:13])([H:14])[H:15])([C:5]#[N:6])[H:12])([H:10])[H:11])([H:7])([H:8])[H:9]>>[C:1]1([H:7])([H:9])[C:2]([H:10])([H:11])[C@:3]([C:4]([H:13])([H:14])[H:15])([H:12])[C:5][N:6]1[H:8]"
C       -1.77712710       0.30466491       0.12302526
C       -0.63326175      -0.62381004      -0.21566919
C        0.67819464      -0.03439773       0.36655187
C        1.93995722      -0.57519166      -0.29133666
C        0.57371574       1.45556498       0.28440145
N       -0.47184008       2.00478935       0.00016414
H       -2.15853294       0.11433611       1.12990181
H       -1.73413587       1.88442308       0.22341667
H       -2.61187809       0.20233668      -0.57168006
H       -0.76285450      -1.62954897       0.18919435
H       -0.53169600      -0.72515765      -1.29939593
H        0.71527889      -0.24060845       1.44361435
H        1.98809860      -1.66049307      -0.18433992
H        1.95359395      -0.33587914      -1.35667951
H        2.83248729      -0.14102840       0.15883135
15
Frame=12 idx=001595 GeodesicLength=1.1186680075714488 rxn_smarts="[C:1]([C:2]([C@@:3]([C:4]([H:13])([H:14])[H:15])([C:5]#[N:6])[H:12])([H:10])[H:11])([H:7])([H:8])[H:9]>>[C:1]1([H:7])([H:9])[C:2]([H:10])([H:11])[C@:3]([C:4]([H:13])([H:14])[H:15])([H:12])[C:5][N:6]1[H:8]"
C       -1.77214618       0.31558997       0.12303506
C       -0.63258536      -0.62257892      -0.21917497
C        0.67616397      -0.03529647       0.36626906
C        1.93997087      -0.57556167      -0.28849987
C        0.57695260       1.45497058       0.28313580
N       -0.46237380       2.00760578      -0.02055476
H       -2.14874238       0.11697201       1.13072036
H       -1.74932053       1.86828857       0.23852590
H       -2.61310589       0.19892707      -0.56247765
H       -0.76856138      -1.62928574       0.18041143
H       -0.53194653      -0.72025371      -1.30334946
H        0.71010122      -0.24202429       1.44332337
H        1.98904083      -1.66066846      -0.17988018
H        1.95552142      -0.33742584      -1.35408205
H        2.83103114      -0.13925887       0.16259797
15
Frame=13 idx=001595 GeodesicLength=1.212010371434519 rxn_smarts="[C:1]([C:2]([C@@:3]([C:4]([H:13])([H:14])[H:15])([C:5]#[N:6])[H:12])([H:10])[H:11])([H:7])([H:8])[H:9]>>[C:1]1([H:7])([H:9])[C:2]([H:10])([H:11])[C@:3]([C:4]([H:13])([H:14])[H:15])([H:12])[C:5][N:6]1[H:8]"
C       -1.76713648       0.32645639       0.12301105
C       -0.63191018      -0.62137743      -0.22267973
C        0.67411960      -0.03618161       0.36596486
C        1.93997814      -0.57592325      -0.28564582
C        0.58006127       1.45437154       0.28183275
N       -0.45262783       2.01009645      -0.04177118
H       -2.13899895       0.11935328       1.13136154
H       -1.76489197       1.85247178       0.25426209
H       -2.61402733       0.19582172      -0.55325923
H       -0.77426292      -1.62897492       0.17165796
H       -0.53218615      -0.71547469      -1.30727969
H        0.70491401      -0.24338621       1.44300937
H        1.98998446      -1.66082648      -0.17535463
H        1.95743669      -0.33899319      -1.35146934
H        2.82954763      -0.13743338       0.16635997
15
Frame=14 idx=001595 GeodesicLength=1.3054006492873285 rxn_smarts="[C:1]([C:2]([C@@:3]([C:4]([H:13])([H:14])[H:15])([C:5]#[N:6])[H:12])([H:10])[H:11])([H:7])([H:8])[H:9]>>[C:1]1([H:7])([H:9])[C:2]([H:10])([H:11])[C@:3]([C:4]([H:13])([H:14])[H:15])([H:12])[C:5][N:6]1[H:8]"
C       -1.76208572       0.33730206       0.12295885
C       -0.63123686      -0.62018920      -0.22618284
C        0.67206550      -0.03704297       0.36563741
C        1.93997970      -0.57628047      -0.28277010
C        0.58305307       1.45377951       0.28047911
N       -0.44256089       2.01226018      -0.06357419
H       -2.12931908       0.12144079       1.13180224
H       -1.78090842       1.83688829       0.27075134
H       -2.61462458       0.19305005      -0.54405607
H       -0.77996542      -1.62859857       0.16293794
H       -0.53241845      -0.71081572      -1.31118601
H        0.69971772      -0.24467383       1.44267248
H        1.99092162      -1.66097033      -0.17075040
H        1.95934277      -0.34059296      -1.34883851
H        2.82803902      -0.13555681       0.17011878
15
Frame=15 idx=001595 GeodesicLength=1.3987973471841568 rxn_smarts="[C:1]([C:2]([C@@:3]([C:4]([H:13])([H:14])[H:15])([C:5]#[N:6])[H:12])([H:10])[H:11])([H:7])([H:8])[H:9]>>[C:1]1([H:7])([H:9])[C:2]([H:10])([H:11])[C@:3]([C:4]([H:13])([H:14])[H:15])([H:12])[C:5][N:6]1[H:8]"
C       -1.75698157       0.34816550       0.12288784
C       -0.63056693      -0.61899776      -0.22968098
C        0.67000550      -0.03786987       0.36528547
C        1.93997555      -0.57663585      -0.27986969
C        0.58593625       1.45320698       0.27906079
N       -0.43212753       2.01408700      -0.08603557
H       -2.11972345       0.12319052       1.13201892
H       -1.79742223       1.82145232       0.28810078
H       -2.61487811       0.19064750      -0.53490312
H       -0.78567552      -1.62813863       0.15425884
H       -0.53264891      -0.70627309      -1.31506539
H        0.69451502      -0.24586589       1.44231353
H        1.99184475      -1.66110169      -0.16605578
H        1.96123994      -0.34223554      -1.34618825
H        2.82650724      -0.13363150       0.17387259
15
Frame=16 idx=001595 GeodesicLength=1.4921318522234097 rxn_smarts="[C:1]([C:2]([C@@:3]([C:4]([H:13])([H:14])[H:15])([C:5]#[N:6])[H:12])([H:10])[H:11])([H:7])([H:8])[H:9]>>[C:1]1([H:7])([H:9])[C:2]([H:10])([H:11])[C@:3]([C:4]([H:13])([H:14])[H:15])([H:12])[C:5][N:6]1[H:8]"
C       -1.75181187       0.35908561       0.12281261
C       -0.62990246      -0.61778526      -0.23316996
C        0.66794345      -0.03865096       0.36490840
C        1.93996500      -0.57699194      -0.27694160
C        0.58871977       1.45266681       0.27756271
N       -0.42128449       2.01556774      -0.10922116
H       -2.11023439       0.12455208       1.13198913
H       -1.81448032       1.80607481       0.30640494
H       -2.61476616       0.18865169      -0.52583472
H       -0.79139948      -1.62757639       0.14562706
H       -0.53288470      -0.70184007      -1.31891421
H        0.68930907      -0.24694036       1.44193390
H        1.99274527      -1.66122203      -0.16125866
H        1.96312729      -0.34393192      -1.34351727
H        2.82495402      -0.13165979       0.17761883
