12
Frame=0 idx=005629 GeodesicLength=0.0 rxn_smarts="[C:1]1([H:7])([H:8])[C@@:2]2([H:9])[C@@:3]3([H:10])[O:4][C@:5]1([H:11])[C@@:6]23[H:12]>>[C:1]1([H:7])([H:8])[C@@:2]2([H:9])[C@:3]([O:4][H:11])([H:10])[C@@:6]2([H:12])[C:5]1"
C        1.19465810      -0.37299834      -0.39969702
C        0.35312536       0.88509459      -0.15950427
C       -1.08331783       0.41178274      -0.21754947
O       -1.31760008      -0.83008663      -0.81412048
C        0.19875362      -1.12283518       0.44945355
C       -0.29072335       0.19571928       1.02805680
H        2.12138254      -0.29951201       0.17741408
H        1.39731887      -0.74047472      -1.40553175
H        0.64048531       1.92056740      -0.28987599
H       -1.87671485       1.14423719      -0.31884465
H       -0.81202130      -1.66967157      -0.09246216
H       -0.52534635       0.47817721       2.04266140
12
Frame=1 idx=005629 GeodesicLength=0.061032308186990514 rxn_smarts="[C:1]1([H:7])([H:8])[C@@:2]2([H:9])[C@@:3]3([H:10])[O:4][C@:5]1([H:11])[C@@:6]23[H:12]>>[C:1]1([H:7])([H:8])[C@@:2]2([H:9])[C@:3]([O:4][H:11])([H:10])[C@@:6]2([H:12])[C:5]1"
C        1.19800370      -0.37154047      -0.40095318
C        0.35545526       0.88272866      -0.15831756
C       -1.08170585       0.41359440      -0.22044973
O       -1.30941201      -0.83163298      -0.81392107
C        0.20390662      -1.11484987       0.45626393
C       -0.29814024       0.19713461       1.03095454
H        2.13118165      -0.29968444       0.16481033
H        1.38177135      -0.73816081      -1.41065109
H        0.64620585       1.91838301      -0.27768104
H       -1.87467366       1.14577019      -0.32495242
H       -0.81580789      -1.68384956      -0.08900742
H       -0.53678477       0.48210726       2.04390471
12
Frame=2 idx=005629 GeodesicLength=0.12206692478868751 rxn_smarts="[C:1]1([H:7])([H:8])[C@@:2]2([H:9])[C@@:3]3([H:10])[O:4][C@:5]1([H:11])[C@@:6]23[H:12]>>[C:1]1([H:7])([H:8])[C@@:2]2([H:9])[C@:3]([O:4][H:11])([H:10])[C@@:6]2([H:12])[C:5]1"
C        1.20134652      -0.37004922      -0.40228898
C        0.35780563       0.88041160      -0.15708379
C       -1.08005097       0.41544010      -0.22336363
O       -1.30128282      -0.83320734      -0.81348286
C        0.20914298      -1.10672650       0.46309327
C       -0.30560613       0.19854875       1.03379938
H        2.14092772      -0.29989154       0.15192081
H        1.36634960      -0.73584498      -1.41545766
H        0.65190022       1.91613661      -0.26542197
H       -1.87257462       1.14733807      -0.33108503
H       -0.81967822      -1.69816482      -0.08570602
H       -0.54827992       0.48600928       2.04507649
12
Frame=3 idx=005629 GeodesicLength=0.18310002595448616 rxn_smarts="[C:1]1([H:7])([H:8])[C@@:2]2([H:9])[C@@:3]3([H:10])[O:4][C@:5]1([H:11])[C@@:6]23[H:12]>>[C:1]1([H:7])([H:8])[C@@:2]2([H:9])[C@:3]([O:4][H:11])([H:10])[C@@:6]2([H:12])[C:5]1"
C        1.20468828      -0.36852368      -0.40369520
C        0.36017447       0.87814324      -0.15580610
C       -1.07835520       0.41731960      -0.22628592
O       -1.29320922      -0.83480166      -0.81281852
C        0.21446139      -1.09846420       0.46994162
C       -0.31311751       0.19995818       1.03659084
H        2.15060975      -0.30012676       0.13876499
H        1.35107375      -0.73352982      -1.41994880
H        0.65756038       1.91382740      -0.25312303
H       -1.87042425       1.14893718      -0.33722608
H       -0.82365515      -1.71262492      -0.08257356
H       -0.55980669       0.48988544       2.04617976
12
Frame=4 idx=005629 GeodesicLength=0.24413661379075646 rxn_smarts="[C:1]1([H:7])([H:8])[C@@:2]2([H:9])[C@@:3]3([H:10])[O:4][C@:5]1([H:11])[C@@:6]23[H:12]>>[C:1]1([H:7])([H:8])[C@@:2]2([H:9])[C@:3]([O:4][H:11])([H:10])[C@@:6]2([H:12])[C:5]1"
C        1.20802904      -0.36696248      -0.40517115
C        0.36256324       0.87592682      -0.15448585
C       -1.07661555       0.41923077      -0.22921499
O       -1.28518444      -0.83641843      -0.81192674
C        0.21987124      -1.09005654       0.47681911
C       -0.32066936       0.20136509       1.03933000
H        2.16022830      -0.30038682       0.12533101
H        1.33593734      -0.73122225      -1.42413318
H        0.66319020       1.91146051      -0.24076869
H       -1.86821844       1.15056667      -0.34338060
H       -0.82775135      -1.72724156      -0.07961003
H       -0.57138023       0.49373820       2.04721112
12
Frame=5 idx=005629 GeodesicLength=0.305170065311471 rxn_smarts="[C:1]1([H:7])([H:8])[C@@:2]2([H:9])[C@@:3]3([H:10])[O:4][C@:5]1([H:11])[C@@:6]23[H:12]>>[C:1]1([H:7])([H:8])[C@@:2]2([H:9])[C@:3]([O:4][H:11])([H:10])[C@@:6]2([H:12])[C:5]1"
C        1.21137029      -0.36536342      -0.40670797
C        0.36497040       0.87376250      -0.15312781
C       -1.07483270       0.42117266      -0.23214527
O       -1.27720339      -0.83805000      -0.81081614
C        0.22537094      -1.08149933       0.48372682
C       -0.32825748       0.20276785       1.04201626
H        2.16977145      -0.30066915       0.11163729
H        1.32095969      -0.72892368      -1.42800834
H        0.66878175       1.90903501      -0.22838463
H       -1.86596203       1.15222144      -0.34953022
H       -0.83198843      -1.74202207      -0.07683300
H       -0.58298049       0.49756820       2.04817299
12
Frame=6 idx=005629 GeodesicLength=0.3661958023448666 rxn_smarts="[C:1]1([H:7])([H:8])[C@@:2]2([H:9])[C@@:3]3([H:10])[O:4][C@:5]1([H:11])[C@@:6]23[H:12]>>[C:1]1([H:7])([H:8])[C@@:2]2([H:9])[C@:3]([O:4][H:11])([H:10])[C@@:6]2([H:12])[C:5]1"
C        1.21471489      -0.36372533      -0.40829792
C        0.36739471       0.87165107      -0.15173872
C       -1.07300733       0.42314414      -0.23507232
O       -1.26926020      -0.83968986      -0.80949792
C        0.23096177      -1.07279036       0.49066576
C       -0.33587512       0.20416536       1.04464874
H        2.17923094      -0.30096538       0.09770059
H        1.30616036      -0.72664621      -1.43157162
H        0.67432417       1.90655452      -0.21598865
H       -1.86366138       1.15389634      -0.35565555
H       -0.83639447      -1.75697143      -0.07426004
H       -0.59458834       0.50137714       2.04906764
12
Frame=7 idx=005629 GeodesicLength=0.4272200952339978 rxn_smarts="[C:1]1([H:7])([H:8])[C@@:2]2([H:9])[C@@:3]3([H:10])[O:4][C@:5]1([H:11])[C@@:6]23[H:12]>>[C:1]1([H:7])([H:8])[C@@:2]2([H:9])[C@:3]([O:4][H:11])([H:10])[C@@:6]2([H:12])[C:5]1"
C        1.21806381      -0.36204690      -0.40993739
C        0.36983675       0.86959663      -0.15031905
C       -1.07113878       0.42514310      -0.23799336
O       -1.26135044      -0.84134201      -0.80796900
C        0.23665235      -1.06392420       0.49764501
C       -0.34351706       0.20555882       1.04722910
H        2.18860706      -0.30127229       0.08351542
H        1.29153294      -0.72439128      -1.43482985
H        0.67982310       1.90402457      -0.20357095
H       -1.86131574       1.15559068      -0.36176520
H       -0.84098561      -1.77210617      -0.07189808
H       -0.60620839       0.50516906       2.04989335
12
Frame=8 idx=005629 GeodesicLength=0.48823447090905464 rxn_smarts="[C:1]1([H:7])([H:8])[C@@:2]2([H:9])[C@@:3]3([H:10])[O:4][C@:5]1([H:11])[C@@:6]23[H:12]>>[C:1]1([H:7])([H:8])[C@@:2]2([H:9])[C@:3]([O:4][H:11])([H:10])[C@@:6]2([H:12])[C:5]1"
C        1.22141745      -0.36032477      -0.41161606
C        0.37229446       0.86759894      -0.14887582
C       -1.06922568       0.42716745      -0.24090274
O       -1.25346570      -0.84299836      -0.80623665
C        0.24244093      -1.05489604       0.50466739
C       -0.35117647       0.20694563       1.04975649
H        2.19788552      -0.30158367       0.06910362
H        1.27709193      -0.72216122      -1.43777822
H        0.68526907       1.90144468      -0.19115903
H       -1.85892729       1.15729662      -0.36784157
H       -0.84578791      -1.78743250      -0.06976972
H       -0.61781632       0.50894324       2.05065231
12
Frame=9 idx=005629 GeodesicLength=0.5492502962517181 rxn_smarts="[C:1]1([H:7])([H:8])[C@@:2]2([H:9])[C@@:3]3([H:10])[O:4][C@:5]1([H:11])[C@@:6]23[H:12]>>[C:1]1([H:7])([H:8])[C@@:2]2([H:9])[C@:3]([O:4][H:11])([H:10])[C@@:6]2([H:12])[C:5]1"
C        1.22478482      -0.35855917      -0.41332990
C        0.37476959       0.86566190      -0.14741270
C       -1.06727260       0.42921478      -0.24379607
O       -1.24560514      -0.84466284      -0.80430745
C        0.24833465      -1.04570268       0.51173610
C       -0.35884758       0.20832906       1.05223433
H        2.20707266      -0.30189361       0.05447285
H        1.26285111      -0.71996799      -1.44042353
H        0.69066068       1.89882412      -0.17875441
H       -1.85650863       1.15900996      -0.37387653
H       -0.85083434      -1.80296437      -0.06789353
H       -0.62940522       0.51271084       2.05135084
12
Frame=10 idx=005629 GeodesicLength=0.6102447123212763 rxn_smarts="[C:1]1([H:7])([H:8])[C@@:2]2([H:9])[C@@:3]3([H:10])[O:4][C@:5]1([H:11])[C@@:6]23[H:12]>>[C:1]1([H:7])([H:8])[C@@:2]2([H:9])[C@:3]([O:4][H:11])([H:10])[C@@:6]2([H:12])[C:5]1"
C        1.22815864      -0.35674547      -0.41506990
C        0.37725900       0.86378494      -0.14593738
C       -1.06526952       0.43128181      -0.24667002
O       -1.23775051      -0.84632762      -0.80217759
C        0.25433693      -1.03633821       0.51885649
C       -0.36651898       0.20970242       1.05465735
H        2.21614616      -0.30219420       0.03963444
H        1.24880961      -0.71780742      -1.44275999
H        0.69598659       1.89616162      -0.16636803
H       -1.85404709       1.16072215      -0.37986654
H       -0.85615173      -1.81870323      -0.06627662
H       -0.64095908       0.51646319       2.05197781
12
Frame=11 idx=005629 GeodesicLength=0.6712436039413174 rxn_smarts="[C:1]1([H:7])([H:8])[C@@:2]2([H:9])[C@@:3]3([H:10])[O:4][C@:5]1([H:11])[C@@:6]23[H:12]>>[C:1]1([H:7])([H:8])[C@@:2]2([H:9])[C@:3]([O:4][H:11])([H:10])[C@@:6]2([H:12])[C:5]1"
C        1.23155007      -0.35488334      -0.41683459
C        0.37976703       0.86197409      -0.14445066
C       -1.06322212       0.43336466      -0.24952033
O       -1.22990394      -0.84800370      -0.79984678
C        0.26045874      -1.02679440       0.52603822
C       -0.37418623       0.21107395       1.05703344
H        2.22512330      -0.30247870       0.02457918
H        1.23496992      -0.71569257      -1.44479788
H        0.70125921       1.89346579      -0.15398849
H       -1.85155559       1.16242882      -0.38581201
H       -0.86176966      -1.83467053      -0.06494221
H       -0.65249074       0.52021592       2.05254211
12
Frame=12 idx=005629 GeodesicLength=0.7322452310727197 rxn_smarts="[C:1]1([H:7])([H:8])[C@@:2]2([H:9])[C@@:3]3([H:10])[O:4][C@:5]1([H:11])[C@@:6]23[H:12]>>[C:1]1([H:7])([H:8])[C@@:2]2([H:9])[C@:3]([O:4][H:11])([H:10])[C@@:6]2([H:12])[C:5]1"
C        1.23495687      -0.35296828      -0.41862142
C        0.38229396       0.86023271      -0.14295670
C       -1.06112404       0.43545780      -0.25234376
O       -1.22205407      -0.84969627      -0.79730192
C        0.26671041      -1.01706085       0.53329229
C       -0.38184077       0.21244369       1.05936317
H        2.23399821      -0.30274051       0.00929571
H        1.22132329      -0.71362103      -1.44654048
H        0.70648254       1.89073838      -0.14160216
H       -1.84902228       1.16412437      -0.39172437
H       -0.86771457      -1.85087865      -0.06389735
H       -0.66400954       0.52396863       2.05303697
12
Frame=13 idx=005629 GeodesicLength=0.7932432181651805 rxn_smarts="[C:1]1([H:7])([H:8])[C@@:2]2([H:9])[C@@:3]3([H:10])[O:4][C@:5]1([H:11])[C@@:6]23[H:12]>>[C:1]1([H:7])([H:8])[C@@:2]2([H:9])[C@:3]([O:4][H:11])([H:10])[C@@:6]2([H:12])[C:5]1"
C        1.23838341      -0.35099692      -0.42041875
C        0.38483813       0.85856286      -0.14146363
C       -1.05897602       0.43755777      -0.25513355
O       -1.21419227      -0.85140177      -0.79454837
C        0.27309368      -1.00713313       0.54062079
C       -0.38947235       0.21381056       1.06164689
H        2.24276148      -0.30297105      -0.00618913
H        1.20788705      -0.71159981      -1.44798094
H        0.71164497       1.88798470      -0.12923924
H       -1.84645518       1.16579915      -0.39758386
H       -0.87402726      -1.86733666      -0.06317630
H       -0.67548563       0.52772431       2.05346608
12
Frame=14 idx=005629 GeodesicLength=0.8542399009485867 rxn_smarts="[C:1]1([H:7])([H:8])[C@@:2]2([H:9])[C@@:3]3([H:10])[O:4][C@:5]1([H:11])[C@@:6]23[H:12]>>[C:1]1([H:7])([H:8])[C@@:2]2([H:9])[C@:3]([O:4][H:11])([H:10])[C@@:6]2([H:12])[C:5]1"
C        1.24183596      -0.34896701      -0.42221954
C        0.38739950       0.85696818      -0.13997762
C       -1.05677903       0.43966032      -0.25788457
O       -1.20631084      -0.85312312      -0.79158637
C        0.27961720      -0.99700458       0.54802972
C       -0.39707051       0.21517632       1.06388789
H        2.25141340      -0.30316196      -0.02186399
H        1.19467097      -0.70963761      -1.44911901
H        0.71674107       1.88521187      -0.11691032
H       -1.84386172       1.16744517      -0.40338262
H       -0.88074967      -1.88405673      -0.06280733
H       -0.68690634       0.53148914       2.05383376
12
Frame=15 idx=005629 GeodesicLength=0.9152344415135856 rxn_smarts="[C:1]1([H:7])([H:8])[C@@:2]2([H:9])[C@@:3]3([H:10])[O:4][C@:5]1([H:11])[C@@:6]23[H:12]>>[C:1]1([H:7])([H:8])[C@@:2]2([H:9])[C@:3]([O:4][H:11])([H:10])[C@@:6]2([H:12])[C:5]1"
C        1.24531878      -0.34687445      -0.42401580
C        0.38997828       0.85545207      -0.13850523
C       -1.05453141       0.44175976      -0.26059070
O       -1.19839976      -0.85486337      -0.78841153
C        0.28628843      -0.98666675       0.55552597
C       -0.40462430       0.21654177       1.06608860
H        2.25995054      -0.30330423      -0.03771820
H        1.18168216      -0.70773931      -1.44995164
H        0.72176635       1.88242585      -0.10462844
H       -1.84124465       1.16905155      -0.40911312
H       -0.88792545      -1.90105059      -0.06282121
H       -0.69825896       0.53526771       2.05414130
12
Frame=16 idx=005629 GeodesicLength=0.9762269400327619 rxn_smarts="[C:1]1([H:7])([H:8])[C@@:2]2([H:9])[C@@:3]3([H:10])[O:4][C@:5]1([H:11])[C@@:6]23[H:12]>>[C:1]1([H:7])([H:8])[C@@:2]2([H:9])[C@:3]([O:4][H:11])([H:10])[C@@:6]2([H:12])[C:5]1"
C        1.24883738      -0.34471521      -0.42579936
C        0.39257463       0.85401829      -0.13705325
C       -1.05223222       0.44384994      -0.26324562
O       -1.19044877      -0.85662678      -0.78501903
C        0.29311630      -0.97611083       0.56311690
C       -0.41212194       0.21790837       1.06825242
H        2.26837134      -0.30338840      -0.05374013
H        1.16892877      -0.70591144      -1.45047550
H        0.72671533       1.87963391      -0.09240763
H       -1.83860863       1.17060666      -0.41476745
H       -0.89560255      -1.91833035      -0.06325279
H       -0.70952965       0.53906584       2.05439143
