13
Frame=0 idx=006420 GeodesicLength=0.0 rxn_smarts="[O:1]=[C:2]([C:3]1([C:6](=[O:7])[H:13])[C:4]([H:9])([H:10])[C:5]1([H:11])[H:12])[H:8]>>[O:1]=[C:2]([C:3]1([O+:7]=[C-:6][H:13])[C:4]([H:9])([H:10])[C:5]1([H:11])[H:12])[H:8]"
O        2.26814387      -0.78863120      -0.31538519
C        1.64508039       0.23123912      -0.22044508
C        0.16899542       0.25462786      -0.02638517
C       -0.43549342      -0.58028932       1.11737464
C       -0.69028306      -0.99654147      -0.27157883
C       -0.44379657       1.46172039      -0.95927323
O       -0.41789499       1.79023012       0.29781469
H        2.10729071       1.23074218      -0.27254441
H       -1.24477687      -0.15726788       1.69329520
H        0.31669187      -1.11915876       1.67908712
H       -1.68041920      -0.86345051      -0.68112965
H       -0.10773742      -1.80152832      -0.70225399
H       -1.48580067       1.33830780      -1.33857607
13
Frame=1 idx=006420 GeodesicLength=0.06743648651274615 rxn_smarts="[O:1]=[C:2]([C:3]1([C:6](=[O:7])[H:13])[C:4]([H:9])([H:10])[C:5]1([H:11])[H:12])[H:8]>>[O:1]=[C:2]([C:3]1([O+:7]=[C-:6][H:13])[C:4]([H:9])([H:10])[C:5]1([H:11])[H:12])[H:8]"
O        2.26874938      -0.78954324      -0.30837064
C        1.64175295       0.22868027      -0.21970581
C        0.16635130       0.25089862      -0.02002553
C       -0.42706208      -0.58870229       1.12403960
C       -0.68856262      -1.00139293      -0.26494755
C       -0.44205309       1.46640492      -0.95842087
O       -0.45511924       1.78251199       0.29785763
H        2.10163978       1.22871285      -0.28712575
H       -1.23443153      -0.16899848       1.70519261
H        0.32706506      -1.12891660       1.68175407
H       -1.68146210      -0.86654502      -0.66753445
H       -0.10822634      -1.80682295      -0.69764559
H       -1.46864145       1.39371284      -1.38506772
13
Frame=2 idx=006420 GeodesicLength=0.1346261844167998 rxn_smarts="[O:1]=[C:2]([C:3]1([C:6](=[O:7])[H:13])[C:4]([H:9])([H:10])[C:5]1([H:11])[H:12])[H:8]>>[O:1]=[C:2]([C:3]1([O+:7]=[C-:6][H:13])[C:4]([H:9])([H:10])[C:5]1([H:11])[H:12])[H:8]"
O        2.26913390      -0.79010008      -0.30196398
C        1.63791457       0.22622938      -0.21939745
C        0.16326634       0.24691622      -0.01360986
C       -0.41844975      -0.59729633       1.13101699
C       -0.68685871      -1.00691639      -0.25777972
C       -0.44140498       1.47065564      -0.95744108
O       -0.49440824       1.77341614       0.29691524
H        2.09521899       1.22668323      -0.30196570
H       -1.22384967      -0.18100646       1.71747610
H        0.33795553      -1.13841947       1.68466016
H       -1.68257455      -0.87083824      -0.65330849
H       -0.10858688      -1.81267843      -0.69248519
H       -1.44735656       1.45335480      -1.43211701
13
Frame=3 idx=006420 GeodesicLength=0.20160649892603083 rxn_smarts="[O:1]=[C:2]([C:3]1([C:6](=[O:7])[H:13])[C:4]([H:9])([H:10])[C:5]1([H:11])[H:12])[H:8]>>[O:1]=[C:2]([C:3]1([O+:7]=[C-:6][H:13])[C:4]([H:9])([H:10])[C:5]1([H:11])[H:12])[H:8]"
O        2.26962435      -0.79029978      -0.29517366
C        1.63357740       0.22378228      -0.21980037
C        0.15975250       0.24241098      -0.00751546
C       -0.40982335      -0.60596615       1.13810636
C       -0.68494172      -1.01354073      -0.25021140
C       -0.44240106       1.47387083      -0.95676941
O       -0.53503707       1.76284940       0.29446019
H        2.08789376       1.22458737      -0.31774000
H       -1.21343988      -0.19306646       1.72953808
H        0.34911191      -1.14726860       1.68800811
H       -1.68343799      -0.87701984      -0.63890666
H       -0.10831916      -1.81962110      -0.68639211
H       -1.42255969       1.51928180      -1.47760367
13
Frame=4 idx=006420 GeodesicLength=0.26817861899551954 rxn_smarts="[O:1]=[C:2]([C:3]1([C:6](=[O:7])[H:13])[C:4]([H:9])([H:10])[C:5]1([H:11])[H:12])[H:8]>>[O:1]=[C:2]([C:3]1([O+:7]=[C-:6][H:13])[C:4]([H:9])([H:10])[C:5]1([H:11])[H:12])[H:8]"
O        2.26968606      -0.78993392      -0.28948688
C        1.62845758       0.22156823      -0.22075723
C        0.15555264       0.23764195      -0.00137208
C       -0.40096668      -0.61481463       1.14561516
C       -0.68311479      -1.02099469      -0.24192814
C       -0.44489036       1.47654125      -0.95610413
O       -0.57856544       1.75046077       0.29071387
H        2.07940844       1.22266729      -0.33388784
H       -1.20267255      -0.20542164       1.74219877
H        0.36097480      -1.15576698       1.69160120
H       -1.68454555      -0.88480813      -0.62352451
H       -0.10797593      -1.82723041      -0.67963991
H       -1.39134821       1.59009092      -1.52342828
13
Frame=5 idx=006420 GeodesicLength=0.3342000507656264 rxn_smarts="[O:1]=[C:2]([C:3]1([C:6](=[O:7])[H:13])[C:4]([H:9])([H:10])[C:5]1([H:11])[H:12])[H:8]>>[O:1]=[C:2]([C:3]1([O+:7]=[C-:6][H:13])[C:4]([H:9])([H:10])[C:5]1([H:11])[H:12])[H:8]"
O        2.26997401      -0.78906123      -0.28289348
C        1.62264122       0.21931019      -0.22285822
C        0.15073922       0.23209322       0.00397919
C       -0.39224604      -0.62353381       1.15310438
C       -0.68092390      -1.03007436      -0.23323108
C       -0.44983331       1.47752059      -0.95646871
O       -0.62327557       1.73625330       0.28472971
H        2.06961425       1.22067863      -0.35163927
H       -1.19243353      -0.21750700       1.75417215
H        0.37298153      -1.16297852       1.69588126
H       -1.68524587      -0.89545661      -0.60813803
H       -0.10659369      -1.83652402      -0.67148298
H       -1.35539833       1.66927960      -1.56515494
13
Frame=6 idx=006420 GeodesicLength=0.39965674383126126 rxn_smarts="[O:1]=[C:2]([C:3]1([C:6](=[O:7])[H:13])[C:4]([H:9])([H:10])[C:5]1([H:11])[H:12])[H:8]>>[O:1]=[C:2]([C:3]1([O+:7]=[C-:6][H:13])[C:4]([H:9])([H:10])[C:5]1([H:11])[H:12])[H:8]"
O        2.26952380      -0.78721803      -0.27811040
C        1.61558248       0.21754360      -0.22571721
C        0.14481805       0.22626228       0.00932407
C       -0.38324204      -0.63240470       1.16114691
C       -0.67893383      -1.04024126      -0.22357152
C       -0.45706856       1.47765079      -0.95713372
O       -0.67210985       1.71957741       0.27690743
H        2.05795087       1.21919915      -0.37012564
H       -1.18169589      -0.22988102       1.76700908
H        0.38597197      -1.16964659       1.70038773
H       -1.68642631      -0.90834505      -0.59130069
H       -0.10516303      -1.84664980      -0.66249820
H       -1.30920765       1.75415324      -1.60631783
13
Frame=7 idx=006420 GeodesicLength=0.4641392190054519 rxn_smarts="[O:1]=[C:2]([C:3]1([C:6](=[O:7])[H:13])[C:4]([H:9])([H:10])[C:5]1([H:11])[H:12])[H:8]>>[O:1]=[C:2]([C:3]1([O+:7]=[C-:6][H:13])[C:4]([H:9])([H:10])[C:5]1([H:11])[H:12])[H:8]"
O        2.26934762      -0.78452162      -0.27197182
C        1.60738600       0.21570286      -0.23054582
C        0.13787692       0.21924844       0.01304524
C       -0.37458854      -0.64077107       1.16898922
C       -0.67643293      -1.05285657      -0.21338882
C       -0.46816880       1.47494153      -0.96021941
O       -0.72214415       1.70050692       0.26569130
H        2.04417090       1.21770907      -0.39121524
H       -1.17198457      -0.24146354       1.77854560
H        0.39903034      -1.17382564       1.70598287
H       -1.68703086      -0.92556243      -0.57458116
H       -0.10214252      -1.85940979      -0.65124071
H       -1.25531941       1.85030183      -1.63909126
13
Frame=8 idx=006420 GeodesicLength=0.5277858886012607 rxn_smarts="[O:1]=[C:2]([C:3]1([C:6](=[O:7])[H:13])[C:4]([H:9])([H:10])[C:5]1([H:11])[H:12])[H:8]>>[O:1]=[C:2]([C:3]1([O+:7]=[C-:6][H:13])[C:4]([H:9])([H:10])[C:5]1([H:11])[H:12])[H:8]"
O        2.26798052      -0.77993727      -0.26848718
C        1.59704829       0.21493343      -0.23666091
C        0.12899669       0.21190822       0.01649299
C       -0.36565262      -0.64914240       1.17752054
C       -0.67429241      -1.06707279      -0.20189329
C       -0.48359154       1.47047183      -0.96444485
O       -0.77798002       1.67815188       0.25162809
H        2.02703666       1.21742737      -0.41413762
H       -1.16170111      -0.25316880       1.79119889
H        0.41345178      -1.17699560       1.71170568
H       -1.68846776      -0.94628466      -0.55570688
H       -0.09894067      -1.87328146      -0.63893559
H       -1.18388781       1.95299023      -1.66827987
13
Frame=9 idx=006420 GeodesicLength=0.5895453468997743 rxn_smarts="[O:1]=[C:2]([C:3]1([C:6](=[O:7])[H:13])[C:4]([H:9])([H:10])[C:5]1([H:11])[H:12])[H:8]>>[O:1]=[C:2]([C:3]1([O+:7]=[C-:6][H:13])[C:4]([H:9])([H:10])[C:5]1([H:11])[H:12])[H:8]"
O        2.26644289      -0.77361789      -0.26475883
C        1.58450527       0.21432923      -0.24663817
C        0.11810438       0.20298312       0.01663749
C       -0.35728708      -0.65607534       1.18542522
C       -0.67177026      -1.08474292      -0.18961156
C       -0.50544498       1.46153269      -0.97383474
O       -0.83607128       1.65225153       0.23208595
H        2.00631811       1.21779398      -0.43974511
H       -1.15291771      -0.26293956       1.80171229
H        0.42821784      -1.17519354       1.71871827
H       -1.68956887      -0.97338637      -0.53651591
H       -0.09378116      -1.89106240      -0.62283244
H       -1.09674715       2.06812748      -1.68064247
13
Frame=10 idx=006420 GeodesicLength=0.6488144378519831 rxn_smarts="[O:1]=[C:2]([C:3]1([C:6](=[O:7])[H:13])[C:4]([H:9])([H:10])[C:5]1([H:11])[H:12])[H:8]>>[O:1]=[C:2]([C:3]1([O+:7]=[C-:6][H:13])[C:4]([H:9])([H:10])[C:5]1([H:11])[H:12])[H:8]"
O        2.26273422      -0.76385916      -0.26485708
C        1.56874475       0.21598483      -0.25859925
C        0.10429333       0.19454075       0.01566105
C       -0.34896767      -0.66184731       1.19334206
C       -0.66995428      -1.10345507      -0.17623118
C       -0.53371224       1.45132580      -0.98534078
O       -0.90079689       1.62296804       0.20895649
H        1.98096445       1.22041045      -0.46861975
H       -1.14380658      -0.27192081       1.81279728
H        0.44397605      -1.17114761       1.72494003
H       -1.69170146      -1.00393562      -0.51540038
H       -0.08854774      -1.90885899      -0.60634186
H       -0.98322595       2.17979471      -1.68030662
13
Frame=11 idx=006420 GeodesicLength=0.7049423009909143 rxn_smarts="[O:1]=[C:2]([C:3]1([C:6](=[O:7])[H:13])[C:4]([H:9])([H:10])[C:5]1([H:11])[H:12])[H:8]>>[O:1]=[C:2]([C:3]1([O+:7]=[C-:6][H:13])[C:4]([H:9])([H:10])[C:5]1([H:11])[H:12])[H:8]"
O        2.25847240      -0.75341696      -0.26565110
C        1.55224181       0.21771748      -0.27343870
C        0.08977640       0.18676687       0.01100913
C       -0.34155661      -0.66427182       1.19900635
C       -0.66817482      -1.12168575      -0.16416028
C       -0.56311152       1.44246415      -1.00124975
O       -0.96520973       1.59236303       0.18101326
H        1.95553695       1.22326406      -0.49647953
H       -1.13594491      -0.27626008       1.82024649
H        0.45861843      -1.16210442       1.73033921
H       -1.69372356      -1.03522807      -0.49563232
H       -0.08305175      -1.92692480      -0.58906485
H       -0.86387309       2.27731632      -1.65593791
13
Frame=12 idx=006420 GeodesicLength=0.7614949525424454 rxn_smarts="[O:1]=[C:2]([C:3]1([C:6](=[O:7])[H:13])[C:4]([H:9])([H:10])[C:5]1([H:11])[H:12])[H:8]>>[O:1]=[C:2]([C:3]1([O+:7]=[C-:6][H:13])[C:4]([H:9])([H:10])[C:5]1([H:11])[H:12])[H:8]"
O        2.25399365      -0.74298317      -0.26725097
C        1.53612048       0.21960456      -0.28925864
C        0.07535499       0.18048141       0.00422273
C       -0.33502433      -0.66393233       1.20292580
C       -0.66645361      -1.13797321      -0.15359888
C       -0.59122519       1.43754844      -1.01909002
O       -1.02874529       1.56181436       0.15010243
H        1.93166876       1.22600917      -0.52374765
H       -1.12917445      -0.27676587       1.82522628
H        0.47176396      -1.15035154       1.73473133
H       -1.69548594      -1.06453041      -0.47776975
H       -0.07764210      -1.94342827      -0.57279188
H       -0.74515094       2.35450686      -1.61370078
13
Frame=13 idx=006420 GeodesicLength=0.8194362545657794 rxn_smarts="[O:1]=[C:2]([C:3]1([C:6](=[O:7])[H:13])[C:4]([H:9])([H:10])[C:5]1([H:11])[H:12])[H:8]>>[O:1]=[C:2]([C:3]1([O+:7]=[C-:6][H:13])[C:4]([H:9])([H:10])[C:5]1([H:11])[H:12])[H:8]"
O        2.24941544      -0.73268721      -0.26922756
C        1.52092264       0.22162655      -0.30492979
C        0.06163485       0.17587173      -0.00346780
C       -0.32915163      -0.66138670       1.20529093
C       -0.66485618      -1.15156225      -0.14455575
C       -0.61688087       1.43700640      -1.03666851
O       -1.08979121       1.53216473       0.11777004
H        1.91013566       1.22838558      -0.54973777
H       -1.12300099      -0.27420769       1.82811085
H        0.48338035      -1.13737376       1.73763415
H       -1.69695071      -1.09040648      -0.46188523
H       -0.07279243      -1.95721048      -0.55843984
H       -0.63206491       2.40977959      -1.55989373
13
Frame=14 idx=006420 GeodesicLength=0.876410892967344 rxn_smarts="[O:1]=[C:2]([C:3]1([C:6](=[O:7])[H:13])[C:4]([H:9])([H:10])[C:5]1([H:11])[H:12])[H:8]>>[O:1]=[C:2]([C:3]1([O+:7]=[C-:6][H:13])[C:4]([H:9])([H:10])[C:5]1([H:11])[H:12])[H:8]"
O        2.24606212      -0.72523055      -0.26872861
C        1.50873274       0.22177076      -0.31964689
C        0.05057936       0.17227740      -0.01180094
C       -0.32402292      -0.65700570       1.20614291
C       -0.66286769      -1.16235408      -0.13746537
C       -0.63553234       1.44174511      -1.05330223
O       -1.14479832       1.50413426       0.08426612
H        1.89393699       1.22804933      -0.57409694
H       -1.11771845      -0.26812174       1.82825431
H        0.49251266      -1.12409215       1.74007270
H       -1.69731712      -1.11144567      -0.44926605
H       -0.06849233      -1.96919058      -0.54537391
H       -0.54107470       2.44946362      -1.49905509
13
Frame=15 idx=006420 GeodesicLength=0.9361277946516842 rxn_smarts="[O:1]=[C:2]([C:3]1([C:6](=[O:7])[H:13])[C:4]([H:9])([H:10])[C:5]1([H:11])[H:12])[H:8]>>[O:1]=[C:2]([C:3]1([O+:7]=[C-:6][H:13])[C:4]([H:9])([H:10])[C:5]1([H:11])[H:12])[H:8]"
O        2.24295211      -0.71824456      -0.26820200
C        1.49732175       0.22148259      -0.33474219
C        0.04007485       0.16931198      -0.02120271
C       -0.31941289      -0.65097809       1.20604078
C       -0.66073470      -1.17200766      -0.13111891
C       -0.65242738       1.44944807      -1.07000840
O       -1.19824786       1.47575641       0.04834490
H        1.87942223       1.22683835      -0.59891710
H       -1.11308156      -0.25939111       1.82672047
H        0.50068170      -1.10907750       1.74214874
H       -1.69724397      -1.13117219      -0.43789807
H       -0.06411032      -1.98041591      -0.53236561
H       -0.45519395       2.47844961      -1.42879989
13
Frame=16 idx=006420 GeodesicLength=0.9963312255840222 rxn_smarts="[O:1]=[C:2]([C:3]1([C:6](=[O:7])[H:13])[C:4]([H:9])([H:10])[C:5]1([H:11])[H:12])[H:8]>>[O:1]=[C:2]([C:3]1([O+:7]=[C-:6][H:13])[C:4]([H:9])([H:10])[C:5]1([H:11])[H:12])[H:8]"
O        2.24055078      -0.71365289      -0.26657168
C        1.48790760       0.21932802      -0.34972378
C        0.03131672       0.16651908      -0.03158143
C       -0.31518383      -0.64322820       1.20499932
C       -0.65825415      -1.18036874      -0.12546840
C       -0.66376044       1.46104358      -1.08615978
O       -1.24930177       1.44597123       0.00851386
H        1.86842838       1.22288472      -0.62413435
H       -1.10882978      -0.24729097       1.82308732
H        0.50751920      -1.09252271       1.74439519
H       -1.69635339      -1.14868992      -0.42827255
H       -0.05996198      -1.99119933      -0.51888486
H       -0.38407734       2.50120614      -1.35019885
