13
Frame=0 idx=004531 GeodesicLength=0.0 rxn_smarts="[C:1]([C@@:2]1([H:10])[C:3]([H:11])([H:12])[N:4]=[C:5]([H:13])[O:6]1)([H:7])([H:8])[H:9]>>[C:1]([C:2](/[C:3](=[N:4]\[C:5](=[O:6])[H:13])[H:12])([H:10])[H:11])([H:7])([H:8])[H:9]"
C        1.85040077       0.17556968       0.05659479
C        0.46090059      -0.17262969      -0.31111749
C       -0.50895714      -0.65465258       0.59720327
N       -1.85431568      -0.55278358       0.34192243
C       -2.10822929       0.59060359      -0.31199139
O       -1.29199503       1.40598677      -0.77163315
H        1.92450181       1.26233506      -0.05123765
H        2.07922512      -0.07684150       1.09176980
H        2.58281614      -0.26600688      -0.61889729
H        0.18552900      -0.17498949      -1.35649948
H        0.05167518      -1.60325440       0.08320928
H       -0.18992539      -0.74639937       1.64071233
H       -3.18162611       0.81306245      -0.39003539
13
Frame=1 idx=004531 GeodesicLength=0.056201786493518556 rxn_smarts="[C:1]([C@@:2]1([H:10])[C:3]([H:11])([H:12])[N:4]=[C:5]([H:13])[O:6]1)([H:7])([H:8])[H:9]>>[C:1]([C:2](/[C:3](=[N:4]\[C:5](=[O:6])[H:13])[H:12])([H:10])[H:11])([H:7])([H:8])[H:9]"
C        1.83848068       0.18548818       0.05665190
C        0.45279601      -0.17907742      -0.31708157
C       -0.51112948      -0.66913656       0.60135954
N       -1.85553242      -0.54140247       0.36042336
C       -2.09909524       0.59997955      -0.29826271
O       -1.26909304       1.40163279      -0.76216522
H        1.91312820       1.26986813      -0.06995028
H        2.06483913      -0.04681490       1.09715689
H        2.57772108      -0.26806651      -0.60348714
H        0.18662609      -0.19143845      -1.36495993
H        0.05604020      -1.61364453       0.06090299
H       -0.18509350      -0.77120955       1.64135439
H       -3.16968772       0.82382173      -0.40194223
13
Frame=2 idx=004531 GeodesicLength=0.11247410287472698 rxn_smarts="[C:1]([C@@:2]1([H:10])[C:3]([H:11])([H:12])[N:4]=[C:5]([H:13])[O:6]1)([H:7])([H:8])[H:9]>>[C:1]([C:2](/[C:3](=[N:4]\[C:5](=[O:6])[H:13])[H:12])([H:10])[H:11])([H:7])([H:8])[H:9]"
C        1.82648240       0.19511614       0.05668214
C        0.44471495      -0.18537947      -0.32317454
C       -0.51332420      -0.68340515       0.60527516
N       -1.85622750      -0.52978719       0.37922027
C       -2.09004338       0.60899287      -0.28486724
O       -1.24678855       1.39708692      -0.75287487
H        1.90233944       1.27675236      -0.08857913
H        2.04972210      -0.01701731       1.10225393
H        2.57251312      -0.27036559      -0.58752250
H        0.18789825      -0.20691298      -1.37342801
H        0.06036428      -1.62357178       0.03855340
H       -0.18030606      -0.79536846       1.64166420
H       -3.15734485       0.83385963      -0.41320280
13
Frame=3 idx=004531 GeodesicLength=0.1688466980743864 rxn_smarts="[C:1]([C@@:2]1([H:10])[C:3]([H:11])([H:12])[N:4]=[C:5]([H:13])[O:6]1)([H:7])([H:8])[H:9]>>[C:1]([C:2](/[C:3](=[N:4]\[C:5](=[O:6])[H:13])[H:12])([H:10])[H:11])([H:7])([H:8])[H:9]"
C        1.81439424       0.20449940       0.05671319
C        0.43666709      -0.19156952      -0.32942337
C       -0.51554053      -0.69753063       0.60890159
N       -1.85637473      -0.51796008       0.39827921
C       -2.08104069       0.61763196      -0.27182967
O       -1.22502932       1.39235344      -0.74378707
H        1.89216263       1.28299546      -0.10736015
H        2.03373706       0.01287891       1.10716088
H        2.56721338      -0.27301149      -0.57077245
H        0.18937781      -0.22148460      -1.38195420
H        0.06465391      -1.63309771       0.01605548
H       -0.17555017      -0.81906715       1.64158859
H       -3.14467068       0.84336201      -0.42357202
13
Frame=4 idx=004531 GeodesicLength=0.22538211775523145 rxn_smarts="[C:1]([C@@:2]1([H:10])[C:3]([H:11])([H:12])[N:4]=[C:5]([H:13])[O:6]1)([H:7])([H:8])[H:9]>>[C:1]([C:2](/[C:3](=[N:4]\[C:5](=[O:6])[H:13])[H:12])([H:10])[H:11])([H:7])([H:8])[H:9]"
C        1.80235876       0.21321153       0.05625082
C        0.42823058      -0.19708543      -0.33539042
C       -0.51765297      -0.71103472       0.61318260
N       -1.85587749      -0.50451962       0.41991793
C       -2.07201502       0.62778986      -0.25599353
O       -1.20368715       1.38916745      -0.73196541
H        1.88318694       1.28820992      -0.12622103
H        2.01781364       0.04173566       1.11107800
H        2.56115639      -0.27650315      -0.55461621
H        0.18970900      -0.23382527      -1.38992781
H        0.06796935      -1.64166820      -0.00681758
H       -0.16983855      -0.84277538       1.64166260
H       -3.13135346       0.84729734      -0.44115995
13
Frame=5 idx=004531 GeodesicLength=0.2820021891788753 rxn_smarts="[C:1]([C@@:2]1([H:10])[C:3]([H:11])([H:12])[N:4]=[C:5]([H:13])[O:6]1)([H:7])([H:8])[H:9]>>[C:1]([C:2](/[C:3](=[N:4]\[C:5](=[O:6])[H:13])[H:12])([H:10])[H:11])([H:7])([H:8])[H:9]"
C        1.79016278       0.22189177       0.05602891
C        0.41998783      -0.20274263      -0.34171198
C       -0.51988380      -0.72455727       0.61675632
N       -1.85478749      -0.49137619       0.44083168
C       -2.06306729       0.63668958      -0.24211155
O       -1.18289108       1.38500173      -0.72182097
H        1.87449159       1.29297832      -0.14510106
H        2.00064500       0.07111029       1.11511093
H        2.55524379      -0.27999671      -0.53706699
H        0.19086733      -0.24603471      -1.39828372
H        0.07160600      -1.65007133      -0.02974329
H       -0.16462595      -0.86579596       1.64109011
H       -3.11774871       0.85290312      -0.45397840
13
Frame=6 idx=004531 GeodesicLength=0.33876420171093635 rxn_smarts="[C:1]([C@@:2]1([H:10])[C:3]([H:11])([H:12])[N:4]=[C:5]([H:13])[O:6]1)([H:7])([H:8])[H:9]>>[C:1]([C:2](/[C:3](=[N:4]\[C:5](=[O:6])[H:13])[H:12])([H:10])[H:11])([H:7])([H:8])[H:9]"
C        1.77788240       0.23037540       0.05583742
C        0.41176924      -0.20831206      -0.34821077
C       -0.52217499      -0.73794223       0.62002371
N       -1.85305914      -0.47792658       0.46203637
C       -2.05415802       0.64519025      -0.22873274
O       -1.16257593       1.38063350      -0.71208006
H        1.86638926       1.29712298      -0.16409301
H        1.98257725       0.10067043       1.11894184
H        2.54920703      -0.28375790      -0.51860032
H        0.19228016      -0.25754181      -1.40677513
H        0.07516711      -1.65810845      -0.05287909
H       -0.15944781      -0.88847628       1.64009403
H       -3.10385657       0.85807274      -0.46556223
13
Frame=7 idx=004531 GeodesicLength=0.3957248663563865 rxn_smarts="[C:1]([C@@:2]1([H:10])[C:3]([H:11])([H:12])[N:4]=[C:5]([H:13])[O:6]1)([H:7])([H:8])[H:9]>>[C:1]([C:2](/[C:3](=[N:4]\[C:5](=[O:6])[H:13])[H:12])([H:10])[H:11])([H:7])([H:8])[H:9]"
C        1.76552364       0.23858948       0.05558200
C        0.40347474      -0.21367320      -0.35481131
C       -0.52451131      -0.75110521       0.62315355
N       -1.85060632      -0.46382783       0.48405907
C       -2.04523980       0.65370712      -0.21516394
O       -1.14267588       1.37643857      -0.70210777
H        1.85900702       1.30053232      -0.18327926
H        1.96370416       0.13033699       1.12242112
H        2.54287787      -0.28795381      -0.49936988
H        0.19366425      -0.26806783      -1.41529823
H        0.07841871      -1.66565460      -0.07636010
H       -0.15409424      -0.91102025       1.63872248
H       -3.08954285       0.86169823      -0.47754773
13
Frame=8 idx=004531 GeodesicLength=0.4528313647340243 rxn_smarts="[C:1]([C@@:2]1([H:10])[C:3]([H:11])([H:12])[N:4]=[C:5]([H:13])[O:6]1)([H:7])([H:8])[H:9]>>[C:1]([C:2](/[C:3](=[N:4]\[C:5](=[O:6])[H:13])[H:12])([H:10])[H:11])([H:7])([H:8])[H:9]"
C        1.75308437       0.24661364       0.05536307
C        0.39520334      -0.21896671      -0.36158680
C       -0.52692574      -0.76409855       0.62600064
N       -1.84741874      -0.44934212       0.50638828
C       -2.03632608       0.66186256      -0.20208478
O       -1.12322767       1.37200049      -0.69272462
H        1.85215306       1.30333747      -0.20234909
H        1.94399963       0.16001221       1.12560880
H        2.53635154      -0.29223625      -0.47930478
H        0.19533627      -0.27803994      -1.42396382
H        0.08159290      -1.67284488      -0.10000858
H       -0.14877048      -0.93320819       1.63693481
H       -3.07505240       0.86491025      -0.48827312
13
Frame=9 idx=004531 GeodesicLength=0.5101318041223334 rxn_smarts="[C:1]([C@@:2]1([H:10])[C:3]([H:11])([H:12])[N:4]=[C:5]([H:13])[O:6]1)([H:7])([H:8])[H:9]>>[C:1]([C:2](/[C:3](=[N:4]\[C:5](=[O:6])[H:13])[H:12])([H:10])[H:11])([H:7])([H:8])[H:9]"
C        1.74054954       0.25446689       0.05518898
C        0.38696670      -0.22421564      -0.36856266
C       -0.52942339      -0.77696121       0.62853032
N       -1.84343204      -0.43443415       0.52902510
C       -2.02736884       0.66971050      -0.18943035
O       -1.10418862       1.36733338      -0.68395302
H        1.84585898       1.30549605      -0.22146111
H        1.92331815       0.18992949       1.12852134
H        2.52962181      -0.29667734      -0.45820404
H        0.19733447      -0.28748875      -1.43279973
H        0.08469627      -1.67971267      -0.12390425
H       -0.14346881      -0.95518293       1.63467287
H       -3.06046423       0.86773639      -0.49762347
13
Frame=10 idx=004531 GeodesicLength=0.5676744130429315 rxn_smarts="[C:1]([C@@:2]1([H:10])[C:3]([H:11])([H:12])[N:4]=[C:5]([H:13])[O:6]1)([H:7])([H:8])[H:9]>>[C:1]([C:2](/[C:3](=[N:4]\[C:5](=[O:6])[H:13])[H:12])([H:10])[H:11])([H:7])([H:8])[H:9]"
C        1.72791193       0.26215535       0.05504358
C        0.37874254      -0.22940564      -0.37574002
C       -0.53200622      -0.78971392       0.63075355
N       -1.83857422      -0.41904212       0.55207825
C       -2.01834290       0.67735102      -0.17698562
O       -1.08553643       1.36251728      -0.67565384
H        1.84019758       1.30694575      -0.24076047
H        1.90156738       0.22027198       1.13112251
H        2.52262786      -0.30137402      -0.43592576
H        0.19960413      -0.29636564      -1.44180151
H        0.08768134      -1.68625104      -0.14813601
H       -0.13812756      -0.97709325       1.63189702
H       -3.04574543       0.87000426      -0.50589168
13
Frame=11 idx=004531 GeodesicLength=0.6255106409575637 rxn_smarts="[C:1]([C@@:2]1([H:10])[C:3]([H:11])([H:12])[N:4]=[C:5]([H:13])[O:6]1)([H:7])([H:8])[H:9]>>[C:1]([C:2](/[C:3](=[N:4]\[C:5](=[O:6])[H:13])[H:12])([H:10])[H:11])([H:7])([H:8])[H:9]"
C        1.71516652       0.26965832       0.05490256
C        0.37049235      -0.23450100      -0.38311053
C       -0.53468337      -0.80233544       0.63270747
N       -1.83274397      -0.40300303       0.57574658
C       -2.00920952       0.68495291      -0.16450429
O       -1.06723007       1.35769594      -0.66762980
H        1.83523570       1.30760648      -0.26031432
H        1.87870115       0.25110322       1.13333668
H        2.51528272      -0.30639059      -0.41240665
H        0.20205069      -0.30457710      -1.45095485
H        0.09044514      -1.69242123      -0.17278636
H       -0.13267286      -0.99907133       1.62857540
H       -3.03083449       0.87128286      -0.51356189
13
Frame=12 idx=004531 GeodesicLength=0.6836161995413865 rxn_smarts="[C:1]([C@@:2]1([H:10])[C:3]([H:11])([H:12])[N:4]=[C:5]([H:13])[O:6]1)([H:7])([H:8])[H:9]>>[C:1]([C:2](/[C:3](=[N:4]\[C:5](=[O:6])[H:13])[H:12])([H:10])[H:11])([H:7])([H:8])[H:9]"
C        1.70232201       0.27699866       0.05480107
C        0.36227543      -0.23957766      -0.39069676
C       -0.53747942      -0.81482054       0.63435202
N       -1.82591701      -0.38646781       0.59971435
C       -1.99995924       0.69237069      -0.15225170
O       -1.04929463       1.35264275      -0.66033184
H        1.83084003       1.30756657      -0.27980496
H        1.85479126       0.28218881       1.13512108
H        2.50759196      -0.31145270      -0.38775619
H        0.20485828      -0.31238067      -1.46028699
H        0.09315043      -1.69829573      -0.19769066
H       -0.12723745      -1.02091117       1.62473718
H       -3.01594166       0.87213880      -0.51990660
13
Frame=13 idx=004531 GeodesicLength=0.7419671758906937 rxn_smarts="[C:1]([C@@:2]1([H:10])[C:3]([H:11])([H:12])[N:4]=[C:5]([H:13])[O:6]1)([H:7])([H:8])[H:9]>>[C:1]([C:2](/[C:3](=[N:4]\[C:5](=[O:6])[H:13])[H:12])([H:10])[H:11])([H:7])([H:8])[H:9]"
C        1.68940026       0.28415995       0.05473692
C        0.35410407      -0.24464952      -0.39847956
C       -0.54041928      -0.82711193       0.63572789
N       -1.81806947      -0.36946211       0.62386039
C       -1.99059398       0.69959488      -0.14028409
O       -1.03174853       1.34729556      -0.65392021
H        1.82690820       1.30691115      -0.29890841
H        1.83003217       0.31317338       1.13640705
H        2.49951377      -0.31635446      -0.36224451
H        0.20807892      -0.31988892      -1.46977179
H        0.09585946      -1.70388602      -0.22270975
H       -0.12188929      -1.04244229       1.62046019
H       -3.00117631       0.87266032      -0.52487411
13
Frame=14 idx=004531 GeodesicLength=0.8005347580549109 rxn_smarts="[C:1]([C@@:2]1([H:10])[C:3]([H:11])([H:12])[N:4]=[C:5]([H:13])[O:6]1)([H:7])([H:8])[H:9]>>[C:1]([C:2](/[C:3](=[N:4]\[C:5](=[O:6])[H:13])[H:12])([H:10])[H:11])([H:7])([H:8])[H:9]"
C        1.67642205       0.29113139       0.05471173
C        0.34599673      -0.24973594      -0.40644210
C       -0.54352328      -0.83916411       0.63686881
N       -1.80919465      -0.35204503       0.64802414
C       -1.98111735       0.70660457      -0.12866837
O       -1.01461509       1.34158586      -0.64855043
H        1.82334013       1.30573825      -0.31735896
H        1.80460066       0.34376019       1.13716281
H        2.49102528      -0.32093043      -0.33611888
H        0.21177633      -0.32721491      -1.47938277
H        0.09865474      -1.70921756      -0.24771290
H       -0.11670138      -1.06351351       1.61582332
H       -2.98666418       0.87300124      -0.52835641
13
Frame=15 idx=004531 GeodesicLength=0.8592900483318697 rxn_smarts="[C:1]([C@@:2]1([H:10])[C:3]([H:11])([H:12])[N:4]=[C:5]([H:13])[O:6]1)([H:7])([H:8])[H:9]>>[C:1]([C:2](/[C:3](=[N:4]\[C:5](=[O:6])[H:13])[H:12])([H:10])[H:11])([H:7])([H:8])[H:9]"
C        1.66340911       0.29790080       0.05472081
C        0.33796504      -0.25484858      -0.41456145
C       -0.54680991      -0.85093281       0.63781826
N       -1.79930507      -0.33428354       0.67205420
C       -1.97153839       0.71339475      -0.11743645
O       -0.99791627       1.33547462      -0.64430485
H        1.82004252       1.30415110      -0.33494355
H        1.77868218       0.37368453       1.13737737
H        2.48211093      -0.32506084      -0.30963312
H        0.21599107      -0.33444277      -1.48908382
H        0.10161231      -1.71431266      -0.27258247
H       -0.11173944      -1.08399536       1.61091405
H       -2.97250408       0.87327076      -0.53033899
13
Frame=16 idx=004531 GeodesicLength=0.9182034127003788 rxn_smarts="[C:1]([C@@:2]1([H:10])[C:3]([H:11])([H:12])[N:4]=[C:5]([H:13])[O:6]1)([H:7])([H:8])[H:9]>>[C:1]([C:2](/[C:3](=[N:4]\[C:5](=[O:6])[H:13])[H:12])([H:10])[H:11])([H:7])([H:8])[H:9]"
C        1.65038261       0.30445765       0.05475614
C        0.33001660      -0.25999540      -0.42281192
C       -0.55029393      -0.86237900       0.63862378
N       -1.78843517      -0.31626133       0.69579796
C       -1.96187065       0.71996526      -0.10660327
O       -0.98167187       1.32894157      -0.64121138
H        1.81692940       1.30225338      -0.35150514
H        1.75245810       0.40272711       1.13706000
H        2.47276515      -0.32866679      -0.28303041
H        0.22074774      -0.34163609      -1.49883371
H        0.10480681      -1.71919392      -0.29721453
H       -0.10706286      -1.10377842       1.60582425
H       -2.95877192       0.87356597      -0.53085178
