14
Frame=0 idx=007014 GeodesicLength=0.0 rxn_smarts="[C:1]([C@@:2]1([H:11])[C:3]([H:12])=[C:4]([H:13])[N:5]([H:14])[C:6]1=[O:7])([H:8])([H:9])[H:10]>>[C:1]([C:2]1=[C:6]([O-:7])[N+:5]([H:11])([H:14])[C:4]([H:13])=[C:3]1[H:12])([H:8])([H:9])[H:10]"
C       -1.97964855       0.26177197       0.21426726
C       -0.49927583       0.12658176       0.09550226
C        0.48875346       1.04092053       0.48838398
C        1.74109944       0.52629750       0.24947038
N        1.56563072      -0.68524913      -0.34900456
C        0.10970373      -1.12389778      -0.24711062
O       -0.23766002      -2.28201625      -0.37157175
H       -2.28236544       1.30879967       0.23129630
H       -2.33942963      -0.21485847       1.12996441
H       -2.47859273      -0.23264321      -0.61953561
H        0.64148673      -0.42883935      -1.34037297
H        0.29564080       2.04225995       0.84326766
H        2.69595460       1.02618197       0.23903785
H        2.27870268      -1.36530922      -0.56359464
14
Frame=1 idx=007014 GeodesicLength=0.06929210049249844 rxn_smarts="[C:1]([C@@:2]1([H:11])[C:3]([H:12])=[C:4]([H:13])[N:5]([H:14])[C:6]1=[O:7])([H:8])([H:9])[H:10]>>[C:1]([C:2]1=[C:6]([O-:7])[N+:5]([H:11])([H:14])[C:4]([H:13])=[C:3]1[H:12])([H:8])([H:9])[H:10]"
C       -1.97820459       0.26037201       0.21210834
C       -0.49850312       0.13258014       0.07146133
C        0.49082045       1.03703729       0.49807102
C        1.74099882       0.52226772       0.25947439
N        1.56328446      -0.68305805      -0.36066533
C        0.11112159      -1.12732844      -0.24002355
O       -0.23813016      -2.28258801      -0.37646818
H       -2.28770521       1.30566246       0.20560056
H       -2.32213415      -0.19301529       1.14548758
H       -2.48483004      -0.25966438      -0.60124318
H        0.63194847      -0.40523966      -1.35373375
H        0.29813010       2.04106803       0.84565641
H        2.69726599       1.01962080       0.25530291
H        2.27593740      -1.36771461      -0.56102853
14
Frame=2 idx=007014 GeodesicLength=0.13860928372905434 rxn_smarts="[C:1]([C@@:2]1([H:11])[C:3]([H:12])=[C:4]([H:13])[N:5]([H:14])[C:6]1=[O:7])([H:8])([H:9])[H:10]>>[C:1]([C:2]1=[C:6]([O-:7])[N+:5]([H:11])([H:14])[C:4]([H:13])=[C:3]1[H:12])([H:8])([H:9])[H:10]"
C       -1.97641552       0.25897932       0.20983907
C       -0.49745969       0.13778779       0.04922085
C        0.49261131       1.03312852       0.50711978
C        1.74069617       0.51827396       0.26890182
N        1.56071211      -0.68084292      -0.37232478
C        0.11252254      -1.13084338      -0.23217637
O       -0.23841519      -2.28319082      -0.38082563
H       -2.29284409       1.30191854       0.17997744
H       -2.30565903      -0.17086553       1.15948254
H       -2.48958610      -0.28566661      -0.58307021
H        0.62213560      -0.38134701      -1.36686164
H        0.30056274       2.03931345       0.84895318
H        2.69827343       1.01318755       0.27048071
H        2.27286573      -1.36983289      -0.55871677
14
Frame=3 idx=007014 GeodesicLength=0.20791516081020772 rxn_smarts="[C:1]([C@@:2]1([H:11])[C:3]([H:12])=[C:4]([H:13])[N:5]([H:14])[C:6]1=[O:7])([H:8])([H:9])[H:10]>>[C:1]([C:2]1=[C:6]([O-:7])[N+:5]([H:11])([H:14])[C:4]([H:13])=[C:3]1[H:12])([H:8])([H:9])[H:10]"
C       -1.97434749       0.25757974       0.20747451
C       -0.49618199       0.14217449       0.02880405
C        0.49421460       1.02917028       0.51573431
C        1.74025068       0.51428101       0.27784644
N        1.55790263      -0.67865092      -0.38389997
C        0.11394776      -1.13449763      -0.22348951
O       -0.23854007      -2.28384607      -0.38466386
H       -2.29773465       1.29760490       0.15465241
H       -2.29015113      -0.14866109       1.17191798
H       -2.49293099      -0.31051227      -0.56520833
H        0.61205305      -0.35708569      -1.37965893
H        0.30295924       2.03719665       0.85273710
H        2.69903552       1.00688012       0.28453611
H        2.26952282      -1.37163352      -0.55678232
14
Frame=4 idx=007014 GeodesicLength=0.2772400614410994 rxn_smarts="[C:1]([C@@:2]1([H:11])[C:3]([H:12])=[C:4]([H:13])[N:5]([H:14])[C:6]1=[O:7])([H:8])([H:9])[H:10]>>[C:1]([C:2]1=[C:6]([O-:7])[N+:5]([H:11])([H:14])[C:4]([H:13])=[C:3]1[H:12])([H:8])([H:9])[H:10]"
C       -1.97206819       0.25615122       0.20504928
C       -0.49469757       0.14580594       0.01000101
C        0.49568299       1.02518050       0.52397268
C        1.73969824       0.51025134       0.28641095
N        1.55485521      -0.67649495      -0.39537264
C        0.11540984      -1.13829961      -0.21403452
O       -0.23851143      -2.28452149      -0.38813132
H       -2.30240909       1.29271390       0.12944568
H       -2.27552513      -0.12627331       1.18306282
H       -2.49511355      -0.33446726      -0.54747862
H        0.60179663      -0.33233021      -1.39215571
H        0.30532025       2.03483245       0.85678112
H        2.69964352       1.00056061       0.29780011
H        2.26591827      -1.37310912      -0.55535084
14
Frame=5 idx=007014 GeodesicLength=0.34658137812825757 rxn_smarts="[C:1]([C@@:2]1([H:11])[C:3]([H:12])=[C:4]([H:13])[N:5]([H:14])[C:6]1=[O:7])([H:8])([H:9])[H:10]>>[C:1]([C:2]1=[C:6]([O-:7])[N+:5]([H:11])([H:14])[C:4]([H:13])=[C:3]1[H:12])([H:8])([H:9])[H:10]"
C       -1.96962898       0.25467673       0.20259838
C       -0.49304037       0.14873538      -0.00742284
C        0.49704709       1.02115962       0.53188568
C        1.73905422       0.50613815       0.29468893
N        1.55155937      -0.67439101      -0.40673077
C        0.11691722      -1.14224149      -0.20388780
O       -0.23833949      -2.28520270      -0.39135694
H       -2.30691343       1.28722240       0.10423795
H       -2.26166009      -0.10359840       1.19311727
H       -2.49633914      -0.35772311      -0.52968581
H        0.59146390      -0.30696396      -1.40437996
H        0.30764437       2.03233388       0.86086339
H        2.70015881       0.99410022       0.31056168
H        2.26207653      -1.37424571      -0.55448917
14
Frame=6 idx=007014 GeodesicLength=0.4159832893672663 rxn_smarts="[C:1]([C@@:2]1([H:11])[C:3]([H:12])=[C:4]([H:13])[N:5]([H:14])[C:6]1=[O:7])([H:8])([H:9])[H:10]>>[C:1]([C:2]1=[C:6]([O-:7])[N+:5]([H:11])([H:14])[C:4]([H:13])=[C:3]1[H:12])([H:8])([H:9])[H:10]"
C       -1.96707170       0.25314292       0.20012247
C       -0.49123229       0.15100831      -0.02366314
C        0.49832629       1.01712975       0.53949801
C        1.73832875       0.50193019       0.30272557
N        1.54800568      -0.67233282      -0.41797933
C        0.11848754      -1.14633765      -0.19309688
O       -0.23802631      -2.28584896      -0.39440534
H       -2.31127894       1.28108169       0.07881695
H       -2.24847830      -0.08042743       1.20224871
H       -2.49676162      -0.38050386      -0.51161729
H        0.58112142      -0.28086850      -1.41636281
H        0.30993101       2.02967684       0.86497264
H        2.70063174       0.98740283       0.32303221
H        2.25801672      -1.37505331      -0.55429178
14
Frame=7 idx=007014 GeodesicLength=0.4854608341749258 rxn_smarts="[C:1]([C@@:2]1([H:11])[C:3]([H:12])=[C:4]([H:13])[N:5]([H:14])[C:6]1=[O:7])([H:8])([H:9])[H:10]>>[C:1]([C:2]1=[C:6]([O-:7])[N+:5]([H:11])([H:14])[C:4]([H:13])=[C:3]1[H:12])([H:8])([H:9])[H:10]"
C       -1.96441000       0.25155768       0.19762034
C       -0.48931329       0.15270166      -0.03889365
C        0.49952766       1.01311397       0.54677056
C        1.73751521       0.49760899       0.31054442
N        1.54415163      -0.67031969      -0.42914425
C        0.12010182      -1.15057150      -0.18166994
O       -0.23757517      -2.28643481      -0.39723207
H       -2.31555344       1.27427559       0.05301747
H       -2.23573514      -0.05671190       1.21054878
H       -2.49649445      -0.40297612      -0.49316561
H        0.57079728      -0.25395054      -1.42814109
H        0.31217343       2.02687707       0.86915294
H        2.70110014       0.98034574       0.33541929
H        2.25371431      -1.37551614      -0.55482717
14
Frame=8 idx=007014 GeodesicLength=0.5549523289854377 rxn_smarts="[C:1]([C@@:2]1([H:11])[C:3]([H:12])=[C:4]([H:13])[N:5]([H:14])[C:6]1=[O:7])([H:8])([H:9])[H:10]>>[C:1]([C:2]1=[C:6]([O-:7])[N+:5]([H:11])([H:14])[C:4]([H:13])=[C:3]1[H:12])([H:8])([H:9])[H:10]"
C       -1.96166172       0.24988974       0.19509685
C       -0.48725850       0.15377269      -0.05316572
C        0.50068175       1.00903289       0.55391096
C        1.73664600       0.49315255       0.31819802
N        1.54000865      -0.66838780      -0.44016888
C        0.12179980      -1.15497828      -0.16960184
O       -0.23700769      -2.28699579      -0.39984071
H       -2.31968284       1.26676307       0.02712003
H       -2.22369901      -0.03259594       1.21791501
H       -2.49555044      -0.42492202      -0.47442019
H        0.56057543      -0.22610878      -1.43963778
H        0.31439194       2.02404457       0.87313664
H        2.70154433       0.97302798       0.34750526
H        2.24921230      -1.37569489      -0.55604765
14
Frame=9 idx=007014 GeodesicLength=0.6245198149918272 rxn_smarts="[C:1]([C@@:2]1([H:11])[C:3]([H:12])=[C:4]([H:13])[N:5]([H:14])[C:6]1=[O:7])([H:8])([H:9])[H:10]>>[C:1]([C:2]1=[C:6]([O-:7])[N+:5]([H:11])([H:14])[C:4]([H:13])=[C:3]1[H:12])([H:8])([H:9])[H:10]"
C       -1.95884370       0.24815591       0.19251709
C       -0.48510294       0.15431977      -0.06666103
C        0.50178538       1.00491109       0.56085359
C        1.73570968       0.48853956       0.32569033
N        1.53552097      -0.66652314      -0.45109571
C        0.12354984      -1.15952787      -0.15688109
O       -0.23632152      -2.28747994      -0.40213985
H       -2.32373066       1.25853865       0.00087927
H       -2.21204616      -0.00798571       1.22444314
H       -2.49403685      -0.44657543      -0.45527351
H        0.55047803      -0.19722345      -1.45090108
H        0.31658250       2.02109654       0.87712523
H        2.70198801       0.96533875       0.35943304
H        2.24446741      -1.37558473      -0.55798944
14
Frame=10 idx=007014 GeodesicLength=0.6941002780023768 rxn_smarts="[C:1]([C@@:2]1([H:11])[C:3]([H:12])=[C:4]([H:13])[N:5]([H:14])[C:6]1=[O:7])([H:8])([H:9])[H:10]>>[C:1]([C:2]1=[C:6]([O-:7])[N+:5]([H:11])([H:14])[C:4]([H:13])=[C:3]1[H:12])([H:8])([H:9])[H:10]"
C       -1.95595507       0.24633798       0.18986565
C       -0.48281805       0.15430756      -0.07942030
C        0.50286781       1.00069985       0.56772927
C        1.73473970       0.48379004       0.33301361
N        1.53069850      -0.66476300      -0.46188292
C        0.12538589      -1.16425180      -0.14350483
O       -0.23554529      -2.28794412      -0.40405220
H       -2.32763507       1.24957059      -0.02550783
H       -2.20102683       0.01700557       1.23000070
H       -2.49195450      -0.46773017      -0.43582549
H        0.54056740      -0.16721227      -1.46185884
H        0.31875988       2.01802134       0.88111510
H        2.70241445       0.95742937       0.37090536
H        2.23950120      -1.37526094      -0.56057728
14
Frame=11 idx=007014 GeodesicLength=0.7637638513767739 rxn_smarts="[C:1]([C@@:2]1([H:11])[C:3]([H:12])=[C:4]([H:13])[N:5]([H:14])[C:6]1=[O:7])([H:8])([H:9])[H:10]>>[C:1]([C:2]1=[C:6]([O-:7])[N+:5]([H:11])([H:14])[C:4]([H:13])=[C:3]1[H:12])([H:8])([H:9])[H:10]"
C       -1.95302616       0.24442900       0.18713047
C       -0.48042911       0.15375382      -0.09162421
C        0.50392181       0.99640130       0.57451364
C        1.73372746       0.47887322       0.34018265
N        1.52551210      -0.66309377      -0.47259156
C        0.12729333      -1.16917038      -0.12954967
O       -0.23465666      -2.28833827      -0.40555484
H       -2.33148588       1.23979146      -0.05219805
H       -2.19047305       0.04257484       1.23468740
H       -2.48937724      -0.48857303      -0.41585879
H        0.53092520      -0.13589838      -1.47252772
H        0.32090426       2.01481633       0.88509603
H        2.70285878       0.94916359       0.38216132
H        2.23430517      -1.37472973      -0.56386666
14
Frame=12 idx=007014 GeodesicLength=0.8335274106474572 rxn_smarts="[C:1]([C@@:2]1([H:11])[C:3]([H:12])=[C:4]([H:13])[N:5]([H:14])[C:6]1=[O:7])([H:8])([H:9])[H:10]>>[C:1]([C:2]1=[C:6]([O-:7])[N+:5]([H:11])([H:14])[C:4]([H:13])=[C:3]1[H:12])([H:8])([H:9])[H:10]"
C       -1.94999881       0.24244130       0.18426244
C       -0.47792257       0.15272538      -0.10321697
C        0.50494424       0.99197346       0.58125445
C        1.73265690       0.47377134       0.34717191
N        1.51986383      -0.66147361      -0.48331080
C        0.12928004      -1.17422246      -0.11484820
O       -0.23365856      -2.28870591      -0.40634384
H       -2.33514611       1.22919429      -0.07947856
H       -2.18020269       0.06863450       1.23842730
H       -2.48631420      -0.50917707      -0.39549153
H        0.52138548      -0.10310613      -1.48283886
H        0.32302600       2.01138741       0.88928730
H        2.70331225       0.94049167       0.39315413
H        2.22877419      -1.37393415      -0.56802876
14
Frame=13 idx=007014 GeodesicLength=0.9033470126874881 rxn_smarts="[C:1]([C@@:2]1([H:11])[C:3]([H:12])=[C:4]([H:13])[N:5]([H:14])[C:6]1=[O:7])([H:8])([H:9])[H:10]>>[C:1]([C:2]1=[C:6]([O-:7])[N+:5]([H:11])([H:14])[C:4]([H:13])=[C:3]1[H:12])([H:8])([H:9])[H:10]"
C       -1.94692214       0.24035265       0.18125009
C       -0.47530349       0.15119118      -0.11440182
C        0.50595157       0.98740513       0.58797764
C        1.73155389       0.46848612       0.35397391
N        1.51378035      -0.65995154      -0.49400086
C        0.13135183      -1.17943422      -0.09954978
O       -0.23256341      -2.28907927      -0.40642567
H       -2.33873012       1.21772963      -0.10703312
H       -2.17036790       0.09517827       1.24117869
H       -2.48277522      -0.52941563      -0.37466883
H        0.51217019      -0.06872651      -1.49276282
H        0.32512052       2.00777466       0.89356720
H        2.70378266       0.93146305       0.40379592
H        2.22295125      -1.37297352      -0.57290055
14
Frame=14 idx=007014 GeodesicLength=0.9732161910815262 rxn_smarts="[C:1]([C@@:2]1([H:11])[C:3]([H:12])=[C:4]([H:13])[N:5]([H:14])[C:6]1=[O:7])([H:8])([H:9])[H:10]>>[C:1]([C:2]1=[C:6]([O-:7])[N+:5]([H:11])([H:14])[C:4]([H:13])=[C:3]1[H:12])([H:8])([H:9])[H:10]"
C       -1.94377976       0.23816113       0.17804829
C       -0.47254785       0.14916451      -0.12520884
C        0.50695555       0.98265868       0.59473160
C        1.73043536       0.46302390       0.36055336
N        1.50722993      -0.65854524      -0.50467550
C        0.13351336      -1.18480351      -0.08360189
O       -0.23138691      -2.28949911      -0.40557322
H       -2.34216144       1.20541817      -0.13481522
H       -2.16098612       0.12203596       1.24283430
H       -2.47878555      -0.54917911      -0.35356231
H        0.50325881      -0.03263735      -1.50219262
H        0.32719262       2.00391307       0.89806252
H        2.70426405       0.92216825       0.41386415
H        2.21679795      -1.37187936      -0.57846460
14
Frame=15 idx=007014 GeodesicLength=1.043112770378562 rxn_smarts="[C:1]([C@@:2]1([H:11])[C:3]([H:12])=[C:4]([H:13])[N:5]([H:14])[C:6]1=[O:7])([H:8])([H:9])[H:10]>>[C:1]([C:2]1=[C:6]([O-:7])[N+:5]([H:11])([H:14])[C:4]([H:13])=[C:3]1[H:12])([H:8])([H:9])[H:10]"
C       -1.94056123       0.23586538       0.17461263
C       -0.46964814       0.14666418      -0.13570039
C        0.50796176       0.97770489       0.60154633
C        1.72930910       0.45738553       0.36687623
N        1.50017526      -0.65727007      -0.51534663
C        0.13576392      -1.19031028      -0.06698408
O       -0.23014247      -2.29001033      -0.40357899
H       -2.34540938       1.19229657      -0.16272835
H       -2.15203773       0.14904548       1.24332427
H       -2.47434608      -0.56838876      -0.33234120
H        0.49467494       0.00528291      -1.51102488
H        0.32924257       1.99976185       0.90284002
H        2.70474560       0.91266476       0.42318958
H        2.21027188      -1.37069210      -0.58468456
14
Frame=16 idx=007014 GeodesicLength=1.1130249342326555 rxn_smarts="[C:1]([C@@:2]1([H:11])[C:3]([H:12])=[C:4]([H:13])[N:5]([H:14])[C:6]1=[O:7])([H:8])([H:9])[H:10]>>[C:1]([C:2]1=[C:6]([O-:7])[N+:5]([H:11])([H:14])[C:4]([H:13])=[C:3]1[H:12])([H:8])([H:9])[H:10]"
C       -1.93725867       0.23346199       0.17090412
C       -0.46659382       0.14370565      -0.14595106
C        0.50897435       0.97252330       0.60843876
C        1.72818298       0.45157611       0.37290712
N        1.49258499      -0.65614539      -0.52602948
C        0.13810602      -1.19593117      -0.04969462
O       -0.22884426      -2.29066962      -0.40025033
H       -2.34844396       1.17841295      -0.19067139
H       -2.14350368       0.17604138       1.24260394
H       -2.46947236      -0.58697358      -0.31117055
H        0.48644141       0.04515026      -1.51914290
H        0.33126934       1.99529556       0.90793976
H        2.70522301       0.90300756       0.43163606
H        2.20333466      -1.36945499      -0.59151942
