14
Frame=0 idx=003985 GeodesicLength=0.0 rxn_smarts="[C:1]([O:2][C:3]([C:4]([C:5](=[O:6])[H:14])([H:12])[H:13])([H:10])[H:11])([H:7])([H:8])[H:9]>>[C:1]([O:2]/[C:3](=[C:4](\[C:5](=[O:6])[H:14])[H:12])[H:10])([H:7])([H:8])[H:9].[H:11][H:13]"
C        2.03876385       0.54926422      -0.54537709
O        0.65567099       0.73521448      -0.27553176
C        0.09241696      -0.18048993       0.52269042
C       -1.33065849      -0.14317978       0.78649002
C       -2.26162243       0.23093594      -0.23110933
O       -3.44945548       0.43439718      -0.07121742
H        2.36844921       1.42903267      -1.09038054
H        2.18674867      -0.34368733      -1.16061629
H        2.60679664       0.45391769       0.38421453
H        0.69662742      -0.53613399       1.35859527
H        0.40657177      -1.40051815      -0.28370998
H       -1.65210893      -0.27629430       1.80957316
H       -0.53492621      -1.26422941       0.05027947
H       -1.82327393       0.31177075      -1.25390043
14
Frame=1 idx=003985 GeodesicLength=0.09244976845256224 rxn_smarts="[C:1]([O:2][C:3]([C:4]([C:5](=[O:6])[H:14])([H:12])[H:13])([H:10])[H:11])([H:7])([H:8])[H:9]>>[C:1]([O:2]/[C:3](=[C:4](\[C:5](=[O:6])[H:14])[H:12])[H:10])([H:7])([H:8])[H:9].[H:11][H:13]"
C        2.04182159       0.55410735      -0.54292284
O        0.65176238       0.71661699      -0.29934725
C        0.09480683      -0.19058420       0.51593365
C       -1.32691851      -0.15770223       0.77969689
C       -2.26199439       0.25036096      -0.22475388
O       -3.44749384       0.45267456      -0.05206461
H        2.35904561       1.42065140      -1.11609846
H        2.22225483      -0.35689798      -1.12203593
H        2.59846482       0.50805065       0.39739982
H        0.70033354      -0.51603132       1.36339494
H        0.40234344      -1.43301908      -0.28531074
H       -1.64898262      -0.29872181       1.80192720
H       -0.55382817      -1.29556892       0.03323250
H       -1.83161551       0.34606363      -1.24905128
14
Frame=2 idx=003985 GeodesicLength=0.18471585420224323 rxn_smarts="[C:1]([O:2][C:3]([C:4]([C:5](=[O:6])[H:14])([H:12])[H:13])([H:10])[H:11])([H:7])([H:8])[H:9]>>[C:1]([O:2]/[C:3](=[C:4](\[C:5](=[O:6])[H:14])[H:12])[H:10])([H:7])([H:8])[H:9].[H:11][H:13]"
C        2.04445390       0.55908557      -0.54071909
O        0.64834146       0.69721507      -0.32269959
C        0.09754329      -0.20090674       0.50975527
C       -1.32308854      -0.17304688       0.77242145
C       -2.26141162       0.27010430      -0.21803179
O       -3.44451498       0.47119785      -0.03293556
H        2.34991908       1.41055204      -1.14248678
H        2.25713271      -0.36834528      -1.08170057
H        2.58829422       0.56325624       0.40836048
H        0.70372265      -0.49468253       1.36864705
H        0.39784872      -1.46628446      -0.28591372
H       -1.64613661      -0.32238009       1.79363588
H       -0.57352288      -1.32730790       0.01500203
H       -1.83858140       0.38154282      -1.24333506
14
Frame=3 idx=003985 GeodesicLength=0.27685854131486076 rxn_smarts="[C:1]([O:2][C:3]([C:4]([C:5](=[O:6])[H:14])([H:12])[H:13])([H:10])[H:11])([H:7])([H:8])[H:9]>>[C:1]([O:2]/[C:3](=[C:4](\[C:5](=[O:6])[H:14])[H:12])[H:10])([H:7])([H:8])[H:9].[H:11][H:13]"
C        2.04668278       0.56416166      -0.53879034
O        0.64545777       0.67705451      -0.34552282
C        0.10065377      -0.21137956       0.50422483
C       -1.31915780      -0.18921015       0.76458764
C       -2.25982283       0.29011619      -0.21084992
O       -3.44052860       0.48971528      -0.01381183
H        2.34118330       1.39869793      -1.16937496
H        2.29125565      -0.37790106      -1.03982302
H        2.57630849       0.61924668       0.41698958
H        0.70665871      -0.47181675       1.37440729
H        0.39300149      -1.50027749      -0.28543075
H       -1.64357482      -0.34725587       1.78455837
H       -0.59404281      -1.35939765      -0.00455748
H       -1.84407509       0.41824628      -1.23660658
14
Frame=4 idx=003985 GeodesicLength=0.3689112236543136 rxn_smarts="[C:1]([O:2][C:3]([C:4]([C:5](=[O:6])[H:14])([H:12])[H:13])([H:10])[H:11])([H:7])([H:8])[H:9]>>[C:1]([O:2]/[C:3](=[C:4](\[C:5](=[O:6])[H:14])[H:12])[H:10])([H:7])([H:8])[H:9].[H:11][H:13]"
C        2.04854674       0.56928535      -0.53713849
O        0.64316074       0.65613581      -0.36777417
C        0.10416402      -0.22194398       0.49939517
C       -1.31511750      -0.20621065       0.75610422
C       -2.25718274       0.31032087      -0.20308229
O       -3.43553348       0.50803423       0.00538718
H        2.33297918       1.38496443      -1.19665734
H        2.32461264      -0.38541393      -0.99637628
H        2.56247369       0.67589947       0.42309769
H        0.70895750      -0.44718107       1.38064417
H        0.38765605      -1.53496385      -0.28384697
H       -1.64128454      -0.37335512       1.77454362
H       -0.61543230      -1.39180053      -0.02563489
H       -1.84800000       0.45622897      -1.22866162
14
Frame=5 idx=003985 GeodesicLength=0.46100364339418926 rxn_smarts="[C:1]([O:2][C:3]([C:4]([C:5](=[O:6])[H:14])([H:12])[H:13])([H:10])[H:11])([H:7])([H:8])[H:9]>>[C:1]([O:2]/[C:3](=[C:4](\[C:5](=[O:6])[H:14])[H:12])[H:10])([H:7])([H:8])[H:9].[H:11][H:13]"
C        2.05005750       0.57446698      -0.53576239
O        0.64139150       0.63457612      -0.38951996
C        0.10809380      -0.23238848       0.49535621
C       -1.31095096      -0.22400889       0.74697774
C       -2.25353836       0.33052836      -0.19482541
O       -3.42955784       0.52609829       0.02451898
H        2.32547970       1.36972650      -1.22380955
H        2.35693993      -0.39080686      -0.95200660
H        2.54721100       0.73248547       0.42664461
H        0.71059941      -0.42048625       1.38741605
H        0.38166337      -1.57020176      -0.28091518
H       -1.63923601      -0.40066861       1.76368993
H       -0.63775069      -1.42442661      -0.04826872
H       -1.85040235       0.49510576      -1.21949571
14
Frame=6 idx=003985 GeodesicLength=0.5530664510522376 rxn_smarts="[C:1]([O:2][C:3]([C:4]([C:5](=[O:6])[H:14])([H:12])[H:13])([H:10])[H:11])([H:7])([H:8])[H:9]>>[C:1]([O:2]/[C:3](=[C:4](\[C:5](=[O:6])[H:14])[H:12])[H:10])([H:7])([H:8])[H:9].[H:11][H:13]"
C        2.05128120       0.57964246      -0.53464788
O        0.64028157       0.61228348      -0.41062129
C        0.11247321      -0.24274637       0.49213030
C       -1.30661583      -0.24263836       0.73706664
C       -2.24880449       0.35068000      -0.18585631
O       -3.42259698       0.54357550       0.04380885
H        2.31875723       1.35250786      -1.25105763
H        2.38842205      -0.39397523      -0.90621080
H        2.53021571       0.78939306       0.42743948
H        0.71129793      -0.39158524       1.39456360
H        0.37476442      -1.60597800      -0.27688786
H       -1.63736499      -0.42915861       1.75173342
H       -0.66102425      -1.45730476      -0.07266229
H       -1.85108678       0.53530422      -1.20879824
14
Frame=7 idx=003985 GeodesicLength=0.6451049829470749 rxn_smarts="[C:1]([O:2][C:3]([C:4]([C:5](=[O:6])[H:14])([H:12])[H:13])([H:10])[H:11])([H:7])([H:8])[H:9]>>[C:1]([O:2]/[C:3](=[C:4](\[C:5](=[O:6])[H:14])[H:12])[H:10])([H:7])([H:8])[H:9].[H:11][H:13]"
C        2.05224606       0.58477965      -0.53379787
O        0.63986187       0.58929283      -0.43099427
C        0.11734355      -0.25295577       0.48979649
C       -1.30206069      -0.26205933       0.72634435
C       -2.24295546       0.37057649      -0.17613542
O       -3.41464127       0.56031772       0.06312089
H        2.31286555       1.33341965      -1.27821140
H        2.41894700      -0.39485186      -0.85925972
H        2.51158435       0.84636533       0.42545974
H        0.71088657      -0.36029680       1.40200925
H        0.36672119      -1.64220673      -0.27185538
H       -1.63560820      -0.45869246       1.73864691
H       -0.68528534      -1.49045082      -0.09877355
H       -1.84990518       0.57676210      -1.19635001
14
Frame=8 idx=003985 GeodesicLength=0.7371266336997206 rxn_smarts="[C:1]([O:2][C:3]([C:4]([C:5](=[O:6])[H:14])([H:12])[H:13])([H:10])[H:11])([H:7])([H:8])[H:9]>>[C:1]([O:2]/[C:3](=[C:4](\[C:5](=[O:6])[H:14])[H:12])[H:10])([H:7])([H:8])[H:9].[H:11][H:13]"
C        2.05298081       0.58987397      -0.53320064
O        0.64019287       0.56558339      -0.45056662
C        0.12273921      -0.26297798       0.48839541
C       -1.29722194      -0.28219758       0.71477831
C       -2.23596360       0.39007902      -0.16566243
O       -3.40571993       0.57604360       0.08245689
H        2.30795812       1.31233483      -1.30512084
H        2.44852118      -0.39320689      -0.81104347
H        2.49127154       0.90330269       0.42046159
H        0.70918578      -0.32656719       1.40957288
H        0.35723317      -1.67879915      -0.26603553
H       -1.63387595      -0.48911783       1.72441819
H       -0.71062580      -1.52389737      -0.12654888
H       -1.84667547       0.61954649      -1.18190485
14
Frame=9 idx=003985 GeodesicLength=0.8291805441088269 rxn_smarts="[C:1]([O:2][C:3]([C:4]([C:5](=[O:6])[H:14])([H:12])[H:13])([H:10])[H:11])([H:7])([H:8])[H:9]>>[C:1]([O:2]/[C:3](=[C:4](\[C:5](=[O:6])[H:14])[H:12])[H:10])([H:7])([H:8])[H:9].[H:11][H:13]"
C        2.05351882       0.59494899      -0.53280611
O        0.64125856       0.54111858      -0.46931620
C        0.12869445      -0.27269753       0.48798988
C       -1.29202307      -0.30299411       0.70239533
C       -2.22788778       0.40887047      -0.15458296
O       -3.39582888       0.59072958       0.10169612
H        2.30417981       1.28946098      -1.33134734
H        2.47705791      -0.38890556      -0.76185046
H        2.46959271       0.95983513       0.41236487
H        0.70609833      -0.29020341       1.41699492
H        0.34596931      -1.71555167      -0.25955764
H       -1.63204462      -0.52030880       1.70918429
H       -0.73720940      -1.55766572      -0.15586429
H       -1.84137615       0.66336306      -1.16530042
14
Frame=10 idx=003985 GeodesicLength=0.9213025466605379 rxn_smarts="[C:1]([O:2][C:3]([C:4]([C:5](=[O:6])[H:14])([H:12])[H:13])([H:10])[H:11])([H:7])([H:8])[H:9]>>[C:1]([O:2]/[C:3](=[C:4](\[C:5](=[O:6])[H:14])[H:12])[H:10])([H:7])([H:8])[H:9].[H:11][H:13]"
C        2.05390307       0.60000833      -0.53260106
O        0.64315020       0.51590969      -0.48712368
C        0.13525376      -0.28218194       0.48860950
C       -1.28638376      -0.32433904       0.68920781
C       -2.21867405       0.42686651      -0.14284278
O       -3.38497203       0.60418574       0.12078289
H        2.30151966       1.26469516      -1.35703272
H        2.50464696      -0.38186099      -0.71150442
H        2.44632545       1.01617042       0.40117860
H        0.70148112      -0.25143976       1.42406284
H        0.33271394      -1.75245458      -0.25287503
H       -1.63003818      -0.55202140       1.69293238
H       -0.76515624      -1.59188645      -0.18646988
H       -1.83376989       0.70834831      -1.14632445
14
Frame=11 idx=003985 GeodesicLength=1.0133662900359632 rxn_smarts="[C:1]([O:2][C:3]([C:4]([C:5](=[O:6])[H:14])([H:12])[H:13])([H:10])[H:11])([H:7])([H:8])[H:9]>>[C:1]([O:2]/[C:3](=[C:4](\[C:5](=[O:6])[H:14])[H:12])[H:10])([H:7])([H:8])[H:9].[H:11][H:13]"
C        2.05413815       0.60515141      -0.53257300
O        0.64581936       0.49019176      -0.50396812
C        0.14246244      -0.29135564       0.49033130
C       -1.28024023      -0.34602341       0.67529158
C       -2.20833597       0.44383871      -0.13062762
O       -3.37313208       0.61647051       0.13945282
H        2.29983314       1.23878368      -1.38178571
H        2.53111222      -0.37216771      -0.66093256
H        2.42197623       1.07158891       0.38738564
H        0.69541982      -0.21045834       1.43082485
H        0.31728964      -1.78927770      -0.24619698
H       -1.62782671      -0.58385980       1.67580360
H       -0.79465735      -1.62661597      -0.21781680
H       -1.82385867       0.75373359      -1.12518901
14
Frame=12 idx=003985 GeodesicLength=1.1053609569642693 rxn_smarts="[C:1]([O:2][C:3]([C:4]([C:5](=[O:6])[H:14])([H:12])[H:13])([H:10])[H:11])([H:7])([H:8])[H:9]>>[C:1]([O:2]/[C:3](=[C:4](\[C:5](=[O:6])[H:14])[H:12])[H:10])([H:7])([H:8])[H:9].[H:11][H:13]"
C        2.05426128       0.61042397      -0.53266008
O        0.64932510       0.46393673      -0.51973379
C        0.15035961      -0.30022842       0.49318309
C       -1.27350356      -0.36795391       0.66072046
C       -2.19687750       0.45963368      -0.11806091
O       -3.36030225       0.62753089       0.15762051
H        2.29919509       1.21174125      -1.40543882
H        2.55650220      -0.35960121      -0.61008195
H        2.39647704       1.12611334       0.37088744
H        0.68787464      -0.16755072       1.43692727
H        0.29944488      -1.82589084      -0.23994722
H       -1.62528972      -0.61555967       1.65792883
H       -0.82595369      -1.66197383      -0.24956267
H       -1.81151311       0.79937874      -1.10178215
14
Frame=13 idx=003985 GeodesicLength=1.1973859126413495 rxn_smarts="[C:1]([O:2][C:3]([C:4]([C:5](=[O:6])[H:14])([H:12])[H:13])([H:10])[H:11])([H:7])([H:8])[H:9]>>[C:1]([O:2]/[C:3](=[C:4](\[C:5](=[O:6])[H:14])[H:12])[H:10])([H:7])([H:8])[H:9].[H:11][H:13]"
C        2.05428610       0.61589359      -0.53279024
O        0.65373855       0.43690557      -0.53442766
C        0.15896151      -0.30887613       0.49713304
C       -1.26607020      -0.39007066       0.64553043
C       -2.18434461       0.47405351      -0.10538428
O       -3.34644404       0.63743837       0.17534655
H        2.29979950       1.18345401      -1.42782682
H        2.58096696      -0.34379027      -0.55855346
H        2.36962061       1.17994900       0.35141570
H        0.67880429      -0.12300665       1.44189958
H        0.27902745      -1.86220711      -0.23457469
H       -1.62227440      -0.64694774       1.63942811
H       -0.85943175      -1.69813612      -0.28138276
H       -1.79663997       0.84534063      -1.07581351
14
Frame=14 idx=003985 GeodesicLength=1.2893314402790832 rxn_smarts="[C:1]([O:2][C:3]([C:4]([C:5](=[O:6])[H:14])([H:12])[H:13])([H:10])[H:11])([H:7])([H:8])[H:9]>>[C:1]([O:2]/[C:3](=[C:4](\[C:5](=[O:6])[H:14])[H:12])[H:10])([H:7])([H:8])[H:9].[H:11][H:13]"
C        2.05420886       0.62166866      -0.53294520
O        0.65908480       0.40929611      -0.54793213
C        0.16830127      -0.31728405       0.50221962
C       -1.25787660      -0.41219960       0.62982514
C       -2.17068611       0.48707075      -0.09270852
O       -3.33151399       0.64630019       0.19241727
H        2.30147938       1.15439981      -1.44880287
H        2.60443065      -0.32470004      -0.50687456
H        2.34149677       1.23280334       0.32932744
H        0.66836683      -0.07739305       1.44570310
H        0.25596350      -1.89812298      -0.23037923
H       -1.61876982      -0.67769417       1.62042720
H       -0.89533833      -1.73517857      -0.31269506
H       -1.77914722       0.89103359      -1.04758219
14
Frame=15 idx=003985 GeodesicLength=1.3812814236947684 rxn_smarts="[C:1]([O:2][C:3]([C:4]([C:5](=[O:6])[H:14])([H:12])[H:13])([H:10])[H:11])([H:7])([H:8])[H:9]>>[C:1]([O:2]/[C:3](=[C:4](\[C:5](=[O:6])[H:14])[H:12])[H:10])([H:7])([H:8])[H:9].[H:11][H:13]"
C        2.05403390       0.62784570      -0.53307399
O        0.66543810       0.38101022      -0.56023195
C        0.17839033      -0.32550304       0.50841451
C       -1.24884276      -0.43427249       0.61366390
C       -2.15589975       0.49861088      -0.08027255
O       -3.31544873       0.65426905       0.20882419
H        2.30428782       1.12469641      -1.46823731
H        2.62696300      -0.30206242      -0.45494112
H        2.31188383       1.28476927       0.30458437
H        0.65670537      -0.03125234       1.44808103
H        0.23020339      -1.93357449      -0.22773195
H       -1.61469409      -0.70758558       1.60103460
H       -0.93407221      -1.77324317      -0.34305075
H       -1.75894819       0.93629200      -1.01706296
14
Frame=16 idx=003985 GeodesicLength=1.473306987909219 rxn_smarts="[C:1]([O:2][C:3]([C:4]([C:5](=[O:6])[H:14])([H:12])[H:13])([H:10])[H:11])([H:7])([H:8])[H:9]>>[C:1]([O:2]/[C:3](=[C:4](\[C:5](=[O:6])[H:14])[H:12])[H:10])([H:7])([H:8])[H:9].[H:11][H:13]"
C        2.05373614       0.63455042      -0.53312790
O        0.67285122       0.35207417      -0.57126456
C        0.18923233      -0.33353333       0.51571470
C       -1.23890543      -0.45620856       0.59711797
C       -2.13997542       0.50863027      -0.06832945
O       -3.29815134       0.66160215       0.22453087
H        2.30821402       1.09476817      -1.48588043
H        2.64850144      -0.27569268      -0.40306222
H        2.28081199       1.33561337       0.27736190
H        0.64400685       0.01489075       1.44891056
H        0.20178941      -1.96844903      -0.22689415
H       -1.61000941      -0.73643105       1.58137189
H       -0.97604199      -1.81242586      -0.37190542
H       -1.73605981       0.98061120      -0.98454377
