11
Frame=0 idx=000631 GeodesicLength=0.0 rxn_smarts="[O:1]=[C:2]([N:3]([C:4]([C:5]#[C:6][H:11])([H:9])[H:10])[H:8])[H:7]>>[O:1]=[C:2]([N:3]([C:6](=[C:5]=[C:4]([H:9])[H:10])[H:11])[H:8])[H:7]"
O       -1.92665738       1.29722229       0.02660769
C       -1.45865984       0.24456587       0.30747914
N       -0.02523413       0.05377777       0.49370339
C        0.92756399       0.59275445      -0.64077786
C        1.39760604      -0.80796368      -0.94449226
C        0.58292342      -1.26214149       0.01618732
H       -2.02300019      -0.69535212       0.40549506
H        0.24781806       0.37176061       1.42445878
H        0.32272793       1.10939840      -1.38599074
H        1.65377712       1.28264213      -0.20783949
H        0.30113502      -2.18666419       0.50516901
11
Frame=1 idx=000631 GeodesicLength=0.14744376716530172 rxn_smarts="[O:1]=[C:2]([N:3]([C:4]([C:5]#[C:6][H:11])([H:9])[H:10])[H:8])[H:7]>>[O:1]=[C:2]([N:3]([C:6](=[C:5]=[C:4]([H:9])[H:10])[H:11])[H:8])[H:7]"
O       -1.91365840       1.32966122       0.02189838
C       -1.46725030       0.26732120       0.30580710
N       -0.04554304       0.04336381       0.49612694
C        0.92611223       0.59998656      -0.65367354
C        1.43342071      -0.78741856      -0.90999389
C        0.60681224      -1.27949441       0.01264980
H       -2.05799527      -0.64951385       0.45539282
H        0.20609628       0.29824079       1.45159183
H        0.33397440       1.08156883      -1.43157250
H        1.63341636       1.31501640      -0.23063814
H        0.34461477      -2.21873201       0.48241120
11
Frame=2 idx=000631 GeodesicLength=0.29448750806338 rxn_smarts="[O:1]=[C:2]([N:3]([C:4]([C:5]#[C:6][H:11])([H:9])[H:10])[H:8])[H:7]>>[O:1]=[C:2]([N:3]([C:6](=[C:5]=[C:4]([H:9])[H:10])[H:11])[H:8])[H:7]"
O       -1.89841502       1.36387284       0.02050052
C       -1.47582651       0.29078018       0.30501081
N       -0.06669978       0.03176503       0.49923440
C        0.92372035       0.60690842      -0.66732451
C        1.46737697      -0.76531558      -0.87391700
C        0.63291643      -1.29683871       0.01033521
H       -2.09331287      -0.59942508       0.50187120
H        0.15962151       0.21991557       1.47598084
H        0.34547441       1.05174917      -1.47668873
H        1.61177834       1.34702559      -0.25612455
H        0.39336617      -2.25043742       0.46112181
11
Frame=3 idx=000631 GeodesicLength=0.44102441319900126 rxn_smarts="[O:1]=[C:2]([N:3]([C:4]([C:5]#[C:6][H:11])([H:9])[H:10])[H:8])[H:7]>>[O:1]=[C:2]([N:3]([C:6](=[C:5]=[C:4]([H:9])[H:10])[H:11])[H:8])[H:7]"
O       -1.88062390       1.40012953       0.02304157
C       -1.48434837       0.31526098       0.30557897
N       -0.08889002       0.01887975       0.50307254
C        0.92028806       0.61341280      -0.68179119
C        1.49864800      -0.74174737      -0.83687693
C        0.66144499      -1.31402943       0.00965104
H       -2.12900877      -0.54552676       0.54365183
H        0.10819537       0.13656897       1.49687927
H        0.35700602       1.02026078      -1.52096135
H        1.58916508       1.37814357      -0.28443639
H        0.44812354      -2.28135281       0.44219061
11
Frame=4 idx=000631 GeodesicLength=0.5869980713197571 rxn_smarts="[O:1]=[C:2]([N:3]([C:4]([C:5]#[C:6][H:11])([H:9])[H:10])[H:8])[H:7]>>[O:1]=[C:2]([N:3]([C:6](=[C:5]=[C:4]([H:9])[H:10])[H:11])[H:8])[H:7]"
O       -1.85987877       1.43859807       0.03001369
C       -1.49268446       0.34103087       0.30782765
N       -0.11229067       0.00446363       0.50757084
C        0.91578655       0.61942067      -0.69710837
C        1.52733746      -0.71659156      -0.79872953
C        0.69266059      -1.33092206       0.01085815
H       -2.16512412      -0.48802598       0.58086688
H        0.05133763       0.04807558       1.51334168
H        0.36849462       0.98686712      -1.56440941
H        1.56549761       1.40831981      -0.31569255
H        0.50886357      -2.31123615       0.42546097
11
Frame=5 idx=000631 GeodesicLength=0.7323236705219831 rxn_smarts="[O:1]=[C:2]([N:3]([C:4]([C:5]#[C:6][H:11])([H:9])[H:10])[H:8])[H:7]>>[O:1]=[C:2]([N:3]([C:6](=[C:5]=[C:4]([H:9])[H:10])[H:11])[H:8])[H:7]"
O       -1.83579478       1.47943696       0.04197622
C       -1.50073453       0.36846433       0.31232187
N       -0.13720663      -0.01166170       0.51259923
C        0.91016149       0.62483190      -0.71332061
C        1.55288361      -0.68994516      -0.75992896
C        0.72690551      -1.34725364       0.01460326
H       -2.20170505      -0.42733702       0.61288090
H       -0.01119117      -0.04578841       1.52418407
H        0.37971330       0.95173989      -1.60678534
H        1.54100755       1.43715663      -0.34994985
H        0.57596069      -2.33964378       0.41141921
11
Frame=6 idx=000631 GeodesicLength=0.8769428204648564 rxn_smarts="[O:1]=[C:2]([N:3]([C:4]([C:5]#[C:6][H:11])([H:9])[H:10])[H:8])[H:7]>>[O:1]=[C:2]([N:3]([C:6](=[C:5]=[C:4]([H:9])[H:10])[H:11])[H:8])[H:7]"
O       -1.80782274       1.52278023       0.05963013
C       -1.50834540       0.39788755       0.31948892
N       -0.16403159      -0.02987129       0.51777714
C        0.90338023       0.62954944      -0.73049507
C        1.57517981      -0.66177905      -0.72056031
C        0.76449115      -1.36275521       0.02135492
H       -2.23883206      -0.36351134       0.63988478
H       -0.08007404      -0.14546106       1.52782270
H        0.39054872       0.91478312      -1.64807555
H        1.51572764       1.46444620      -0.38724748
H        0.64977829      -2.36606859       0.40041981
11
Frame=7 idx=000631 GeodesicLength=1.0207563682155343 rxn_smarts="[O:1]=[C:2]([N:3]([C:4]([C:5]#[C:6][H:11])([H:9])[H:10])[H:8])[H:7]>>[O:1]=[C:2]([N:3]([C:6](=[C:5]=[C:4]([H:9])[H:10])[H:11])[H:8])[H:7]"
O       -1.77524165       1.56864660       0.08386095
C       -1.51533911       0.42954755       0.32978821
N       -0.19331996      -0.05068669       0.52245396
C        0.89541758       0.63345839      -0.74872589
C        1.59408745      -0.63207396      -0.68073313
C        0.80595729      -1.37698998       0.03194911
H       -2.27656354      -0.29637322       0.66234812
H       -0.15619108      -0.25149952       1.52208275
H        0.40088483       0.87587005      -1.68828558
H        1.48965936       1.48997973      -0.42762333
H        0.73064883      -2.38987895       0.39288483
11
Frame=8 idx=000631 GeodesicLength=1.1636564223504848 rxn_smarts="[O:1]=[C:2]([N:3]([C:4]([C:5]#[C:6][H:11])([H:9])[H:10])[H:8])[H:7]>>[O:1]=[C:2]([N:3]([C:6](=[C:5]=[C:4]([H:9])[H:10])[H:11])[H:8])[H:7]"
O       -1.73690367       1.61727474       0.11634464
C       -1.52158734       0.46386548       0.34392096
N       -0.22609762      -0.07498584       0.52532060
C        0.88617309       0.63639125      -0.76818599
C        1.60913719      -0.60099558      -0.64089716
C        0.85163861      -1.38947718       0.04721217
H       -2.31513800      -0.22537924       0.68045766
H       -0.24062231      -0.36516902       1.50355607
H        0.41047328       0.83507610      -1.72740931
H        1.46288599       1.51332978      -0.47101380
H        0.82004079      -2.40993049       0.39069418
11
Frame=9 idx=000631 GeodesicLength=1.3056165448311543 rxn_smarts="[O:1]=[C:2]([N:3]([C:4]([C:5]#[C:6][H:11])([H:9])[H:10])[H:8])[H:7]>>[O:1]=[C:2]([N:3]([C:6](=[C:5]=[C:4]([H:9])[H:10])[H:11])[H:8])[H:7]"
O       -1.69071435       1.66849934       0.15968097
C       -1.52638025       0.50097415       0.36276265
N       -0.26314510      -0.10371877       0.52496121
C        0.87549276       0.63813016      -0.78931945
C        1.62095847      -0.56786112      -0.60003109
C        0.90322785      -1.39869518       0.06979033
H       -2.35429957      -0.14926538       0.69558530
H       -0.33650042      -0.48876776       1.46734557
H        0.41906171       0.79084453      -1.76604011
H        1.43462043       1.53490504      -0.51871661
H        0.91767847      -2.42504502       0.39398123
11
Frame=10 idx=000631 GeodesicLength=1.446347928597064 rxn_smarts="[O:1]=[C:2]([N:3]([C:4]([C:5]#[C:6][H:11])([H:9])[H:10])[H:8])[H:7]>>[O:1]=[C:2]([N:3]([C:6](=[C:5]=[C:4]([H:9])[H:10])[H:11])[H:8])[H:7]"
O       -1.63335041       1.72244255       0.21882408
C       -1.52883944       0.54166417       0.38887701
N       -0.30634737      -0.13829472       0.51830729
C        0.86299749       0.63834763      -0.81288678
C        1.62832479      -0.53293731      -0.55906029
C        0.96114509      -1.40278562       0.10235066
H       -2.39397668      -0.06636866       0.70789531
H       -0.44761036      -0.62703923       1.40323492
H        0.42575281       0.74292038      -1.80446252
H        1.40505313       1.55390747      -0.57175475
H        1.02685094      -2.43185665       0.40867507
11
Frame=11 idx=000631 GeodesicLength=1.5845636991667815 rxn_smarts="[O:1]=[C:2]([N:3]([C:4]([C:5]#[C:6][H:11])([H:9])[H:10])[H:8])[H:7]>>[O:1]=[C:2]([N:3]([C:6](=[C:5]=[C:4]([H:9])[H:10])[H:11])[H:8])[H:7]"
O       -1.55985744       1.77654745       0.30021658
C       -1.52689416       0.58501880       0.42609289
N       -0.35724640      -0.17990874       0.50119657
C        0.84857098       0.63640378      -0.84049513
C        1.63106581      -0.49573880      -0.51744193
C        1.02849170      -1.39579834       0.15437517
H       -2.43234623       0.02539571       0.72224742
H       -0.58071943      -0.78500149       1.29214160
H        0.42994605       0.68896380      -1.84394997
H        1.37335678       1.57013357      -0.63272918
H        1.14563234      -2.42601573       0.43834600
11
Frame=12 idx=000631 GeodesicLength=1.7161771405780313 rxn_smarts="[O:1]=[C:2]([N:3]([C:4]([C:5]#[C:6][H:11])([H:9])[H:10])[H:8])[H:7]>>[O:1]=[C:2]([N:3]([C:6](=[C:5]=[C:4]([H:9])[H:10])[H:11])[H:8])[H:7]"
O       -1.47094774       1.82040602       0.39969411
C       -1.52039634       0.62422574       0.47738633
N       -0.41937316      -0.22981356       0.46191622
C        0.83534373       0.63270391      -0.87339469
C        1.62632319      -0.45928538      -0.47635125
C        1.09806988      -1.37232700       0.22971107
H       -2.46311892       0.12292041       0.76291858
H       -0.73242200      -0.95444848       1.10772168
H        0.43758680       0.63369492      -1.88633219
H        1.34292919       1.58229459      -0.69674667
H        1.26600537      -2.40037116       0.49347683
11
Frame=13 idx=000631 GeodesicLength=1.8437916618278052 rxn_smarts="[O:1]=[C:2]([N:3]([C:4]([C:5]#[C:6][H:11])([H:9])[H:10])[H:8])[H:7]>>[O:1]=[C:2]([N:3]([C:6](=[C:5]=[C:4]([H:9])[H:10])[H:11])[H:8])[H:7]"
O       -1.38744287       1.84187053       0.48750483
C       -1.50809467       0.64881532       0.54962759
N       -0.48721285      -0.27614246       0.40035821
C        0.82934964       0.63021009      -0.91036210
C        1.60787362      -0.43297078      -0.44288249
C        1.14766145      -1.33734166       0.31212147
H       -2.47290837       0.20142471       0.85095853
H       -0.87548050      -1.10182139       0.85148097
H        0.45637259       0.59072330      -1.93146320
H        1.32498105       1.58888453      -0.75073799
H        1.36490090      -2.35365219       0.58339418
11
Frame=14 idx=000631 GeodesicLength=1.9783447062424986 rxn_smarts="[O:1]=[C:2]([N:3]([C:4]([C:5]#[C:6][H:11])([H:9])[H:10])[H:8])[H:7]>>[O:1]=[C:2]([N:3]([C:6](=[C:5]=[C:4]([H:9])[H:10])[H:11])[H:8])[H:7]"
O       -1.33609122       1.84147951       0.53147103
C       -1.49172667       0.65359223       0.62913877
N       -0.55138311      -0.30809467       0.33368443
C        0.83455656       0.63029299      -0.94690636
C        1.57915862      -0.41778014      -0.41395692
C        1.16916194      -1.30201835       0.38660736
H       -2.45293849       0.24084019       0.98635949
H       -0.98935010      -1.18935346       0.58180557
H        0.49217989       0.56154531      -1.97666064
H        1.32149610       1.59306933      -0.78799310
H        1.42493647      -2.30357293       0.67645037
11
Frame=15 idx=000631 GeodesicLength=2.1194695109740342 rxn_smarts="[O:1]=[C:2]([N:3]([C:4]([C:5]#[C:6][H:11])([H:9])[H:10])[H:8])[H:7]>>[O:1]=[C:2]([N:3]([C:6](=[C:5]=[C:4]([H:9])[H:10])[H:11])[H:8])[H:7]"
O       -1.31874634       1.82886806       0.54076490
C       -1.47144973       0.64635494       0.70578229
N       -0.61017427      -0.32636885       0.27431943
C        0.84713957       0.63145067      -0.98142394
C        1.54323040      -0.41084892      -0.39007498
C        1.17158096      -1.27381830       0.44683057
H       -2.40880554       0.24776398       1.13514530
H       -1.07756818      -1.22102956       0.34006247
H        0.53855756       0.54128688      -2.01972064
H        1.32675626       1.59538011      -0.81116873
H        1.45947931      -2.25903900       0.75948333
11
Frame=16 idx=000631 GeodesicLength=2.2637401978510514 rxn_smarts="[O:1]=[C:2]([N:3]([C:4]([C:5]#[C:6][H:11])([H:9])[H:10])[H:8])[H:7]>>[O:1]=[C:2]([N:3]([C:6](=[C:5]=[C:4]([H:9])[H:10])[H:11])[H:8])[H:7]"
O       -1.32289411       1.80948470       0.53785336
C       -1.44928614       0.63375155       0.77362641
N       -0.66548793      -0.33596868       0.22654587
C        0.86256636       0.63159824      -1.01405531
C        1.50124735      -0.41033357      -0.37232065
C        1.16562491      -1.25183550       0.49679346
H       -2.35010038       0.23612316       1.27562772
H       -1.15048450      -1.21407684       0.12723013
H        0.58794932       0.52473473      -2.05986218
H        1.33598174       1.59466649      -0.82614993
H        1.48488337      -2.21814429       0.83471112
