18
Frame=0 idx=002225 GeodesicLength=0.0 rxn_smarts="[C:1]([O:2][C:3]([C:4]([C:5]([H:13])([H:14])[H:15])([C:6]([H:16])([H:17])[H:18])[H:12])([H:10])[H:11])([H:7])([H:8])[H:9]>>[C:1]([O:2][H:15])([H:7])([H:8])[H:9].[C:3]1([H:10])([H:11])[C:4]([C:6]([H:16])([H:17])[H:18])([H:12])[C:5]1([H:13])[H:14]"
C        2.40713123      -0.07520210       1.09839036
O        1.82042189       0.89893400       0.32054823
C        0.27405749       0.01285054      -1.00170427
C       -1.15718836       0.17798075      -0.86545112
C       -0.77260983       1.03622426       0.37518952
C       -1.97930328      -1.05669791      -0.56230940
H        1.66416418      -0.69832058       1.64110713
H        3.07647836       0.34892976       1.86069890
H        3.02199046      -0.76784288       0.49763503
H        0.84906342       0.61078144      -1.69127526
H        0.73859514      -0.89984367      -0.65110846
H       -1.60057107       0.79080943      -1.64768704
H       -1.06435294       2.07372360       0.24307170
H       -1.16927363       0.58112801       1.27947374
H        0.46478369       1.08005655       0.54378903
H       -2.08161046      -1.69411062      -1.44304882
H       -1.51253937      -1.64492907       0.23132403
H       -2.97923696      -0.77447145      -0.22864327
18
Frame=1 idx=002225 GeodesicLength=0.07319975312044434 rxn_smarts="[C:1]([O:2][C:3]([C:4]([C:5]([H:13])([H:14])[H:15])([C:6]([H:16])([H:17])[H:18])[H:12])([H:10])[H:11])([H:7])([H:8])[H:9]>>[C:1]([O:2][H:15])([H:7])([H:8])[H:9].[C:3]1([H:10])([H:11])[C:4]([C:6]([H:16])([H:17])[H:18])([H:12])[C:5]1([H:13])[H:14]"
C        2.43340815      -0.07126654       1.09152401
O        1.81443671       0.89473521       0.32675584
C        0.27369461       0.00486294      -0.97520953
C       -1.16194149       0.17862817      -0.86351715
C       -0.78692794       1.03352037       0.37770875
C       -1.99456906      -1.05177606      -0.57298566
H        1.71818603      -0.73453893       1.62176943
H        3.08279810       0.36774655       1.86221982
H        3.07624439      -0.72780253       0.48056983
H        0.84623640       0.57297439      -1.69237043
H        0.71915511      -0.91622074      -0.62023535
H       -1.58835393       0.79238502      -1.65442371
H       -1.05594118       2.07596410       0.23489370
H       -1.20765831       0.59597730       1.27970096
H        0.45843580       1.08117665       0.58504162
H       -2.08372593      -1.68958145      -1.45488037
H       -1.54490391      -1.64184833       0.22920958
H       -2.99857353      -0.76493610      -0.25577134
18
Frame=2 idx=002225 GeodesicLength=0.14587325155238468 rxn_smarts="[C:1]([O:2][C:3]([C:4]([C:5]([H:13])([H:14])[H:15])([C:6]([H:16])([H:17])[H:18])[H:12])([H:10])[H:11])([H:7])([H:8])[H:9]>>[C:1]([O:2][H:15])([H:7])([H:8])[H:9].[C:3]1([H:10])([H:11])[C:4]([C:6]([H:16])([H:17])[H:18])([H:12])[C:5]1([H:13])[H:14]"
C        2.45949271      -0.06695401       1.08392072
O        1.80759194       0.89064744       0.33409932
C        0.27318106      -0.00362669      -0.94829977
C       -1.16639958       0.17919113      -0.86151645
C       -0.80097501       1.03085909       0.38021554
C       -2.00971311      -1.04663055      -0.58376875
H        1.77415169      -0.77037068       1.59967065
H        3.08794441       0.38485080       1.86412350
H        3.12929825      -0.68439705       0.46220166
H        0.84369584       0.53239986      -1.69220772
H        0.69910333      -0.93248532      -0.58796542
H       -1.57530581       0.79377510      -1.66099262
H       -1.04653270       2.07784192       0.22702236
H       -1.24636468       0.61169646       1.27907994
H        0.45159543       1.08149052       0.62737485
H       -2.08556994      -1.68507221      -1.46646313
H       -1.57767223      -1.63836890       0.22694867
H       -3.01752161      -0.75484690      -0.28344337
18
Frame=3 idx=002225 GeodesicLength=0.21790051477816924 rxn_smarts="[C:1]([O:2][C:3]([C:4]([C:5]([H:13])([H:14])[H:15])([C:6]([H:16])([H:17])[H:18])[H:12])([H:10])[H:11])([H:7])([H:8])[H:9]>>[C:1]([O:2][H:15])([H:7])([H:8])[H:9].[C:3]1([H:10])([H:11])[C:4]([C:6]([H:16])([H:17])[H:18])([H:12])[C:5]1([H:13])[H:14]"
C        2.48524798      -0.06226065       1.07556624
O        1.79995828       0.88659940       0.34251725
C        0.27252383      -0.01260751      -0.92105181
C       -1.17052886       0.17966001      -0.85944356
C       -0.81468201       1.02822850       0.38270070
C       -2.02465605      -1.04127726      -0.59461998
H        1.83180048      -0.80551117       1.57454947
H        3.09187135       0.39998278       1.86646060
H        3.18080981      -0.63764991       0.44277780
H        0.84136861       0.48914430      -1.69064070
H        0.67844285      -0.94858230      -0.55433926
H       -1.56143158       0.79495180      -1.66735041
H       -1.03612037       2.07930894       0.21951780
H       -1.28510303       0.62824762       1.27756485
H        0.44429706       1.08109952       0.67056679
H       -2.08710999      -1.68060423      -1.47773885
H       -1.61072438      -1.63449454       0.22453169
H       -3.03596396      -0.74423529      -0.31156864
18
Frame=4 idx=002225 GeodesicLength=0.2891782395414102 rxn_smarts="[C:1]([O:2][C:3]([C:4]([C:5]([H:13])([H:14])[H:15])([C:6]([H:16])([H:17])[H:18])[H:12])([H:10])[H:11])([H:7])([H:8])[H:9]>>[C:1]([O:2][H:15])([H:7])([H:8])[H:9].[C:3]1([H:10])([H:11])[C:4]([C:6]([H:16])([H:17])[H:18])([H:12])[C:5]1([H:13])[H:14]"
C        2.51054033      -0.05721795       1.06644351
O        1.79162625       0.88250850       0.35192326
C        0.27173143      -0.02206172      -0.89355354
C       -1.17430497       0.18002234      -0.85729439
C       -0.82798466       1.02563552       0.38514291
C       -2.03932050      -1.03573893      -0.60547789
H        1.89086518      -0.83975357       1.54605419
H        3.09445328       0.41285559       1.86936082
H        3.23054859      -0.58754962       0.42261628
H        0.83917358       0.44335380      -1.68754142
H        0.65718527      -0.96445629      -0.51942911
H       -1.54676090       0.79586700      -1.67346524
H       -1.02471121       2.08033604       0.21241485
H       -1.32358364       0.64563687       1.27512792
H        0.43658315       1.08014673       0.71435050
H       -2.08832096      -1.67622464      -1.48862560
H       -1.64392626      -1.63021701       0.22198397
H       -3.05379397      -0.73314267      -0.34003102
18
Frame=5 idx=002225 GeodesicLength=0.3601796370741627 rxn_smarts="[C:1]([O:2][C:3]([C:4]([C:5]([H:13])([H:14])[H:15])([C:6]([H:16])([H:17])[H:18])[H:12])([H:10])[H:11])([H:7])([H:8])[H:9]>>[C:1]([O:2][H:15])([H:7])([H:8])[H:9].[C:3]1([H:10])([H:11])[C:4]([C:6]([H:16])([H:17])[H:18])([H:12])[C:5]1([H:13])[H:14]"
C        2.53536155      -0.05188842       1.05655119
O        1.78269304       0.87834968       0.36231123
C        0.27080138      -0.03197048      -0.86580986
C       -1.17771161       0.18025630      -0.85507663
C       -0.84088451       1.02315107       0.38748074
C       -2.05367520      -1.03005458      -0.61627714
H        1.95145906      -0.87309599       1.51371402
H        3.09545797       0.42306771       1.87304384
H        3.27841009      -0.53405011       0.40186534
H        0.83699322       0.39521209      -1.68289403
H        0.63533352      -0.98003116      -0.48318569
H       -1.53126292       0.79641045      -1.67940231
H       -1.01234445       2.08095695       0.20559261
H       -1.36183363       0.66394023       1.27174873
H        0.42858888       1.07891874       0.75871803
H       -2.08914243      -1.67204316      -1.49900082
H       -1.67726163      -1.62548752       0.21943118
H       -3.07098233      -0.72164180      -0.36881044
18
Frame=6 idx=002225 GeodesicLength=0.4304440493149817 rxn_smarts="[C:1]([O:2][C:3]([C:4]([C:5]([H:13])([H:14])[H:15])([C:6]([H:16])([H:17])[H:18])[H:12])([H:10])[H:11])([H:7])([H:8])[H:9]>>[C:1]([O:2][H:15])([H:7])([H:8])[H:9].[C:3]1([H:10])([H:11])[C:4]([C:6]([H:16])([H:17])[H:18])([H:12])[C:5]1([H:13])[H:14]"
C        2.55949875      -0.04630619       1.04589776
O        1.77327378       0.87401854       0.37351749
C        0.26975703      -0.04227750      -0.83796464
C       -1.18073032       0.18035676      -0.85278435
C       -0.85329072       1.02076201       0.38970691
C       -2.06760913      -1.02426168      -0.62694547
H        2.01301832      -0.90515322       1.47728513
H        3.09485928       0.43029235       1.87751367
H        3.32409761      -0.47726059       0.38111200
H        0.83474401       0.34490291      -1.67657224
H        0.61293196      -0.99521254      -0.44580646
H       -1.51503425       0.79656543      -1.68508286
H       -0.99907864       2.08112985       0.19914090
H       -1.39933182       0.68307926       1.26742155
H        0.42033432       1.07759903       0.80321080
H       -2.08957088      -1.66808277      -1.50879630
H       -1.71049046      -1.62034572       0.21684703
H       -3.08737884      -0.70980595      -0.39770092
18
Frame=7 idx=002225 GeodesicLength=0.49986864621401944 rxn_smarts="[C:1]([O:2][C:3]([C:4]([C:5]([H:13])([H:14])[H:15])([C:6]([H:16])([H:17])[H:18])[H:12])([H:10])[H:11])([H:7])([H:8])[H:9]>>[C:1]([O:2][H:15])([H:7])([H:8])[H:9].[C:3]1([H:10])([H:11])[C:4]([C:6]([H:16])([H:17])[H:18])([H:12])[C:5]1([H:13])[H:14]"
C        2.58280074      -0.04053431       1.03450498
O        1.76351686       0.86941307       0.38539923
C        0.26861446      -0.05291708      -0.81012257
C       -1.18334144       0.18031476      -0.85041117
C       -0.86514943       1.01847959       0.39178774
C       -2.08101843      -1.01841229      -0.63740108
H        2.07507156      -0.93553840       1.43651781
H        3.09258312       0.43412735       1.88275897
H        3.36737587      -0.41736581       0.36089409
H        0.83228974       0.29272242      -1.66856200
H        0.59004143      -1.00989791      -0.40745508
H       -1.49815159       0.79627952      -1.69047378
H       -0.98498857       2.08083771       0.19305920
H       -1.43577167       0.70299822       1.26216081
H        0.41193592       1.07645204       0.84752610
H       -2.08955746      -1.66439921      -1.51791644
H       -1.74340394      -1.61481726       0.21426086
H       -3.10284718      -0.69774238      -0.42652768
18
Frame=8 idx=002225 GeodesicLength=0.5683492196027056 rxn_smarts="[C:1]([O:2][C:3]([C:4]([C:5]([H:13])([H:14])[H:15])([C:6]([H:16])([H:17])[H:18])[H:12])([H:10])[H:11])([H:7])([H:8])[H:9]>>[C:1]([O:2][H:15])([H:7])([H:8])[H:9].[C:3]1([H:10])([H:11])[C:4]([C:6]([H:16])([H:17])[H:18])([H:12])[C:5]1([H:13])[H:14]"
C        2.60522061      -0.03466992       1.02237476
O        1.75353966       0.86446915       0.39784985
C        0.26740021      -0.06382365      -0.78234952
C       -1.18555229       0.18010878      -0.84796103
C       -0.87645890       1.01634061       0.39367866
C       -2.09383276      -1.01254996      -0.64756254
H        2.13730140      -0.96403440       1.39108185
H        3.08855809       0.43410980       1.88880693
H        3.40818992      -0.35441634       0.34176884
H        0.82953827       0.23895325      -1.65878860
H        0.56672868      -1.02399297      -0.36827404
H       -1.48070060       0.79545895      -1.69558038
H       -0.97019623       2.08008012       0.18727589
H       -1.47092259       0.72374400       1.25600282
H        0.40343424       1.07572139       0.89134604
H       -2.08907111      -1.66107498      -1.52626794
H       -1.77584203      -1.60888603       0.21175439
H       -3.11733456      -0.68553780      -0.45515597
18
Frame=9 idx=002225 GeodesicLength=0.636570195165567 rxn_smarts="[C:1]([O:2][C:3]([C:4]([C:5]([H:13])([H:14])[H:15])([C:6]([H:16])([H:17])[H:18])[H:12])([H:10])[H:11])([H:7])([H:8])[H:9]>>[C:1]([O:2][H:15])([H:7])([H:8])[H:9].[C:3]1([H:10])([H:11])[C:4]([C:6]([H:16])([H:17])[H:18])([H:12])[C:5]1([H:13])[H:14]"
C        2.62666298      -0.02878611       1.00961639
O        1.74348560       0.85922766       0.41087317
C        0.26611089      -0.07485319      -0.75471672
C       -1.18735704       0.17973347      -0.84545976
C       -0.88717924       1.01448234       0.39526789
C       -2.10596375      -1.00680734      -0.65728434
H        2.19987275      -0.99043394       1.34039775
H        3.08243898       0.42957838       1.89599588
H        3.44613696      -0.28876562       0.32407675
H        0.82627641       0.18399471      -1.64755084
H        0.54306832      -1.03730766      -0.32834509
H       -1.46274034       0.79401382      -1.70051319
H       -0.95474516       2.07903262       0.18155217
H       -1.50487413       0.74529635       1.24886707
H        0.39522245       1.07595582       0.93475810
H       -2.08800259      -1.65830104      -1.53362722
H       -1.80766316      -1.60260190       0.20954351
H       -3.13074994      -0.67345837      -0.48345151
18
Frame=10 idx=002225 GeodesicLength=0.7040466670051688 rxn_smarts="[C:1]([O:2][C:3]([C:4]([C:5]([H:13])([H:14])[H:15])([C:6]([H:16])([H:17])[H:18])[H:12])([H:10])[H:11])([H:7])([H:8])[H:9]>>[C:1]([O:2][H:15])([H:7])([H:8])[H:9].[C:3]1([H:10])([H:11])[C:4]([C:6]([H:16])([H:17])[H:18])([H:12])[C:5]1([H:13])[H:14]"
C        2.64714363      -0.02296875       0.99614468
O        1.73344195       0.85363040       0.42429833
C        0.26478196      -0.08599467      -0.72721627
C       -1.18877512       0.17916393      -0.84290047
C       -0.89738223       1.01287506       0.39655677
C       -2.11739639      -1.00118187      -0.66656647
H        2.26215344      -1.01437559       1.28438992
H        3.07452393       0.42014948       1.90382717
H        3.48151478      -0.22032347       0.30862557
H        0.82251746       0.12792951      -1.63451844
H        0.51911789      -1.04980715      -0.28777305
H       -1.44434425       0.79187465      -1.70523024
H       -0.93878735       2.07761244       0.17591333
H       -1.53735520       0.76770561       1.24085349
H        0.38708210       1.07721039       0.97738808
H       -2.08637629      -1.65607512      -1.54002214
H       -1.83875990      -1.59593896       0.20758430
H       -3.14310042      -0.66148590      -0.51135456
18
Frame=11 idx=002225 GeodesicLength=0.7708514150822953 rxn_smarts="[C:1]([O:2][C:3]([C:4]([C:5]([H:13])([H:14])[H:15])([C:6]([H:16])([H:17])[H:18])[H:12])([H:10])[H:11])([H:7])([H:8])[H:9]>>[C:1]([O:2][H:15])([H:7])([H:8])[H:9].[C:3]1([H:10])([H:11])[C:4]([C:6]([H:16])([H:17])[H:18])([H:12])[C:5]1([H:13])[H:14]"
C        2.66658588      -0.01727117       0.98197146
O        1.72350378       0.84764246       0.43805282
C        0.26343250      -0.09715197      -0.69988812
C       -1.18980859       0.17838988      -0.84029305
C       -0.90706359       1.01156604       0.39748358
C       -2.12806362      -0.99573224      -0.67532803
H        2.32387864      -1.03543898       1.22288213
H        3.06474208       0.40528338       1.91209183
H        3.51425951      -0.14930747       0.29599631
H        0.81814972       0.07101968      -1.61970791
H        0.49496531      -1.06137175      -0.24667675
H       -1.42558320       0.78897750      -1.70975533
H       -0.92239239       2.07585200       0.17022426
H       -1.56826540       0.79093716       1.23196483
H        0.37912648       1.07974402       1.01912729
H       -2.08414683      -1.65446588      -1.54535039
H       -1.86899404      -1.58892093       0.20595803
H       -3.15432623      -0.64975174      -0.53875297
18
Frame=12 idx=002225 GeodesicLength=0.8370904435162633 rxn_smarts="[C:1]([O:2][C:3]([C:4]([C:5]([H:13])([H:14])[H:15])([C:6]([H:16])([H:17])[H:18])[H:12])([H:10])[H:11])([H:7])([H:8])[H:9]>>[C:1]([O:2][H:15])([H:7])([H:8])[H:9].[C:3]1([H:10])([H:11])[C:4]([C:6]([H:16])([H:17])[H:18])([H:12])[C:5]1([H:13])[H:14]"
C        2.68499016      -0.01176248       0.96710805
O        1.71376235       0.84132100       0.45204213
C        0.26209913      -0.10821614      -0.67275273
C       -1.19046990       0.17739040      -0.83763912
C       -0.91627077       1.01058760       0.39798496
C       -2.13791611      -0.99052680      -0.68350212
H        2.38482674      -1.05316833       1.15571544
H        3.05317249       0.38441135       1.92048873
H        3.54427042      -0.07607802       0.28685438
H        0.81312660       0.01357882      -1.60309304
H        0.47073299      -1.07187560      -0.20518243
H       -1.40653918       0.78522085      -1.71410345
H       -0.90565943       2.07375736       0.16437773
H       -1.59761968       0.81504028       1.22220975
H        0.37140233       1.08383510       1.05982895
H       -2.08125399      -1.65355871      -1.54952451
H       -1.89823080      -1.58154899       0.20474354
H       -3.16442333      -0.63840769      -0.56555624
18
Frame=13 idx=002225 GeodesicLength=0.9030844175175381 rxn_smarts="[C:1]([O:2][C:3]([C:4]([C:5]([H:13])([H:14])[H:15])([C:6]([H:16])([H:17])[H:18])[H:12])([H:10])[H:11])([H:7])([H:8])[H:9]>>[C:1]([O:2][H:15])([H:7])([H:8])[H:9].[C:3]1([H:10])([H:11])[C:4]([C:6]([H:16])([H:17])[H:18])([H:12])[C:5]1([H:13])[H:14]"
C        2.70221142      -0.00652568       0.95183294
O        1.70435484       0.83484840       0.46623869
C        0.26079828      -0.11893571      -0.64603438
C       -1.19079861       0.17619393      -0.83499912
C       -0.92489830       1.01005698       0.39798151
C       -2.14682050      -0.98577205      -0.69094688
H        2.44457608      -1.06685691       1.08297431
H        3.03988734       0.35710564       1.92885550
H        3.57096863      -0.00187056       0.28191806
H        0.80721940      -0.04370801      -1.58521956
H        0.44664889      -1.08113256      -0.16370597
H       -1.38748046       0.78064876      -1.71838071
H       -0.88869257       2.07157975       0.15823736
H       -1.62533353       0.83981057       1.21156236
H        0.36435848       1.08999561       1.09944239
H       -2.07761141      -1.65354851      -1.55238761
H       -1.92611996      -1.57403851       0.20413012
H       -3.17326803      -0.62785113      -0.59149902
18
Frame=14 idx=002225 GeodesicLength=0.9687850522835133 rxn_smarts="[C:1]([O:2][C:3]([C:4]([C:5]([H:13])([H:14])[H:15])([C:6]([H:16])([H:17])[H:18])[H:12])([H:10])[H:11])([H:7])([H:8])[H:9]>>[C:1]([O:2][H:15])([H:7])([H:8])[H:9].[C:3]1([H:10])([H:11])[C:4]([C:6]([H:16])([H:17])[H:18])([H:12])[C:5]1([H:13])[H:14]"
C        2.71838566      -0.00158603       0.93589672
O        1.69527911       0.82822082       0.48051347
C        0.25957750      -0.12935613      -0.61957076
C       -1.19079211       0.17474109      -0.83233816
C       -0.93310450       1.00992527       0.39745124
C       -2.15485045      -0.98140398      -0.69768292
H        2.50293849      -1.07615455       1.00457704
H        3.02489393       0.32281883       1.93634137
H        3.59507809       0.07369472       0.28187270
H        0.80058957      -0.10102373      -1.56558860
H        0.42274031      -1.08912478      -0.12212313
H       -1.36831144       0.77509997      -1.72253564
H       -0.87151123       2.06913275       0.15173938
H       -1.65151522       0.86544770       1.20005784
H        0.35765227       1.09818626       1.13793459
H       -2.07326112      -1.65438758      -1.55396187
H       -1.95279284      -1.56624894       0.20407469
H       -3.18099603      -0.61798169      -0.61665794
18
Frame=15 idx=002225 GeodesicLength=1.0344627278534977 rxn_smarts="[C:1]([O:2][C:3]([C:4]([C:5]([H:13])([H:14])[H:15])([C:6]([H:16])([H:17])[H:18])[H:12])([H:10])[H:11])([H:7])([H:8])[H:9]>>[C:1]([O:2][H:15])([H:7])([H:8])[H:9].[C:3]1([H:10])([H:11])[C:4]([C:6]([H:16])([H:17])[H:18])([H:12])[C:5]1([H:13])[H:14]"
C        2.73345490       0.00303256       0.91936793
O        1.68659330       0.82156456       0.49477887
C        0.25846461      -0.13936811      -0.59343876
C       -1.19046289       0.17302489      -0.82967905
C       -0.94085064       1.01026224       0.39631458
C       -2.16197417      -0.97751706      -0.70359042
H        2.55985075      -1.08041354       0.92033012
H        3.00789405       0.28085764       1.94247689
H        3.61655061       0.15017202       0.28761231
H        0.79317538      -0.15813413      -1.54437625
H        0.39914501      -1.09575321      -0.08059451
H       -1.34913863       0.76852030      -1.72663732
H       -0.85411188       2.06650351       0.14471804
H       -1.67614376       0.89193505       1.18764986
H        0.35146084       1.10869563       1.17528531
H       -2.06820018      -1.65618357      -1.55409936
H       -1.97811645      -1.55822729       0.20474434
H       -3.18759084      -0.60897151      -0.64086258
18
Frame=16 idx=002225 GeodesicLength=1.100365370058601 rxn_smarts="[C:1]([O:2][C:3]([C:4]([C:5]([H:13])([H:14])[H:15])([C:6]([H:16])([H:17])[H:18])[H:12])([H:10])[H:11])([H:7])([H:8])[H:9]>>[C:1]([O:2][H:15])([H:7])([H:8])[H:9].[C:3]1([H:10])([H:11])[C:4]([C:6]([H:16])([H:17])[H:18])([H:12])[C:5]1([H:13])[H:14]"
C        2.74737475       0.00733932       0.90232300
O        1.67835373       0.81506058       0.50893237
C        0.25750252      -0.14886974      -0.56772724
C       -1.18982778       0.17101702      -0.82705028
C       -0.94810551       1.01115193       0.39449137
C       -2.16817310      -0.97422744      -0.70852992
H        2.61523148      -1.07870727       0.82998558
H        2.98858851       0.23040391       1.94659489
H        3.63544003       0.22690973       0.30027510
H        0.78496986      -0.21475465      -1.52178642
H        0.37601208      -1.10094797      -0.03928840
H       -1.33007073       0.76082848      -1.73076851
H       -0.83648027       2.06380687       0.13700862
H       -1.69922191       0.91931434       1.17430170
H        0.34590471       1.12182013       1.21145810
H       -2.06244898      -1.65908113      -1.55264210
H       -2.00197499      -1.55003561       0.20633621
H       -3.19307441      -0.60102850      -0.66391406
