15
Frame=0 idx=008163 GeodesicLength=0.0 rxn_smarts="[O:1]([C@@:2]12[C:3]([H:9])([H:10])[C@@:4]3([H:11])[C:5]([H:12])([H:13])[C@:6]1([H:14])[C@@:7]23[H:15])[H:8]>>[O:1]([C:2]1=[C:6]2[C:5]([H:12])([H:13])[C:4]([H:11])([C:3]1([H:9])[H:10])[C:7]2([H:14])[H:15])[H:8]"
O        2.23496194       0.71853819      -0.21020833
C        0.94268514       0.28235367      -0.03424823
C        0.59801139      -1.17683888       0.23086071
C       -0.81997274      -0.78325383      -0.24365716
C       -1.25113720       0.20576098       0.83879157
C       -0.11579073       1.20549114       0.48723366
C       -0.16663293       0.35780192      -1.07059568
H        2.28734665       1.59480383       0.18126761
H        0.70688069      -1.56407879       1.24669820
H        1.10545733      -1.82966411      -0.47924215
H       -1.50271125      -1.52596458      -0.64970633
H       -2.23587127       0.64605518       0.67855079
H       -1.18702848      -0.16385337       1.86434415
H       -0.62510398       1.49756878      -0.71861325
H        0.02890541       0.53527984      -2.12147557
15
Frame=1 idx=008163 GeodesicLength=0.06455492231600088 rxn_smarts="[O:1]([C@@:2]12[C:3]([H:9])([H:10])[C@@:4]3([H:11])[C:5]([H:12])([H:13])[C@:6]1([H:14])[C@@:7]23[H:15])[H:8]>>[O:1]([C:2]1=[C:6]2[C:5]([H:12])([H:13])[C:4]([H:11])([C:3]1([H:9])[H:10])[C:7]2([H:14])[H:15])[H:8]"
O        2.23580021       0.71781135      -0.20867245
C        0.94615205       0.28211101      -0.03153314
C        0.59943836      -1.17645986       0.22869997
C       -0.81972381      -0.78381310      -0.24282735
C       -1.24963677       0.20574217       0.84038797
C       -0.11782271       1.20306584       0.47522349
C       -0.17702609       0.36201234      -1.07113112
H        2.29332723       1.58754588       0.19719052
H        0.70907200      -1.56574472       1.24370590
H        1.10754556      -1.82793100      -0.48229993
H       -1.50182645      -1.52901902      -0.64556607
H       -2.23564047       0.64298900       0.67960878
H       -1.18281629      -0.16007708       1.86724752
H       -0.63647462       1.51620144      -0.72800502
H        0.02963181       0.52556573      -2.12202907
15
Frame=2 idx=008163 GeodesicLength=0.1291060346543258 rxn_smarts="[O:1]([C@@:2]12[C:3]([H:9])([H:10])[C@@:4]3([H:11])[C:5]([H:12])([H:13])[C@:6]1([H:14])[C@@:7]23[H:15])[H:8]>>[O:1]([C:2]1=[C:6]2[C:5]([H:12])([H:13])[C:4]([H:11])([C:3]1([H:9])[H:10])[C:7]2([H:14])[H:15])[H:8]"
O        2.23661325       0.71717199      -0.20696608
C        0.94961851       0.28183989      -0.02869243
C        0.60087242      -1.17611327       0.22651952
C       -0.81945448      -0.78439643      -0.24202784
C       -1.24806307       0.20576639       0.84193456
C       -0.11986589       1.20060005       0.46305805
C       -0.18747697       0.36610730      -1.07178540
H        2.29915718       1.58020275       0.21300980
H        0.71122230      -1.56748304       1.24067970
H        1.10968985      -1.82618367      -0.48537953
H       -1.50093525      -1.53209674      -0.64138975
H       -2.23533339       0.63995849       0.68063756
H       -1.17852214      -0.15617651       1.87010527
H       -0.64780166       1.53484859      -0.73731659
H        0.03027934       0.51595422      -2.12238684
15
Frame=3 idx=008163 GeodesicLength=0.19365433171481147 rxn_smarts="[O:1]([C@@:2]12[C:3]([H:9])([H:10])[C@@:4]3([H:11])[C:5]([H:12])([H:13])[C@:6]1([H:14])[C@@:7]23[H:15])[H:8]>>[O:1]([C:2]1=[C:6]2[C:5]([H:12])([H:13])[C:4]([H:11])([C:3]1([H:9])[H:10])[C:7]2([H:14])[H:15])[H:8]"
O        2.23740043       0.71661462      -0.20509032
C        0.95308214       0.28154158      -0.02572098
C        0.60231373      -1.17579862       0.22432026
C       -0.81916575      -0.78500585      -0.24125766
C       -1.24641817       0.20583371       0.84342909
C       -0.12191452       1.19808372       0.45074815
C       -0.19799159       0.37008073      -1.07256167
H        2.30483422       1.57279118       0.22870948
H        0.71333052      -1.56929611       1.23761900
H        1.11189112      -1.82442032      -0.48848015
H       -1.50003739      -1.53520181      -0.63717307
H       -2.23494958       0.63696839       0.68163379
H       -1.17415608      -0.15215607       1.87291316
H       -0.65907185       1.55352030      -0.74653364
H        0.03085278       0.50644455      -2.12255544
15
Frame=4 idx=008163 GeodesicLength=0.2581982977615988 rxn_smarts="[O:1]([C@@:2]12[C:3]([H:9])([H:10])[C@@:4]3([H:11])[C:5]([H:12])([H:13])[C@:6]1([H:14])[C@@:7]23[H:15])[H:8]>>[O:1]([C:2]1=[C:6]2[C:5]([H:12])([H:13])[C:4]([H:11])([C:3]1([H:9])[H:10])[C:7]2([H:14])[H:15])[H:8]"
O        2.23816265       0.71613077      -0.20303695
C        0.95654145       0.28121619      -0.02260993
C        0.60376165      -1.17551707       0.22210413
C       -0.81885838      -0.78564316      -0.24051644
C       -1.24470483       0.20594342       0.84486947
C       -0.12396225       1.19550554       0.43830790
C       -0.20857340       0.37392785      -1.07346034
H        2.31035052       1.56533642       0.24425012
H        0.71539268      -1.57118999       1.23452424
H        1.11414984      -1.82264021      -0.49160038
H       -1.49913257      -1.53833678      -0.63291475
H       -2.23448919       0.63402331       0.68259329
H       -1.16973056      -0.14802277       1.87566704
H       -0.67026845       1.57222830      -0.75563810
H        0.03136084       0.49703815      -2.12253929
15
Frame=5 idx=008163 GeodesicLength=0.3227343532319205 rxn_smarts="[O:1]([C@@:2]12[C:3]([H:9])([H:10])[C@@:4]3([H:11])[C:5]([H:12])([H:13])[C@:6]1([H:14])[C@@:7]23[H:15])[H:8]>>[O:1]([C:2]1=[C:6]2[C:5]([H:12])([H:13])[C:4]([H:11])([C:3]1([H:9])[H:10])[C:7]2([H:14])[H:15])[H:8]"
O        2.23889995       0.71571308      -0.20080293
C        0.95999462       0.28086424      -0.01935212
C        0.60521589      -1.17526887       0.21987254
C       -0.81853329      -0.78631032      -0.23980371
C       -1.24292575       0.20609524       0.84625334
C       -0.12600365       1.19285537       0.42574838
C       -0.21922748       0.37764402      -1.07448255
H        2.31570191       1.55786046       0.25960439
H        0.71740625      -1.57316878       1.23139535
H        1.11646640      -1.82084203      -0.49473922
H       -1.49822046      -1.54150473      -0.62861249
H       -2.23395260       0.63112742       0.68351245
H       -1.16525654      -0.14378239       1.87836301
H       -0.68137592       1.59098355      -0.76461232
H        0.03181067       0.48773375      -2.12234412
15
Frame=6 idx=008163 GeodesicLength=0.3872646184384141 rxn_smarts="[O:1]([C@@:2]12[C:3]([H:9])([H:10])[C@@:4]3([H:11])[C:5]([H:12])([H:13])[C@:6]1([H:14])[C@@:7]23[H:15])[H:8]>>[O:1]([C:2]1=[C:6]2[C:5]([H:12])([H:13])[C:4]([H:11])([C:3]1([H:9])[H:10])[C:7]2([H:14])[H:15])[H:8]"
O        2.23961241       0.71535421      -0.19838949
C        0.96344006       0.28048623      -0.01594112
C        0.60667667      -1.17505404       0.21762698
C       -0.81819109      -0.78700982      -0.23911866
C       -1.24108384       0.20628832       0.84757819
C       -0.12803341       1.19012358       0.41307857
C       -0.22995956       0.38122434      -1.07562933
H        2.32088691       1.55038266       0.27475280
H        0.71936967      -1.57523550       1.22823245
H        1.11884173      -1.81902436      -0.49789543
H       -1.49730004      -1.54470962      -0.62426352
H       -2.23334089       0.62828413       0.68438679
H       -1.16074448      -0.13943966       1.88099725
H       -0.69237976       1.60980003      -0.77344057
H        0.03220561       0.47852950      -2.12197491
15
Frame=7 idx=008163 GeodesicLength=0.45178752097756997 rxn_smarts="[O:1]([C@@:2]12[C:3]([H:9])([H:10])[C@@:4]3([H:11])[C:5]([H:12])([H:13])[C@:6]1([H:14])[C@@:7]23[H:15])[H:8]>>[O:1]([C:2]1=[C:6]2[C:5]([H:12])([H:13])[C:4]([H:11])([C:3]1([H:9])[H:10])[C:7]2([H:14])[H:15])[H:8]"
O        2.24029969       0.71504680      -0.19580238
C        0.96687588       0.28008301      -0.01237150
C        0.60814421      -1.17487208       0.21536844
C       -0.81783267      -0.78774431      -0.23846083
C       -1.23918196       0.20652213       0.84884116
C       -0.13004716       1.18730171       0.40030417
C       -0.24077656       0.38466419      -1.07690210
H        2.32590837       1.54292274       0.28968620
H        0.72128204      -1.57739195       1.22503532
H        1.12127638      -1.81718563      -0.50106810
H       -1.49637054      -1.54795588      -0.61986461
H       -2.23265528       0.62549607       0.68521262
H       -1.15620351      -0.13499822       1.88356574
H       -0.70326509       1.62868989      -0.78210799
H        0.03254622       0.46942151      -2.12143613
15
Frame=8 idx=008163 GeodesicLength=0.5163024839512056 rxn_smarts="[O:1]([C@@:2]12[C:3]([H:9])([H:10])[C@@:4]3([H:11])[C:5]([H:12])([H:13])[C@:6]1([H:14])[C@@:7]23[H:15])[H:8]>>[O:1]([C:2]1=[C:6]2[C:5]([H:12])([H:13])[C:4]([H:11])([C:3]1([H:9])[H:10])[C:7]2([H:14])[H:15])[H:8]"
O        2.24096162       0.71478354      -0.19304280
C        0.97030060       0.27965497      -0.00863648
C        0.60961859      -1.17472292       0.21309826
C       -0.81745862      -0.78851619      -0.23783005
C       -1.23722326       0.20679573       0.85003942
C       -0.13204012       1.18438029       0.38743265
C       -0.25168429       0.38795976      -1.07830125
H        2.33076534       1.53550178       0.30438491
H        0.72314144      -1.57964120       1.22180389
H        1.12377110      -1.81532433      -0.50425611
H       -1.49543064      -1.55124713      -0.61541372
H       -2.23189723       0.62276595       0.68598567
H       -1.15164401      -0.13046317       1.88606456
H       -0.71401463       1.64766787      -0.79059824
H        0.03283412       0.46040505      -2.12073072
15
Frame=9 idx=008163 GeodesicLength=0.5808132513502444 rxn_smarts="[O:1]([C@@:2]12[C:3]([H:9])([H:10])[C@@:4]3([H:11])[C:5]([H:12])([H:13])[C@:6]1([H:14])[C@@:7]23[H:15])[H:8]>>[O:1]([C:2]1=[C:6]2[C:5]([H:12])([H:13])[C:4]([H:11])([C:3]1([H:9])[H:10])[C:7]2([H:14])[H:15])[H:8]"
O        2.24159745       0.71455770      -0.19011717
C        0.97371276       0.27920283      -0.00472975
C        0.61110083      -1.17460607       0.21081772
C       -0.81706914      -0.78932873      -0.23722560
C       -1.23521054       0.20710836       0.85116980
C       -0.13400842       1.18135127       0.37446653
C       -0.26268995       0.39110616      -1.07982749
H        2.33546008       1.52813539       0.31884236
H        0.72494778      -1.58198528       1.21853810
H        1.12632734      -1.81343859      -0.50745833
H       -1.49447900      -1.55458832      -0.61090774
H       -2.23106853       0.62009590       0.68670124
H       -1.14707372      -0.12583636       1.88849023
H       -0.72461431       1.66674860      -0.79889694
H        0.03306737       0.45147715      -2.11986297
15
Frame=10 idx=008163 GeodesicLength=0.6453154090199116 rxn_smarts="[O:1]([C@@:2]12[C:3]([H:9])([H:10])[C@@:4]3([H:11])[C:5]([H:12])([H:13])[C@:6]1([H:14])[C@@:7]23[H:15])[H:8]>>[O:1]([C:2]1=[C:6]2[C:5]([H:12])([H:13])[C:4]([H:11])([C:3]1([H:9])[H:10])[C:7]2([H:14])[H:15])[H:8]"
O        2.24220687       0.71436257      -0.18702422
C        0.97711058       0.27872702      -0.00064439
C        0.61259079      -1.17452163       0.20852829
C       -0.81666496      -0.79018428      -0.23664736
C       -1.23314713       0.20745929       0.85222948
C       -0.13594785       1.17820526       0.36141298
C       -0.27379879       0.39409985      -1.08148043
H        2.33999231       1.52084491       0.33303464
H        0.72669895      -1.58442721       1.21523830
H        1.12894573      -1.81152685      -0.51067366
H       -1.49351464      -1.55798277      -0.60634502
H       -2.23017135       0.61748804       0.68735494
H       -1.14250319      -0.12112354       1.89083925
H       -0.73504680       1.68594672      -0.80698537
H        0.03324948       0.44263263      -2.11883742
15
Frame=11 idx=008163 GeodesicLength=0.7098105037717911 rxn_smarts="[O:1]([C@@:2]12[C:3]([H:9])([H:10])[C@@:4]3([H:11])[C:5]([H:12])([H:13])[C@:6]1([H:14])[C@@:7]23[H:15])[H:8]>>[O:1]([C:2]1=[C:6]2[C:5]([H:12])([H:13])[C:4]([H:11])([C:3]1([H:9])[H:10])[C:7]2([H:14])[H:15])[H:8]"
O        2.24278816       0.71419329      -0.18377304
C        0.98049210       0.27822865       0.00362396
C        0.61408956      -1.17446831       0.20623059
C       -0.81624644      -0.79108589      -0.23609502
C       -1.23103581       0.20784808       0.85321493
C       -0.13785506       1.17493458       0.34827239
C       -0.28501876       0.39693655      -1.08326128
H        2.34436742       1.51364388       0.34696324
H        0.72839573      -1.58696717       1.21190388
H        1.13162771      -1.80958663      -0.51390159
H       -1.49253571      -1.56143536      -0.60172188
H       -2.22920768       0.61494359       0.68794245
H       -1.13793974      -0.11632619       1.89310782
H       -0.74529672       1.70527734      -0.81484906
H        0.03337526       0.43386358      -2.11765740
15
Frame=12 idx=008163 GeodesicLength=0.7742992618249289 rxn_smarts="[O:1]([C@@:2]12[C:3]([H:9])([H:10])[C@@:4]3([H:11])[C:5]([H:12])([H:13])[C@:6]1([H:14])[C@@:7]23[H:15])[H:8]>>[O:1]([C:2]1=[C:6]2[C:5]([H:12])([H:13])[C:4]([H:11])([C:3]1([H:9])[H:10])[C:7]2([H:14])[H:15])[H:8]"
O        2.24334008       0.71404465      -0.18036887
C        0.98385551       0.27770854       0.00808108
C        0.61559805      -1.17444532       0.20392565
C       -0.81581385      -0.79203659      -0.23556837
C       -1.22887953       0.20827420       0.85412263
C       -0.13972660       1.17153109       0.33504606
C       -0.29635682       0.39961201      -1.08517041
H        2.34858878       1.50654743       0.36062098
H        0.73003796      -1.58960645       1.20853468
H        1.13437476      -1.80761568      -0.51714105
H       -1.49154063      -1.56495077      -0.59703529
H       -2.22817977       0.61246392       0.68845907
H       -1.13339136      -0.11144665       1.89529234
H       -0.75534845       1.72475577      -0.82247148
H        0.03344188       0.42516384      -2.11632703
15
Frame=13 idx=008163 GeodesicLength=0.8387824682783998 rxn_smarts="[O:1]([C@@:2]12[C:3]([H:9])([H:10])[C@@:4]3([H:11])[C:5]([H:12])([H:13])[C@:6]1([H:14])[C@@:7]23[H:15])[H:8]>>[O:1]([C:2]1=[C:6]2[C:5]([H:12])([H:13])[C:4]([H:11])([C:3]1([H:9])[H:10])[C:7]2([H:14])[H:15])[H:8]"
O        2.24386081       0.71391165      -0.17681629
C        0.98719891       0.27716766       0.01273270
C        0.61711729      -1.17445195       0.20161465
C       -0.81536735      -0.79303962      -0.23506708
C       -1.22668126       0.20873693       0.85494905
C       -0.14155909       1.16798654       0.32173489
C       -0.30781954       0.40212196      -1.08720770
H        2.35265856       1.49957048       0.37399993
H        0.73162571      -1.59234632       1.20513075
H        1.13718857      -1.80561177      -0.52039118
H       -1.49052774      -1.56853379      -0.59228249
H       -2.22708995       0.61005027       0.68889987
H       -1.12886594      -0.10648711       1.89738930
H       -0.76518452       1.74439851      -0.82983553
H        0.03344555       0.41652656      -2.11485086
15
Frame=14 idx=008163 GeodesicLength=0.9032610751951456 rxn_smarts="[O:1]([C@@:2]12[C:3]([H:9])([H:10])[C@@:4]3([H:11])[C:5]([H:12])([H:13])[C@:6]1([H:14])[C@@:7]23[H:15])[H:8]>>[O:1]([C:2]1=[C:6]2[C:5]([H:12])([H:13])[C:4]([H:11])([C:3]1([H:9])[H:10])[C:7]2([H:14])[H:15])[H:8]"
O        2.24434825       0.71379078      -0.17312402
C        0.99051988       0.27660742       0.01758355
C        0.61864863      -1.17448658       0.19929825
C       -0.81490716      -0.79409840      -0.23459106
C       -1.22444397       0.20923582       0.85569018
C       -0.14335005       1.16429331       0.30833639
C       -0.31941510       0.40446187      -1.08937388
H        2.35658308       1.49272432       0.38710253
H        0.73316009      -1.59518652       1.20169167
H        1.14007120      -1.80357173      -0.52365126
H       -1.48949477      -1.57218967      -0.58745979
H       -2.22594090       0.60770315       0.68926004
H       -1.12437017      -0.10144824       1.89939498
H       -0.77478754       1.76422091      -0.83692538
H        0.03337853       0.40794359      -2.11323219
15
Frame=15 idx=008163 GeodesicLength=0.9677344042564489 rxn_smarts="[O:1]([C@@:2]12[C:3]([H:9])([H:10])[C@@:4]3([H:11])[C:5]([H:12])([H:13])[C@:6]1([H:14])[C@@:7]23[H:15])[H:8]>>[O:1]([C:2]1=[C:6]2[C:5]([H:12])([H:13])[C:4]([H:11])([C:3]1([H:9])[H:10])[C:7]2([H:14])[H:15])[H:8]"
O        2.24480036       0.71367794      -0.16929708
C        0.99381616       0.27602901       0.02263957
C        0.62019329      -1.17454813       0.19697758
C       -0.81443334      -0.79521629      -0.23414035
C       -1.22217076       0.20977020       0.85634206
C       -0.14509673       1.16044318       0.29484903
C       -0.33115042       0.40662761      -1.09166869
H        2.36036533       1.48602280       0.39992287
H        0.73464145      -1.59812781       1.19821729
H        1.14302464      -1.80149274      -0.52692018
H       -1.48843963      -1.57592320      -0.58256458
H       -2.22473533       0.60542302       0.68953452
H       -1.11991152      -0.09633148       1.90130573
H       -0.78413758       1.78423860      -0.84372315
H        0.03323409       0.39940731      -2.11147462
15
Frame=16 idx=008163 GeodesicLength=1.032204451942264 rxn_smarts="[O:1]([C@@:2]12[C:3]([H:9])([H:10])[C@@:4]3([H:11])[C:5]([H:12])([H:13])[C@:6]1([H:14])[C@@:7]23[H:15])[H:8]>>[O:1]([C:2]1=[C:6]2[C:5]([H:12])([H:13])[C:4]([H:11])([C:3]1([H:9])[H:10])[C:7]2([H:14])[H:15])[H:8]"
O        2.24521457       0.71356991      -0.16534286
C        0.99708520       0.27543394       0.02790555
C        0.62175284      -1.17463499       0.19465344
C       -0.81394585      -0.79639681      -0.23371496
C       -1.21986455       0.21033960       0.85690038
C       -0.14679643       1.15642807       0.28126947
C       -0.34303296       0.40861459      -1.09409234
H        2.36401011       1.47947701       0.41246188
H        0.73607103      -1.60116987       1.19470738
H        1.14605132      -1.79937160      -0.53019710
H       -1.48735985      -1.57973973      -0.57759334
H       -2.22347599       0.60321027       0.68971793
H       -1.11549671      -0.09113714       1.90311767
H       -0.79321566       1.80446786      -0.85021126
H        0.03300293       0.39090888      -2.10958185
