14
Frame=0 idx=009394 GeodesicLength=0.0 rxn_smarts="[O:1]([C@@:2]1([H:9])[C:3]([H:10])([H:11])[O:4][C:5]([H:12])=[N:6][C:7]1([H:13])[H:14])[H:8]>>[O:1]([C@@:2]1([H:9])[C:3]([H:10])([H:11])[O+:4]=[C-:5][N:6]([H:12])[C:7]1([H:13])[H:14])[H:8]"
O       -1.06216502      -0.73974274       1.29054439
C       -0.94230945      -0.09135984       0.04033709
C       -0.33052143       1.28640386       0.19506113
O        1.00799846       1.17052157       0.71726415
C        1.81207685       0.23457947       0.20394327
N        1.36845393      -0.69460421      -0.63208186
C       -0.06280453      -0.86767148      -0.92605563
H       -0.28592320      -0.54474693       1.82316411
H       -1.95644487      -0.00613454      -0.35523960
H       -0.29753127       1.81103707      -0.76304116
H       -0.87466821       1.89125473       0.91810063
H        2.14167193      -0.98346698       0.32696388
H       -0.22966503      -0.53297190      -1.95319797
H       -0.28816821      -1.93309811      -0.88576241
14
Frame=1 idx=009394 GeodesicLength=0.028857780918785804 rxn_smarts="[O:1]([C@@:2]1([H:9])[C:3]([H:10])([H:11])[O:4][C:5]([H:12])=[N:6][C:7]1([H:13])[H:14])[H:8]>>[O:1]([C@@:2]1([H:9])[C:3]([H:10])([H:11])[O+:4]=[C-:5][N:6]([H:12])[C:7]1([H:13])[H:14])[H:8]"
O       -1.06866339      -0.73610372       1.29026888
C       -0.94364487      -0.08904774       0.04000764
C       -0.33099374       1.28829455       0.19488686
O        1.00769967       1.17255970       0.71585049
C        1.81126766       0.23683250       0.20121152
N        1.36608237      -0.69599757      -0.62607412
C       -0.06336258      -0.86838940      -0.92325335
H       -0.28441734      -0.55889681       1.81731468
H       -1.95655327      -0.00245724      -0.35842157
H       -0.29946865       1.81331639      -0.76313360
H       -0.87486173       1.89282615       0.91842217
H        2.15702859      -0.98420431       0.32484447
H       -0.22900355      -0.53544001      -1.95124257
H       -0.29110917      -1.93329250      -0.88068150
14
Frame=2 idx=009394 GeodesicLength=0.057692723812813096 rxn_smarts="[O:1]([C@@:2]1([H:9])[C:3]([H:10])([H:11])[O:4][C:5]([H:12])=[N:6][C:7]1([H:13])[H:14])[H:8]>>[O:1]([C@@:2]1([H:9])[C:3]([H:10])([H:11])[O+:4]=[C-:5][N:6]([H:12])[C:7]1([H:13])[H:14])[H:8]"
O       -1.07501886      -0.73241881       1.29005032
C       -0.94497125      -0.08674391       0.03970679
C       -0.33146582       1.29019090       0.19469817
O        1.00739073       1.17460530       0.71445668
C        1.81041299       0.23900786       0.19860135
N        1.36370584      -0.69740999      -0.61994824
C       -0.06391342      -0.86910246      -0.92042384
H       -0.28319381      -0.57303625       1.81139704
H       -1.95665998       0.00116273      -0.36153093
H       -0.30137797       1.81557447      -0.76325140
H       -0.87506862       1.89443316       0.91869319
H        2.17251829      -0.98491394       0.32241553
H       -0.22828880      -0.53788169      -1.94925397
H       -0.29406932      -1.93346738      -0.87561068
14
Frame=3 idx=009394 GeodesicLength=0.08649449210038618 rxn_smarts="[O:1]([C@@:2]1([H:9])[C:3]([H:10])([H:11])[O:4][C:5]([H:12])=[N:6][C:7]1([H:13])[H:14])[H:8]>>[O:1]([C@@:2]1([H:9])[C:3]([H:10])([H:11])[O+:4]=[C-:5][N:6]([H:12])[C:7]1([H:13])[H:14])[H:8]"
O       -1.08122545      -0.72869727       1.28988651
C       -0.94628627      -0.08445142       0.03943517
C       -0.33193802       1.29209203       0.19449457
O        1.00707403       1.17666282       0.71307761
C        1.80951483       0.24110237       0.19611835
N        1.36132666      -0.69884188      -0.61370406
C       -0.06445453      -0.86980965      -0.91757046
H       -0.28225159      -0.58714442       1.80542472
H       -1.95676484       0.00471909      -0.36456440
H       -0.30326184       1.81780992      -0.76339526
H       -0.87528954       1.89607360       0.91891471
H        2.18812049      -0.98560153       0.31967756
H       -0.22751734      -0.54029123      -1.94723384
H       -0.29704660      -1.93362244      -0.87056118
14
Frame=4 idx=009394 GeodesicLength=0.11527838736906568 rxn_smarts="[O:1]([C@@:2]1([H:9])[C:3]([H:10])([H:11])[O:4][C:5]([H:12])=[N:6][C:7]1([H:13])[H:14])[H:8]>>[O:1]([C@@:2]1([H:9])[C:3]([H:10])([H:11])[O+:4]=[C-:5][N:6]([H:12])[C:7]1([H:13])[H:14])[H:8]"
O       -1.08729297      -0.72493571       1.28977878
C       -0.94759070      -0.08216784       0.03919209
C       -0.33241032       1.29399826       0.19427589
O        1.00674608       1.17873116       0.71171862
C        1.80857122       0.24311781       0.19376873
N        1.35894220      -0.70029006      -0.60733523
C       -0.06498517      -0.87051153      -0.91468716
H       -0.28159501      -0.60123254       1.79939469
H       -1.95686554       0.00821836      -0.36752890
H       -0.30511610       1.82002158      -0.76356670
H       -0.87552486       1.89774720       0.91908482
H        2.20384876      -0.98626348       0.31660503
H       -0.22668777      -0.54267558      -1.94517874
H       -0.30003982      -1.93375762      -0.86552192
14
Frame=5 idx=009394 GeodesicLength=0.14402689019781187 rxn_smarts="[O:1]([C@@:2]1([H:9])[C:3]([H:10])([H:11])[O:4][C:5]([H:12])=[N:6][C:7]1([H:13])[H:14])[H:8]>>[O:1]([C@@:2]1([H:9])[C:3]([H:10])([H:11])[O+:4]=[C-:5][N:6]([H:12])[C:7]1([H:13])[H:14])[H:8]"
O       -1.09321778      -0.72114538       1.28972400
C       -0.94888233      -0.07989692       0.03897787
C       -0.33288258       1.29590678       0.19404235
O        1.00641111       1.18081377       0.71036997
C        1.80758397       0.24505003       0.19155198
N        1.35655517      -0.70175961      -0.60084106
C       -0.06550191      -0.87120726      -0.91177836
H       -0.28122267      -0.61527074       1.79332460
H       -1.95696204       0.01165283      -0.37042135
H       -0.30694655       1.82220942      -0.76376389
H       -0.87577438       1.89944765       0.91920826
H        2.21967857      -0.98690354       0.31320219
H       -0.22579116      -0.54502559      -1.94309071
H       -0.30304743      -1.93387143      -0.86050584
14
Frame=6 idx=009394 GeodesicLength=0.17275694217720622 rxn_smarts="[O:1]([C@@:2]1([H:9])[C:3]([H:10])([H:11])[O:4][C:5]([H:12])=[N:6][C:7]1([H:13])[H:14])[H:8]>>[O:1]([C@@:2]1([H:9])[C:3]([H:10])([H:11])[O+:4]=[C-:5][N:6]([H:12])[C:7]1([H:13])[H:14])[H:8]"
O       -1.09901339      -0.71732112       1.28972237
C       -0.95016379      -0.07763587       0.03879202
C       -0.33335548       1.29781998       0.19379521
O        1.00606609       1.18290956       0.70904152
C        1.80655532       0.24690085       0.18947822
N        1.35416541      -0.70324904      -0.59421533
C       -0.06600442      -0.87189998      -0.90883781
H       -0.28114176      -0.62927312       1.78721105
H       -1.95705498       0.01502999      -0.37324993
H       -0.30874858       1.82437316      -0.76398685
H       -0.87604135       1.90118182       0.91928102
H        2.23563404      -0.98751752       0.30943548
H       -0.22482869      -0.54735050      -1.94096521
H       -0.30606841      -1.93396820      -0.85550179
14
Frame=7 idx=009394 GeodesicLength=0.20146298787382622 rxn_smarts="[O:1]([C@@:2]1([H:9])[C:3]([H:10])([H:11])[O:4][C:5]([H:12])=[N:6][C:7]1([H:13])[H:14])[H:8]>>[O:1]([C@@:2]1([H:9])[C:3]([H:10])([H:11])[O+:4]=[C-:5][N:6]([H:12])[C:7]1([H:13])[H:14])[H:8]"
O       -1.10467418      -0.71347115       1.28977304
C       -0.95143218      -0.07538757       0.03863504
C       -0.33382909       1.29973645       0.19353359
O        1.00571240       1.18502248       0.70772840
C        1.80548556       0.24866831       0.18755136
N        1.35177421      -0.70475738      -0.58745723
C       -0.06648961      -0.87258790      -0.90586814
H       -0.28134932      -0.64322207       1.78106728
H       -1.95714257       0.01834401      -0.37601239
H       -0.31052447       1.82651106      -0.76423736
H       -0.87632569       1.90294613       0.91930390
H        2.25169068      -0.98811190       0.30530555
H       -0.22379605      -0.54964425      -1.93880401
H       -0.30909969      -1.93404622      -0.85051902
14
Frame=8 idx=009394 GeodesicLength=0.23013906205425133 rxn_smarts="[O:1]([C@@:2]1([H:9])[C:3]([H:10])([H:11])[O:4][C:5]([H:12])=[N:6][C:7]1([H:13])[H:14])[H:8]>>[O:1]([C@@:2]1([H:9])[C:3]([H:10])([H:11])[O+:4]=[C-:5][N:6]([H:12])[C:7]1([H:13])[H:14])[H:8]"
O       -1.11019496      -0.70960277       1.28987442
C       -0.95268512      -0.07315438       0.03850726
C       -0.33430420       1.30165536       0.19325699
O        1.00535174       1.18715666       0.70642593
C        1.80437763       0.25035136       0.18577547
N        1.34938443      -0.70628363      -0.58056715
C       -0.06695411      -0.87326966      -0.90287216
H       -0.28184199      -0.65710041       1.77490576
H       -1.95722423       0.02158980      -0.37870645
H       -0.31227748       1.82862173      -0.76451639
H       -0.87662869       1.90473793       0.91927822
H        2.26782380      -0.98869537       0.30081349
H       -0.22268952      -0.55190202      -1.93660894
H       -0.31213729      -1.93410459      -0.84556646
14
Frame=9 idx=009394 GeodesicLength=0.25881341776719563 rxn_smarts="[O:1]([C@@:2]1([H:9])[C:3]([H:10])([H:11])[O:4][C:5]([H:12])=[N:6][C:7]1([H:13])[H:14])[H:8]>>[O:1]([C@@:2]1([H:9])[C:3]([H:10])([H:11])[O+:4]=[C-:5][N:6]([H:12])[C:7]1([H:13])[H:14])[H:8]"
O       -1.11557405      -0.70571923       1.29002821
C       -0.95392064      -0.07093796       0.03840961
C       -0.33478116       1.30357552       0.19296403
O        1.00498451       1.18931614       0.70512789
C        1.80323052       0.25195190       0.18415360
N        1.34699579      -0.70782337      -0.57354523
C       -0.06739552      -0.87394277      -0.89985045
H       -0.28261527      -0.67090010       1.76872862
H       -1.95729827       0.02476340      -0.38133005
H       -0.31400936       1.83070368      -0.76482508
H       -0.87695059       1.90655311       0.91920330
H        2.28401755      -0.98928002       0.29596354
H       -0.22150698      -0.55411827      -1.93437910
H       -0.31517653      -1.93414203      -0.84064888
14
Frame=10 idx=009394 GeodesicLength=0.28737820557841093 rxn_smarts="[O:1]([C@@:2]1([H:9])[C:3]([H:10])([H:11])[O:4][C:5]([H:12])=[N:6][C:7]1([H:13])[H:14])[H:8]>>[O:1]([C@@:2]1([H:9])[C:3]([H:10])([H:11])[O+:4]=[C-:5][N:6]([H:12])[C:7]1([H:13])[H:14])[H:8]"
O       -1.12081188      -0.70183514       1.29022595
C       -0.95513548      -0.06874162       0.03834085
C       -0.33525749       1.30549452       0.19265580
O        1.00461787       1.19150163       0.70382748
C        1.80204959       0.25345846       0.18269488
N        1.34461284      -0.70937760      -0.56639940
C       -0.06781094      -0.87460759      -0.89680790
H       -0.28365390      -0.68459956       1.76255687
H       -1.95736225       0.02786141      -0.38388623
H       -0.31572127       1.83275450      -0.76516386
H       -0.87728719       1.90838641       0.91908515
H        2.30022500      -0.98984574       0.29076378
H       -0.22024953      -0.55629120      -1.93211917
H       -0.31821538      -1.93415849      -0.83577419
14
Frame=11 idx=009394 GeodesicLength=0.315921771515994 rxn_smarts="[O:1]([C@@:2]1([H:9])[C:3]([H:10])([H:11])[O:4][C:5]([H:12])=[N:6][C:7]1([H:13])[H:14])[H:8]>>[O:1]([C@@:2]1([H:9])[C:3]([H:10])([H:11])[O+:4]=[C-:5][N:6]([H:12])[C:7]1([H:13])[H:14])[H:8]"
O       -1.12591938      -0.69794292       1.29047128
C       -0.95633238      -0.06656274       0.03830086
C       -0.33573558       1.30741368       0.19233367
O        1.00424533       1.19371320       0.70253288
C        1.80082974       0.25487953       0.18139544
N        1.34223241      -0.71094843      -0.55911684
C       -0.06819849      -0.87526600      -0.89373777
H       -0.28496863      -0.69820374       1.75638102
H       -1.95741709       0.03088910      -0.38637962
H       -0.31741225       1.83477486      -0.76552966
H       -0.87764295       1.91024144       0.91892216
H        2.31647821      -0.99040650       0.28518439
H       -0.21890785      -0.55842677      -1.92982235
H       -0.32125108      -1.93415472      -0.83093546
14
Frame=12 idx=009394 GeodesicLength=0.3444469336029905 rxn_smarts="[O:1]([C@@:2]1([H:9])[C:3]([H:10])([H:11])[O:4][C:5]([H:12])=[N:6][C:7]1([H:13])[H:14])[H:8]>>[O:1]([C@@:2]1([H:9])[C:3]([H:10])([H:11])[O+:4]=[C-:5][N:6]([H:12])[C:7]1([H:13])[H:14])[H:8]"
O       -1.13090863      -0.69403700       1.29076306
C       -0.95751265      -0.06439885       0.03828837
C       -0.33621523       1.30933451       0.19199755
O        1.00386493       1.19595105       0.70125099
C        1.79957809       0.25621933       0.18026539
N        1.33985538      -0.71253176      -0.55169173
C       -0.06855717      -0.87591980      -0.89063437
H       -0.28656830      -0.71172985       1.75020668
H       -1.95746110       0.03385103      -0.38881833
H       -0.31907710       1.83676705      -0.76592419
H       -0.87802099       1.91212056       0.91871090
H        2.33278569      -0.99095913       0.27919093
H       -0.21748132      -0.56053243      -1.92748699
H       -0.32428160      -1.93413472      -0.82611825
14
Frame=13 idx=009394 GeodesicLength=0.3729613762430583 rxn_smarts="[O:1]([C@@:2]1([H:9])[C:3]([H:10])([H:11])[O:4][C:5]([H:12])=[N:6][C:7]1([H:13])[H:14])[H:8]>>[O:1]([C@@:2]1([H:9])[C:3]([H:10])([H:11])[O+:4]=[C-:5][N:6]([H:12])[C:7]1([H:13])[H:14])[H:8]"
O       -1.13579651      -0.69011614       1.29109941
C       -0.95867901      -0.06224840       0.03830229
C       -0.33669556       1.31125688       0.19164976
O        1.00347544       1.19821326       0.69998887
C        1.79829068       0.25747750       0.17931279
N        1.33747965      -0.71413213      -0.54411170
C       -0.06888601      -0.87657246      -0.88749035
H       -0.28846066      -0.72517774       1.74403122
H       -1.95749425       0.03675146      -0.39121174
H       -0.32071031       1.83873044      -0.76634416
H       -0.87842099       1.91402546       0.91845102
H        2.34916841      -0.99149144       0.27274336
H       -0.21596205      -0.56261603      -1.92510659
H       -0.32730884      -1.93410066      -0.82131415
14
Frame=14 idx=009394 GeodesicLength=0.40143461708268724 rxn_smarts="[O:1]([C@@:2]1([H:9])[C:3]([H:10])([H:11])[O:4][C:5]([H:12])=[N:6][C:7]1([H:13])[H:14])[H:8]>>[O:1]([C@@:2]1([H:9])[C:3]([H:10])([H:11])[O+:4]=[C-:5][N:6]([H:12])[C:7]1([H:13])[H:14])[H:8]"
O       -1.14058461      -0.68618348       1.29147814
C       -0.95982908      -0.06011270       0.03834250
C       -0.33717502       1.31317948       0.19128959
O        1.00307906       1.20049968       0.69874504
C        1.79697107       0.25864980       0.17854043
N        1.33510777      -0.71574804      -0.53637976
C       -0.06918180      -0.87722388      -0.88430664
H       -0.29064063      -0.73854044       1.73786524
H       -1.95751339       0.03958842      -0.39356229
H       -0.32231083       1.84066302      -0.76679156
H       -0.87884293       1.91595082       0.91814486
H        2.36560106      -0.99199510       0.26584176
H       -0.21434963      -0.56467585      -1.92268140
H       -0.33033104      -1.93405173      -0.81652591
14
Frame=15 idx=009394 GeodesicLength=0.42989032316720466 rxn_smarts="[O:1]([C@@:2]1([H:9])[C:3]([H:10])([H:11])[O:4][C:5]([H:12])=[N:6][C:7]1([H:13])[H:14])[H:8]>>[O:1]([C@@:2]1([H:9])[C:3]([H:10])([H:11])[O+:4]=[C-:5][N:6]([H:12])[C:7]1([H:13])[H:14])[H:8]"
O       -1.14528723      -0.68223481       1.29189788
C       -0.96096540      -0.05798962       0.03840778
C       -0.33765446       1.31510376       0.19091842
O        1.00267177       1.20280948       0.69752860
C        1.79561831       0.25973787       0.17796073
N        1.33273832      -0.71738230      -0.52848224
C       -0.06944290      -0.87787764      -0.88107539
H       -0.29312040      -0.75182397       1.73170933
H       -1.95751762       0.04236838      -0.39587899
H       -0.32387388       1.84256453      -0.76726570
H       -0.87928934       1.91790109       0.91779012
H        2.38210585      -0.99246533       0.25843709
H       -0.21263619      -0.56671945      -1.92020534
H       -0.33334683      -1.93399200      -0.81174229
14
Frame=16 idx=009394 GeodesicLength=0.4583347071193651 rxn_smarts="[O:1]([C@@:2]1([H:9])[C:3]([H:10])([H:11])[O:4][C:5]([H:12])=[N:6][C:7]1([H:13])[H:14])[H:8]>>[O:1]([C@@:2]1([H:9])[C:3]([H:10])([H:11])[O+:4]=[C-:5][N:6]([H:12])[C:7]1([H:13])[H:14])[H:8]"
O       -1.14992136      -0.67826360       1.29235872
C       -0.96209018      -0.05587708       0.03849735
C       -0.33813278       1.31702834       0.19053747
O        1.00224984       1.20513873       0.69634888
C        1.79422941       0.26073830       0.17758912
N        1.33036865      -0.71903650      -0.52040455
C       -0.06966754      -0.87853622      -0.87778725
H       -0.29591327      -0.76503646       1.72556230
H       -1.95750380       0.04509816      -0.39817230
H       -0.32539178       1.84443178      -0.76776635
H       -0.87976062       1.91987814       0.91738314
H        2.39870326      -0.99288540       0.25047537
H       -0.21081439      -0.56875581      -1.91767131
H       -0.33635543      -1.93392239      -0.80695059
