12
Frame=0 idx=001141 GeodesicLength=0.0 rxn_smarts="[O:1]([C:2]([C@@:3]1([H:9])[C:4]([H:10])([H:11])[N:5]1[H:12])([H:7])[H:8])[H:6]>>[O:1]([C:2]([C:3][N:5]([C:4]([H:9])([H:10])[H:11])[H:12])([H:7])[H:8])[H:6]"
O        1.52310719       0.32885990       0.97334104
C        1.25487872      -0.57116513      -0.07884051
C       -0.01776924      -0.38987267      -0.87209758
C       -1.27386823       0.10635958       0.34608081
N       -0.55326129       0.91968588      -0.62852102
H        1.22690891       1.19444774       0.66744539
H        1.31978738      -1.58375342       0.32167894
H        2.02266147      -0.49468174      -0.86569530
H       -1.03264285      -1.00791604      -0.04881496
H       -0.93587997       0.23866483       1.36529351
H       -2.34898265       0.08461941       0.19656884
H       -1.18493945       1.17475167      -1.37643921
12
Frame=1 idx=001141 GeodesicLength=0.052123403457217915 rxn_smarts="[O:1]([C:2]([C@@:3]1([H:9])[C:4]([H:10])([H:11])[N:5]1[H:12])([H:7])[H:8])[H:6]>>[O:1]([C:2]([C:3][N:5]([C:4]([H:9])([H:10])[H:11])[H:12])([H:7])[H:8])[H:6]"
O        1.52172354       0.31754560       0.98000834
C        1.26003559      -0.57150312      -0.08354820
C       -0.01684841      -0.38900643      -0.86701317
C       -1.27844787       0.10976346       0.34841488
N       -0.55814310       0.91509215      -0.63363132
H        1.23634930       1.18824432       0.67890349
H        1.33009463      -1.58830222       0.30577378
H        2.02853353      -0.48348382      -0.86803969
H       -1.03256163      -1.01864966      -0.04277000
H       -0.94908649       0.26456519       1.36753954
H       -2.35358041       0.08866539       0.19828407
H       -1.18806869       1.16706914      -1.38392174
12
Frame=2 idx=001141 GeodesicLength=0.10422259304172207 rxn_smarts="[O:1]([C:2]([C@@:3]1([H:9])[C:4]([H:10])([H:11])[N:5]1[H:12])([H:7])[H:8])[H:6]>>[O:1]([C:2]([C:3][N:5]([C:4]([H:9])([H:10])[H:11])[H:12])([H:7])[H:8])[H:6]"
O        1.52024795       0.30583299       0.98674265
C        1.26523927      -0.57177875      -0.08833845
C       -0.01594914      -0.38819338      -0.86180468
C       -1.28298960       0.11333042       0.35086791
N       -0.56311057       0.91036972      -0.63884127
H        1.24588262       1.18165540       0.69085563
H        1.34056225      -1.59273367       0.28946412
H        2.03437069      -0.47193320      -0.87032745
H       -1.03239243      -1.02946712      -0.03651577
H       -0.96238571       0.29112434       1.36930181
H       -2.35814316       0.09277306       0.20011316
H       -1.19133218       1.15902019      -1.39151768
12
Frame=3 idx=001141 GeodesicLength=0.15628012032541957 rxn_smarts="[O:1]([C:2]([C@@:3]1([H:9])[C:4]([H:10])([H:11])[N:5]1[H:12])([H:7])[H:8])[H:6]>>[O:1]([C:2]([C:3][N:5]([C:4]([H:9])([H:10])[H:11])[H:12])([H:7])[H:8])[H:6]"
O        1.51869336       0.29373876       0.99352106
C        1.27048406      -0.57198077      -0.09320372
C       -0.01506261      -0.38741282      -0.85648050
C       -1.28748293       0.11705968       0.35344459
N       -0.56817044       0.90552239      -0.64414387
H        1.25551395       1.17468414       0.70328969
H        1.35114568      -1.59701632       0.27278860
H        2.04017209      -0.46006262      -0.87253705
H       -1.03213749      -1.04036699      -0.03008889
H       -0.97574948       0.31828863       1.37054971
H       -2.36266184       0.09693678       0.20207069
H       -1.19474435       1.15060916      -1.39921031
12
Frame=4 idx=001141 GeodesicLength=0.20827804958005314 rxn_smarts="[O:1]([C:2]([C@@:3]1([H:9])[C:4]([H:10])([H:11])[N:5]1[H:12])([H:7])[H:8])[H:6]>>[O:1]([C:2]([C:3][N:5]([C:4]([H:9])([H:10])[H:11])[H:12])([H:7])[H:8])[H:6]"
O        1.51707727       0.28128833       1.00031771
C        1.27576401      -0.57209772      -0.09813457
C       -0.01417915      -0.38664028      -0.85105123
C       -1.29191853       0.12094786       0.35615008
N       -0.57332984       0.90055643      -0.64952859
H        1.26525216       1.16734135       0.71618542
H        1.36179479      -1.60111846       0.25579741
H        2.04593864      -0.44791535      -0.87464742
H       -1.03180112      -1.05134888      -0.02353595
H       -0.98914953       0.34599133       1.37125620
H       -2.36712904       0.10114863       0.20417039
H       -1.19831967       1.14184676      -1.40697947
12
Frame=5 idx=001141 GeodesicLength=0.2602029097641291 rxn_smarts="[O:1]([C:2]([C@@:3]1([H:9])[C:4]([H:10])([H:11])[N:5]1[H:12])([H:7])[H:8])[H:6]>>[O:1]([C:2]([C:3][N:5]([C:4]([H:9])([H:10])[H:11])[H:12])([H:7])[H:8])[H:6]"
O        1.51542127       0.26851375       1.00710574
C        1.28107307      -0.57211863      -0.10312052
C       -0.01328901      -0.38584847      -0.84552910
C       -1.29628890       0.12498905       0.35899049
N       -0.57859480       0.89547971      -0.65498195
H        1.27510868       1.15964496       0.72951664
H        1.37245686      -1.60501094       0.23854822
H        2.05167173      -0.43554215      -0.87663992
H       -1.03138821      -1.06241509      -0.01691114
H       -1.00256052       0.37416093       1.37139887
H       -2.37153950       0.10539750       0.20642485
H       -1.20207067       1.13274938      -1.41480218
12
Frame=6 idx=001141 GeodesicLength=0.31208736150169014 rxn_smarts="[O:1]([C:2]([C@@:3]1([H:9])[C:4]([H:10])([H:11])[N:5]1[H:12])([H:7])[H:8])[H:6]>>[O:1]([C:2]([C:3][N:5]([C:4]([H:9])([H:10])[H:11])[H:12])([H:7])[H:8])[H:6]"
O        1.51372715       0.25545958       1.01387010
C        1.28640084      -0.57202713      -0.10814170
C       -0.01237949      -0.38500928      -0.83993099
C       -1.30058730       0.12921101       0.36193540
N       -0.58398026       0.89029947      -0.66051455
H        1.28509455       1.15160547       0.74323945
H        1.38307220      -1.60866413       0.22110094
H        2.05737866      -0.42298859      -0.87848611
H       -1.03090257      -1.07357077      -0.01028168
H       -1.01592160       0.40267066       1.37102404
H       -2.37588637       0.10969973       0.20885355
H       -1.20601582       1.12331399      -1.42266845
12
Frame=7 idx=001141 GeodesicLength=0.3638538649996354 rxn_smarts="[O:1]([C:2]([C@@:3]1([H:9])[C:4]([H:10])([H:11])[N:5]1[H:12])([H:7])[H:8])[H:6]>>[O:1]([C:2]([C:3][N:5]([C:4]([H:9])([H:10])[H:11])[H:12])([H:7])[H:8])[H:6]"
O        1.51198873       0.24207988       1.02059699
C        1.29174455      -0.57182186      -0.11320580
C       -0.01145360      -0.38413265      -0.83423774
C       -1.30479130       0.13359871       0.36502763
N       -0.58947947       0.88500672      -0.66611146
H        1.29520227       1.14317773       0.75739044
H        1.39366991      -1.61207545       0.20341669
H        2.06304613      -0.41020878      -0.88018181
H       -1.03034527      -1.08480969      -0.00361142
H       -1.02927660       0.43161975       1.37002884
H       -2.38014803       0.11403593       0.21146103
H       -1.21015733       1.11352972      -1.43057339
12
Frame=8 idx=001141 GeodesicLength=0.4155631432627692 rxn_smarts="[O:1]([C:2]([C@@:3]1([H:9])[C:4]([H:10])([H:11])[N:5]1[H:12])([H:7])[H:8])[H:6]>>[O:1]([C:2]([C:3][N:5]([C:4]([H:9])([H:10])[H:11])[H:12])([H:7])[H:8])[H:6]"
O        1.51022902       0.22838614       1.02729742
C        1.29710639      -0.57149583      -0.11830605
C       -0.01051593      -0.38321124      -0.82845940
C       -1.30891776       0.13818277       0.36825584
N       -0.59510397       0.87959821      -0.67179244
H        1.30542876       1.13436076       0.77198907
H        1.40424709      -1.61523868       0.18549869
H        2.06867987      -0.39721262      -0.88171677
H       -1.02971888      -1.09613529       0.00307739
H       -1.04257603       0.46096436       1.36843427
H       -2.38434684       0.11842704       0.21425741
H       -1.21451175       1.10337437      -1.43853543
12
Frame=9 idx=001141 GeodesicLength=0.4671822758287496 rxn_smarts="[O:1]([C:2]([C@@:3]1([H:9])[C:4]([H:10])([H:11])[N:5]1[H:12])([H:7])[H:8])[H:6]>>[O:1]([C:2]([C:3][N:5]([C:4]([H:9])([H:10])[H:11])[H:12])([H:7])[H:8])[H:6]"
O        1.50845337       0.21438120       1.03395469
C        1.30247758      -0.57103525      -0.12344258
C       -0.00956213      -0.38223387      -0.82259245
C       -1.31295606       0.14297165       0.37162047
N       -0.60085300       0.87406142      -0.67754503
H        1.31578833       1.12515526       0.78703215
H        1.41477361      -1.61813523       0.16735511
H        2.07427782      -0.38400140      -0.88308321
H       -1.02902530      -1.10754314       0.00978681
H       -1.05582911       0.49067088       1.36619182
H       -2.38847026       0.12287801       0.21724655
H       -1.21907486       1.09283048      -1.44652432
12
Frame=10 idx=001141 GeodesicLength=0.5187536180600525 rxn_smarts="[O:1]([C:2]([C@@:3]1([H:9])[C:4]([H:10])([H:11])[N:5]1[H:12])([H:7])[H:8])[H:6]>>[O:1]([C:2]([C:3][N:5]([C:4]([H:9])([H:10])[H:11])[H:12])([H:7])[H:8])[H:6]"
O        1.50666403       0.20011298       1.04054642
C        1.30784278      -0.57043167      -0.12858449
C       -0.00858554      -0.38116838      -0.81665308
C       -1.31691113       0.14798191       0.37510526
N       -0.60673491       0.86841582      -0.68338339
H        1.32627264       1.11555846       0.80246757
H        1.42520799      -1.62073893       0.14905293
H        2.07983254      -0.37061998      -0.88424063
H       -1.02826311      -1.11904924       0.01641808
H       -1.06894750       0.52063920       1.36337528
H       -2.39251671       0.12739373       0.22045264
H       -1.22386108       1.08190612      -1.45455659
12
Frame=11 idx=001141 GeodesicLength=0.570241908460209 rxn_smarts="[O:1]([C:2]([C@@:3]1([H:9])[C:4]([H:10])([H:11])[N:5]1[H:12])([H:7])[H:8])[H:6]>>[O:1]([C:2]([C:3][N:5]([C:4]([H:9])([H:10])[H:11])[H:12])([H:7])[H:8])[H:6]"
O        1.50485946       0.18553923       1.04708080
C        1.31321230      -0.56967836      -0.13374514
C       -0.00758537      -0.38002863      -0.81063224
C       -1.32075685       0.15322920       0.37872176
N       -0.61275744       0.86264700      -0.68930058
H        1.33689249       1.10553826       0.81833760
H        1.43557646      -1.62305105       0.13054828
H        2.08535718      -0.35702785      -0.88519740
H       -1.02744392      -1.13064831       0.02302484
H       -1.08198887       0.55092654       1.35990623
H       -2.39647306       0.13198279       0.22387587
H       -1.22889236       1.07057117      -1.46262001
12
Frame=12 idx=001141 GeodesicLength=0.6216638208598644 rxn_smarts="[O:1]([C:2]([C@@:3]1([H:9])[C:4]([H:10])([H:11])[N:5]1[H:12])([H:7])[H:8])[H:6]>>[O:1]([C:2]([C:3][N:5]([C:4]([H:9])([H:10])[H:11])[H:12])([H:7])[H:8])[H:6]"
O        1.50304511       0.17062772       1.05357105
C        1.31858076      -0.56876811      -0.13892280
C       -0.00657586      -0.37881969      -0.80451173
C       -1.32451207       0.15874073       0.38248348
N       -0.61892379       0.85673337      -0.69531671
H        1.34763364       1.09503898       0.83469386
H        1.44591080      -1.62506932       0.11178235
H        2.09083155      -0.34317385      -0.88594009
H       -1.02654729      -1.14232980       0.02962578
H       -1.09492173       0.58159059       1.35574941
H       -2.40035249       0.13665264       0.22752379
H       -1.23416863       1.05877675      -1.47073840
12
Frame=13 idx=001141 GeodesicLength=0.673022877176854 rxn_smarts="[O:1]([C:2]([C@@:3]1([H:9])[C:4]([H:10])([H:11])[N:5]1[H:12])([H:7])[H:8])[H:6]>>[O:1]([C:2]([C:3][N:5]([C:4]([H:9])([H:10])[H:11])[H:12])([H:7])[H:8])[H:6]"
O        1.50120182       0.15532951       1.06001839
C        1.32394518      -0.56768906      -0.14412240
C       -0.00555842      -0.37755513      -0.79828771
C       -1.32815268       0.16455614       0.38638011
N       -0.62523306       0.85065640      -0.70145418
H        1.35847128       1.08400574       0.85157631
H        1.45624436      -1.62677407       0.09270841
H        2.09624429      -0.32899859      -0.88645525
H       -1.02558411      -1.15409470       0.03626622
H       -1.10775000       0.61265827       1.35087823
H       -2.40413206       0.14143518       0.23141730
H       -1.23969660       1.04647030      -1.47892544
12
Frame=14 idx=001141 GeodesicLength=0.7243569290379597 rxn_smarts="[O:1]([C:2]([C@@:3]1([H:9])[C:4]([H:10])([H:11])[N:5]1[H:12])([H:7])[H:8])[H:6]>>[O:1]([C:2]([C:3][N:5]([C:4]([H:9])([H:10])[H:11])[H:12])([H:7])[H:8])[H:6]"
O        1.49934493       0.13964742       1.06642523
C        1.32931005      -0.56643488      -0.14933669
C       -0.00453413      -0.37622790      -0.79196353
C       -1.33168810       0.17069882       0.39040895
N       -0.63170044       0.84441040      -0.70771729
H        1.36941998       1.07242312       0.86899796
H        1.46657577      -1.62815992       0.07331830
H        2.10161045      -0.31450195      -0.88672254
H       -1.02455346      -1.16594936       0.04292088
H       -1.12045180       0.64412711       1.34528343
H       -2.40782990       0.14634050       0.23556609
H       -1.24550335       1.03362664      -1.48718079
12
Frame=15 idx=001141 GeodesicLength=0.775625749924839 rxn_smarts="[O:1]([C:2]([C@@:3]1([H:9])[C:4]([H:10])([H:11])[N:5]1[H:12])([H:7])[H:8])[H:6]>>[O:1]([C:2]([C:3][N:5]([C:4]([H:9])([H:10])[H:11])[H:12])([H:7])[H:8])[H:6]"
O        1.49745726       0.12357812       1.07277723
C        1.33465405      -0.56498611      -0.15455739
C       -0.00350023      -0.37481853      -0.78553744
C       -1.33510426       0.17718558       0.39456511
N       -0.63832162       0.83798165      -0.71410920
H        1.38047002       1.06025732       0.88694666
H        1.47687270      -1.62919077       0.05361944
H        2.10690737      -0.29967151      -0.88672148
H       -1.02344509      -1.17788545       0.04958232
H       -1.13299574       0.67596250       1.33894345
H       -2.41141863       0.15137299       0.23998606
H       -1.25157581       1.02021422      -1.49549477
12
Frame=16 idx=001141 GeodesicLength=0.8268686379091841 rxn_smarts="[O:1]([C:2]([C@@:3]1([H:9])[C:4]([H:10])([H:11])[N:5]1[H:12])([H:7])[H:8])[H:6]>>[O:1]([C:2]([C:3][N:5]([C:4]([H:9])([H:10])[H:11])[H:12])([H:7])[H:8])[H:6]"
O        1.49554734       0.10706303       1.07908945
C        1.33999029      -0.56333696      -0.15978872
C       -0.00246473      -0.37334943      -0.77900078
C       -1.33839405       0.18406184       0.39884878
N       -0.64511239       0.83134694      -0.72065246
H        1.39160397       1.04743925       0.90549498
H        1.48719823      -1.62985943       0.03353714
H        2.11213375      -0.28444038      -0.88643226
H       -1.02226284      -1.18990530       0.05628534
H       -1.14538225       0.70824310       1.33181213
H       -2.41490388       0.15656994       0.24469217
H       -1.25795344       1.00616740      -1.50388577
