12
Frame=0 idx=001410 GeodesicLength=0.0 rxn_smarts="[C:1]([C:2](=[O:3])[C:4]([C:5](=[O:6])[H:12])([H:10])[H:11])([H:7])([H:8])[H:9]>>[C-:5]#[O+:6].[C:1]([C:2]([O:3][H:12])=[C:4]([H:10])[H:11])([H:7])([H:8])[H:9]"
C        1.55920082       0.30933923      -0.61593730
C        0.27965149       0.49106332       0.14109096
O       -0.47472438       1.47441832      -0.17607388
C       -0.26178261      -0.48823967       0.97664972
C       -1.94437639      -0.46454889      -0.16367213
O       -2.61889485      -1.37716178      -0.31354495
H        1.33587423       0.15976471      -1.67553292
H        2.14100314      -0.53195249      -0.24351542
H        2.15139104       1.22184117      -0.53822110
H        0.26555022      -1.42087237       1.13845008
H       -0.90118937      -0.16741746       1.79209545
H       -1.53170333       0.79376593      -0.32178855
12
Frame=1 idx=001410 GeodesicLength=0.06258227026547876 rxn_smarts="[C:1]([C:2](=[O:3])[C:4]([C:5](=[O:6])[H:12])([H:10])[H:11])([H:7])([H:8])[H:9]>>[C-:5]#[O+:6].[C:1]([C:2]([O:3][H:12])=[C:4]([H:10])[H:11])([H:7])([H:8])[H:9]"
C        1.57041086       0.31515012      -0.61095555
C        0.28492506       0.49079559       0.13705750
O       -0.47024838       1.47232023      -0.18466786
C       -0.26068312      -0.49618164       0.96375635
C       -1.96886002      -0.46956655      -0.15784583
O       -2.66360991      -1.36900655      -0.30082067
H        1.35474626       0.14270085      -1.66860842
H        2.16177671      -0.51171702      -0.22142530
H        2.15039162       1.23633285      -0.54523490
H        0.27023607      -1.42757220       1.12100077
H       -0.88773338      -0.17669424       1.78951725
H       -1.54135180       0.79343857      -0.32177333
12
Frame=2 idx=001410 GeodesicLength=0.125000435901476 rxn_smarts="[C:1]([C:2](=[O:3])[C:4]([C:5](=[O:6])[H:12])([H:10])[H:11])([H:7])([H:8])[H:9]>>[C-:5]#[O+:6].[C:1]([C:2]([O:3][H:12])=[C:4]([H:10])[H:11])([H:7])([H:8])[H:9]"
C        1.58172374       0.32107396      -0.60582117
C        0.29030897       0.49068909       0.13298568
O       -0.46587101       1.47001372      -0.19387367
C       -0.25960142      -0.50409417       0.95043896
C       -1.99375471      -0.47469270      -0.15137410
O       -2.70843331      -1.36051895      -0.28732183
H        1.37434067       0.12598220      -1.66114046
H        2.18197140      -0.49115677      -0.19920323
H        2.14959306       1.25048102      -0.55209038
H        0.27488686      -1.43426040       1.10289829
H       -0.87405259      -0.18632003       1.78653782
H       -1.55111167       0.79280303      -0.32203590
12
Frame=3 idx=001410 GeodesicLength=0.18722441932297265 rxn_smarts="[C:1]([C:2](=[O:3])[C:4]([C:5](=[O:6])[H:12])([H:10])[H:11])([H:7])([H:8])[H:9]>>[C-:5]#[O+:6].[C:1]([C:2]([O:3][H:12])=[C:4]([H:10])[H:11])([H:7])([H:8])[H:9]"
C        1.59297550       0.32701433      -0.60061801
C        0.29585534       0.49090305       0.12913386
O       -0.46154176       1.46766579      -0.20349054
C       -0.25853478      -0.51184659       0.93693132
C       -2.01891912      -0.47985969      -0.14423614
O       -2.75271809      -1.35198083      -0.27374781
H        1.39420235       0.10956608      -1.65321846
H        2.20137454      -0.47054580      -0.17708529
H        2.14900679       1.26413731      -0.55896360
H        0.27950813      -1.44081471       1.08446245
H       -0.86029655      -0.19622021       1.78332094
H       -1.56091235       0.79198127      -0.32248873
12
Frame=4 idx=001410 GeodesicLength=0.24908624413348174 rxn_smarts="[C:1]([C:2](=[O:3])[C:4]([C:5](=[O:6])[H:12])([H:10])[H:11])([H:7])([H:8])[H:9]>>[C-:5]#[O+:6].[C:1]([C:2]([O:3][H:12])=[C:4]([H:10])[H:11])([H:7])([H:8])[H:9]"
C        1.60434993       0.33308623      -0.59520744
C        0.30151794       0.49126307       0.12525200
O       -0.45731470       1.46497029      -0.21377772
C       -0.25748363      -0.51954264       0.92290909
C       -2.04446061      -0.48515193      -0.13642814
O       -2.79721199      -1.34299070      -0.25918165
H        1.41478489       0.09357855      -1.64461678
H        2.22020685      -0.44957934      -0.15485035
H        2.14866825       1.27741528      -0.56559433
H        0.28409271      -1.44727654       1.06523956
H       -0.84632710      -0.20649558       1.77953947
H       -1.57082253       0.79072330      -0.32328372
12
Frame=5 idx=001410 GeodesicLength=0.3108870791856302 rxn_smarts="[C:1]([C:2](=[O:3])[C:4]([C:5](=[O:6])[H:12])([H:10])[H:11])([H:7])([H:8])[H:9]>>[C-:5]#[O+:6].[C:1]([C:2]([O:3][H:12])=[C:4]([H:10])[H:11])([H:7])([H:8])[H:9]"
C        1.61582076       0.33926958      -0.58962902
C        0.30729112       0.49182670       0.12136008
O       -0.45315945       1.46207216      -0.22478526
C       -0.25645845      -0.52718052       0.90847266
C       -2.07043972      -0.49049627      -0.12778620
O       -2.84172172      -1.33374151      -0.24391995
H        1.43603273       0.07797692      -1.63549643
H        2.23842918      -0.42839808      -0.13246859
H        2.14858222       1.29039626      -0.57201456
H        0.28859128      -1.45374795       1.04531169
H       -0.83212296      -0.21713299       1.77538678
H       -1.58084497       0.78915569      -0.32443119
12
Frame=6 idx=001410 GeodesicLength=0.372531940056496 rxn_smarts="[C:1]([C:2](=[O:3])[C:4]([C:5](=[O:6])[H:12])([H:10])[H:11])([H:7])([H:8])[H:9]>>[C-:5]#[O+:6].[C:1]([C:2]([O:3][H:12])=[C:4]([H:10])[H:11])([H:7])([H:8])[H:9]"
C        1.62739004       0.34556970      -0.58385267
C        0.31317485       0.49259299       0.11747007
O       -0.44907909       1.45890613      -0.23654407
C       -0.25545756      -0.53474595       0.89357976
C       -2.09683721      -0.49588328      -0.11827424
O       -2.88626502      -1.32417072      -0.22788707
H        1.45793097       0.06277240      -1.62578926
H        2.25604831      -0.40698337      -0.10992535
H        2.14875478       1.30307026      -0.57820149
H        0.29300327      -1.46019322       1.02459922
H       -0.81768308      -0.22815674       1.77079063
H       -1.59098026       0.78722179      -0.32596552
12
Frame=7 idx=001410 GeodesicLength=0.43402013570355047 rxn_smarts="[C:1]([C:2](=[O:3])[C:4]([C:5](=[O:6])[H:12])([H:10])[H:11])([H:7])([H:8])[H:9]>>[C-:5]#[O+:6].[C:1]([C:2]([O:3][H:12])=[C:4]([H:10])[H:11])([H:7])([H:8])[H:9]"
C        1.63905160       0.35198601      -0.57786545
C        0.31916657       0.49357209       0.11359275
O       -0.44506237       1.45545009      -0.24909145
C       -0.25448250      -0.54222642       0.87822236
C       -2.12365255      -0.50128222      -0.10781293
O       -2.93080452      -1.31427974      -0.21111279
H        1.48045682       0.04795568      -1.61547353
H        2.27305482      -0.38534188      -0.08719572
H        2.14919059       1.31544760      -0.58415887
H        0.29731176      -1.46660697       1.00305525
H       -0.80300030      -0.23958372       1.76574129
H       -1.60122991       0.78490948      -0.32790091
12
Frame=8 idx=001410 GeodesicLength=0.49533084949886114 rxn_smarts="[C:1]([C:2](=[O:3])[C:4]([C:5](=[O:6])[H:12])([H:10])[H:11])([H:7])([H:8])[H:9]>>[C-:5]#[O+:6].[C:1]([C:2]([O:3][H:12])=[C:4]([H:10])[H:11])([H:7])([H:8])[H:9]"
C        1.65080229       0.35852680      -0.57164686
C        0.32526693       0.49477885       0.10975252
O       -0.44110205       1.45167416      -0.26245827
C       -0.25353379      -0.54961815       0.86238411
C       -2.15084003      -0.50669562      -0.09640346
O       -2.97535768      -1.30402140      -0.19351597
H        1.50358639       0.03354182      -1.60451332
H        2.28944461      -0.36347559      -0.06427350
H        2.14989627       1.32753594      -0.58986823
H        0.30151389      -1.47298322       0.98063448
H       -0.78809219      -0.25144459       1.76019907
H       -1.61158465       0.78218100      -0.33029056
12
Frame=9 idx=001410 GeodesicLength=0.5564784024978677 rxn_smarts="[C:1]([C:2](=[O:3])[C:4]([C:5](=[O:6])[H:12])([H:10])[H:11])([H:7])([H:8])[H:9]>>[C-:5]#[O+:6].[C:1]([C:2]([O:3][H:12])=[C:4]([H:10])[H:11])([H:7])([H:8])[H:9]"
C        1.66263045       0.36518457      -0.56518874
C        0.33146230       0.49622013       0.10594391
O       -0.43718733       1.44755303      -0.27670231
C       -0.25261230      -0.55689688       0.84606956
C       -2.17841962      -0.51206560      -0.08390396
O       -3.01983830      -1.29343615      -0.17519634
H        1.52729798       0.01953435      -1.59290576
H        2.30519043      -0.34142029      -0.04114261
H        2.15088286       1.33933974      -0.59531271
H        0.30558655      -1.47930941       0.95729617
H       -0.77293464      -0.26373747       1.75417652
H       -1.62205838       0.77903397      -0.33313374
12
Frame=10 idx=001410 GeodesicLength=0.6174570581904546 rxn_smarts="[C:1]([C:2](=[O:3])[C:4]([C:5](=[O:6])[H:12])([H:10])[H:11])([H:7])([H:8])[H:9]>>[C-:5]#[O+:6].[C:1]([C:2]([O:3][H:12])=[C:4]([H:10])[H:11])([H:7])([H:8])[H:9]"
C        1.67453681       0.37196932      -0.55846690
C        0.33774104       0.49790010       0.10216342
O       -0.43331220       1.44304162      -0.29188796
C       -0.25171901      -0.56405894       0.82925726
C       -2.20636302      -0.51737675      -0.07026920
O       -3.06426237      -1.28248271      -0.15607726
H        1.55159460       0.00595989      -1.58062361
H        2.32028271      -0.31918477      -0.01778299
H        2.15216019       1.35087624      -0.60044645
H        0.30952051      -1.48558219       0.93297755
H       -0.75752546      -0.27648937       1.74763947
H       -1.63265379       0.77542754      -0.33648334
12
Frame=11 idx=001410 GeodesicLength=0.6782606586080187 rxn_smarts="[C:1]([C:2](=[O:3])[C:4]([C:5](=[O:6])[H:12])([H:10])[H:11])([H:7])([H:8])[H:9]>>[C-:5]#[O+:6].[C:1]([C:2]([O:3][H:12])=[C:4]([H:10])[H:11])([H:7])([H:8])[H:9]"
C        1.68650255       0.37887300      -0.55147129
C        0.34408675       0.49982753       0.09841539
O       -0.42946428       1.43810641      -0.30806068
C       -0.25085348      -0.57108178       0.81195534
C       -2.23465843      -0.52256868      -0.05538135
O       -3.10853896      -1.27118380      -0.13625403
H        1.57643795      -0.00719237      -1.56764731
H        2.33469666      -0.29679080       0.00581920
H        2.15372564       1.36214436      -0.60526871
H        0.31329876      -1.49178328       0.90763763
H       -0.74185132      -0.28970647       1.74058902
H       -1.64338184       0.77135587      -0.34033321
12
Frame=12 idx=001410 GeodesicLength=0.7388979936992097 rxn_smarts="[C:1]([C:2](=[O:3])[C:4]([C:5](=[O:6])[H:12])([H:10])[H:11])([H:7])([H:8])[H:9]>>[C-:5]#[O+:6].[C:1]([C:2]([O:3][H:12])=[C:4]([H:10])[H:11])([H:7])([H:8])[H:9]"
C        1.69853666       0.38591772      -0.54416504
C        0.35047934       0.50199295       0.09467279
O       -0.42563748       1.43267899      -0.32531036
C       -0.25001451      -0.57798184       0.79411901
C       -2.26325955      -0.52764467      -0.03923477
O       -3.15275004      -1.25943487      -0.11554257
H        1.60187132      -0.01989110      -1.55393827
H        2.34842947      -0.27421749       0.02971758
H        2.15558041       1.37318340      -0.60971320
H        0.31692263      -1.49792167       0.88118589
H       -0.72591001      -0.30344050       1.73296532
H       -1.65424825       0.76675907      -0.34475637
12
Frame=13 idx=001410 GeodesicLength=0.7993272039234149 rxn_smarts="[C:1]([C:2](=[O:3])[C:4]([C:5](=[O:6])[H:12])([H:10])[H:11])([H:7])([H:8])[H:9]>>[C-:5]#[O+:6].[C:1]([C:2]([O:3][H:12])=[C:4]([H:10])[H:11])([H:7])([H:8])[H:9]"
C        1.71056649       0.39305467      -0.53658217
C        0.35690598       0.50443615       0.09100601
O       -0.42180017       1.42677147      -0.34357742
C       -0.24919760      -0.58468938       0.77584868
C       -2.29211077      -0.53249274      -0.02168412
O       -3.19659004      -1.24739398      -0.09437698
H        1.62770066      -0.03220352      -1.53950342
H        2.36142043      -0.25154454       0.05384048
H        2.15770598       1.38393036      -0.61388463
H        0.32037633      -1.50392401       0.85370016
H       -0.70971934      -0.31764594       1.72483758
H       -1.66525794       0.76170148      -0.34962419
12
Frame=14 idx=001410 GeodesicLength=0.8595522396120828 rxn_smarts="[C:1]([C:2](=[O:3])[C:4]([C:5](=[O:6])[H:12])([H:10])[H:11])([H:7])([H:8])[H:9]>>[C-:5]#[O+:6].[C:1]([C:2]([O:3][H:12])=[C:4]([H:10])[H:11])([H:7])([H:8])[H:9]"
C        1.72256476       0.40027366      -0.52872201
C        0.36334413       0.50716092       0.08742136
O       -0.41793492       1.42034757      -0.36287532
C       -0.24839569      -0.59118917       0.75717017
C       -2.32114840      -0.53707671      -0.00268838
O       -3.23999042      -1.23506097      -0.07285265
H        1.65386744      -0.04414616      -1.52432974
H        2.37365103      -0.22878788       0.07818135
H        2.16008771       1.39438059      -0.61779494
H        0.32366791      -1.50976197       0.82518542
H       -0.69329081      -0.33232697       1.71620225
H       -1.67642275       0.75618710      -0.35489751
12
Frame=15 idx=001410 GeodesicLength=0.919637040072682 rxn_smarts="[C:1]([C:2](=[O:3])[C:4]([C:5](=[O:6])[H:12])([H:10])[H:11])([H:7])([H:8])[H:9]>>[C-:5]#[O+:6].[C:1]([C:2]([O:3][H:12])=[C:4]([H:10])[H:11])([H:7])([H:8])[H:9]"
C        1.73454776       0.40761059      -0.52053946
C        0.36975800       0.51014423       0.08385687
O       -0.41403257       1.41334566      -0.38332051
C       -0.24760573      -0.59753524       0.73802231
C       -2.35029583      -0.54142745       0.01768392
O       -3.28310325      -1.22227241      -0.05067878
H        1.68046259      -0.05571138      -1.50837869
H        2.38512595      -0.20588943       0.10285425
H        2.16270733       1.40461727      -0.62138428
H        0.32681195      -1.51548370       0.79553554
H       -0.67662193      -0.34757190       1.70699664
H       -1.68775427       0.75017375      -0.36064781
12
Frame=16 idx=001410 GeodesicLength=0.9794011527230891 rxn_smarts="[C:1]([C:2](=[O:3])[C:4]([C:5](=[O:6])[H:12])([H:10])[H:11])([H:7])([H:8])[H:9]>>[C-:5]#[O+:6].[C:1]([C:2]([O:3][H:12])=[C:4]([H:10])[H:11])([H:7])([H:8])[H:9]"
C        1.74644466       0.41500875      -0.51206335
C        0.37611253       0.51335655       0.08031718
O       -0.41006461       1.40563484      -0.40483776
C       -0.24682306      -0.60363800       0.71847077
C       -2.37952132      -0.54539648       0.03969217
O       -3.32561834      -1.20913498      -0.02836986
H        1.70733710      -0.06693839      -1.49157844
H        2.39578741      -0.18285109       0.12775764
H        2.16552614       1.41451020      -0.62473678
H        0.32979389      -1.52091897       0.76479462
H       -0.65969740      -0.36330410       1.69720028
H       -1.69927700       0.74367168      -0.36664646
