16
Frame=0 idx=007259 GeodesicLength=0.0 rxn_smarts="[C:1]([C:2]1([C:3]([H:11])([H:12])[H:13])[C:4]([H:14])([H:15])[O:5][C:6]([H:16])=[N:7]1)([H:8])([H:9])[H:10]>>[C:1]([C:2]1([C:3]([H:11])([H:12])[H:13])[C-:4]=[O+:5][C:6]([H:16])=[N:7]1)([H:8])([H:9])[H:10].[H:14][H:15]"
C        1.03754746       0.90681911       0.83863688
C        0.18571358       0.06258606      -0.09113487
C        1.07737514      -0.71307333      -1.07646728
C       -0.70975280      -0.97511019       0.57100452
O       -1.88924956      -0.87414487      -0.09965941
C       -1.83147937       0.27475809      -0.87205320
N       -0.73976796       0.88730223      -0.89936468
H        1.72820282       1.51923278       0.25827364
H        1.61749924       0.26323859       1.50256470
H        0.41673763       1.56912012       1.44198723
H        1.79946994      -1.31882876      -0.52930028
H        0.48167297      -1.37306550      -1.70890117
H        1.60610532      -0.00661383      -1.71656094
H       -0.91339253      -0.79188621       1.86262438
H       -1.12052826       0.05011199       1.91409124
H       -2.74615362       0.51955367      -1.39574073
16
Frame=1 idx=007259 GeodesicLength=0.06787589467621472 rxn_smarts="[C:1]([C:2]1([C:3]([H:11])([H:12])[H:13])[C:4]([H:14])([H:15])[O:5][C:6]([H:16])=[N:7]1)([H:8])([H:9])[H:10]>>[C:1]([C:2]1([C:3]([H:11])([H:12])[H:13])[C-:4]=[O+:5][C:6]([H:16])=[N:7]1)([H:8])([H:9])[H:10].[H:14][H:15]"
C        1.03129038       0.91693408       0.82859882
C        0.18529561       0.06399130      -0.09913233
C        1.08194148      -0.72031825      -1.07191583
C       -0.71861684      -0.96196297       0.56855051
O       -1.90046172      -0.85337505      -0.09758897
C       -1.83309127       0.29133969      -0.87540195
N       -0.73285643       0.88724419      -0.91681208
H        1.71839219       1.53198596       0.24671403
H        1.61612319       0.28021032       1.49476066
H        0.40649082       1.57819662       1.42905939
H        1.79764217      -1.32557534      -0.51574041
H        0.48907267      -1.38121902      -1.70609343
H        1.61930578      -0.02043195      -1.71207448
H       -0.90002588      -0.83852072       1.88059273
H       -1.11457855       0.00968633       1.94619902
H       -2.74592359       0.54181481      -1.39971569
16
Frame=2 idx=007259 GeodesicLength=0.13578823903793946 rxn_smarts="[C:1]([C:2]1([C:3]([H:11])([H:12])[H:13])[C:4]([H:14])([H:15])[O:5][C:6]([H:16])=[N:7]1)([H:8])([H:9])[H:10]>>[C:1]([C:2]1([C:3]([H:11])([H:12])[H:13])[C-:4]=[O+:5][C:6]([H:16])=[N:7]1)([H:8])([H:9])[H:10].[H:14][H:15]"
C        1.02462458       0.92770978       0.81817730
C        0.18475569       0.06571285      -0.10736026
C        1.08641529      -0.72791674      -1.06670474
C       -0.72780055      -0.94774541       0.56654251
O       -1.91206693      -0.83094021      -0.09469868
C       -1.83453924       0.30862818      -0.87908952
N       -0.72577829       0.88690191      -0.93523106
H        1.70822920       1.54512260       0.23458447
H        1.61421253       0.29818202       1.48689286
H        0.39551979       1.58785109       1.41547238
H        1.79542638      -1.33229430      -0.50095685
H        0.49639963      -1.39012661      -1.70220992
H        1.63267982      -0.03506043      -1.70701036
H       -0.88550684      -0.88779941       1.89635741
H       -1.10689355      -0.03351217       1.97869569
H       -2.74567750       0.56528684      -1.40346122
16
Frame=3 idx=007259 GeodesicLength=0.2037189198116771 rxn_smarts="[C:1]([C:2]1([C:3]([H:11])([H:12])[H:13])[C:4]([H:14])([H:15])[O:5][C:6]([H:16])=[N:7]1)([H:8])([H:9])[H:10]>>[C:1]([C:2]1([C:3]([H:11])([H:12])[H:13])[C-:4]=[O+:5][C:6]([H:16])=[N:7]1)([H:8])([H:9])[H:10].[H:14][H:15]"
C        1.01759095       0.93916962       0.80737875
C        0.18407309       0.06778208      -0.11574980
C        1.09070840      -0.73584290      -1.06076909
C       -0.73731539      -0.93234762       0.56512165
O       -1.92408133      -0.80666085      -0.09079716
C       -1.83582196       0.32664739      -0.88307839
N       -0.71858614       0.88627620      -0.95450890
H        1.69776023       1.55862364       0.22185134
H        1.61178229       0.31716718       1.47897018
H        0.38392384       1.59814832       1.40123709
H        1.79274356      -1.33893801      -0.48491306
H        0.50352820      -1.39978104      -1.69713069
H        1.64610298      -0.05049019      -1.70132642
H       -0.86986003      -0.93981338       1.90958317
H       -1.09728944      -0.07966691       2.01145666
H       -2.74525923       0.58972647      -1.40732535
16
Frame=4 idx=007259 GeodesicLength=0.2716660127411521 rxn_smarts="[C:1]([C:2]1([C:3]([H:11])([H:12])[H:13])[C:4]([H:14])([H:15])[O:5][C:6]([H:16])=[N:7]1)([H:8])([H:9])[H:10]>>[C:1]([C:2]1([C:3]([H:11])([H:12])[H:13])[C-:4]=[O+:5][C:6]([H:16])=[N:7]1)([H:8])([H:9])[H:10].[H:14][H:15]"
C        1.01023424       0.95134789       0.79620201
C        0.18323794       0.07022274      -0.12423080
C        1.09474959      -0.74407976      -1.05403311
C       -0.74715598      -0.91566037       0.56443584
O       -1.93649131      -0.78037781      -0.08571264
C       -1.83692148       0.34538132      -0.88735769
N       -0.71132085       0.88534741      -0.97454180
H        1.68703941       1.57247498       0.20847002
H        1.60884262       0.33719898       1.47101126
H        0.37180452       1.60917933       1.38633698
H        1.78953156      -1.34545678      -0.46755369
H        0.51035639      -1.41019524      -1.69071997
H        1.65946475      -0.06672356      -1.69497564
H       -0.85317253      -0.99464088       1.91987283
H       -1.08561815      -0.12897981       2.04429039
H       -2.74458071       0.61496153      -1.41149399
16
Frame=5 idx=007259 GeodesicLength=0.33957289359334597 rxn_smarts="[C:1]([C:2]1([C:3]([H:11])([H:12])[H:13])[C:4]([H:14])([H:15])[O:5][C:6]([H:16])=[N:7]1)([H:8])([H:9])[H:10]>>[C:1]([C:2]1([C:3]([H:11])([H:12])[H:13])[C-:4]=[O+:5][C:6]([H:16])=[N:7]1)([H:8])([H:9])[H:10].[H:14][H:15]"
C        1.00261162       0.96426735       0.78465932
C        0.18222494       0.07306594      -0.13270922
C        1.09844751      -0.75259532      -1.04641009
C       -0.75733143      -0.89755445       0.56466776
O       -1.94928990      -0.75188644      -0.07922126
C       -1.83784517       0.36482007      -0.89188986
N       -0.70406029       0.88411410      -0.99517508
H        1.67613488       1.58663675       0.19440398
H        1.60541977       0.35829022       1.46303136
H        0.35929522       1.62103505       1.37078981
H        1.78572161      -1.35178980      -0.44882205
H        0.51674491      -1.42135441      -1.68282171
H        1.67262951      -0.08375528      -1.68790913
H       -0.83551954      -1.05233140       1.92675030
H       -1.07166766      -0.18165420       2.07695607
H       -2.74351597       0.64069182      -1.41630022
16
Frame=6 idx=007259 GeodesicLength=0.40747078227375294 rxn_smarts="[C:1]([C:2]1([C:3]([H:11])([H:12])[H:13])[C:4]([H:14])([H:15])[O:5][C:6]([H:16])=[N:7]1)([H:8])([H:9])[H:10]>>[C:1]([C:2]1([C:3]([H:11])([H:12])[H:13])[C-:4]=[O+:5][C:6]([H:16])=[N:7]1)([H:8])([H:9])[H:10].[H:14][H:15]"
C        0.99479529       0.97797552       0.77273899
C        0.18104740       0.07632142      -0.14109903
C        1.10175601      -0.76137602      -1.03780979
C       -0.76779127      -0.87792397       0.56599714
O       -1.96239184      -0.72108788      -0.07118457
C       -1.83855677       0.38485895      -0.89668206
N       -0.69683437       0.88252473      -1.01628963
H        1.66513760       1.60109033       0.17958711
H        1.60153298       0.38049793       1.45506611
H        0.34653423       1.63385776       1.35453455
H        1.78128878      -1.35787148      -0.42864856
H        0.52262080      -1.43329145      -1.67327100
H        1.68549423      -0.10159013      -1.68008235
H       -0.81716185      -1.11289561       1.92970233
H       -1.05538668      -0.23789919       2.10911256
H       -2.74208456       0.66680908      -1.42167179
16
Frame=7 idx=007259 GeodesicLength=0.47534277683014825 rxn_smarts="[C:1]([C:2]1([C:3]([H:11])([H:12])[H:13])[C:4]([H:14])([H:15])[O:5][C:6]([H:16])=[N:7]1)([H:8])([H:9])[H:10]>>[C:1]([C:2]1([C:3]([H:11])([H:12])[H:13])[C-:4]=[O+:5][C:6]([H:16])=[N:7]1)([H:8])([H:9])[H:10].[H:14][H:15]"
C        0.98686283       0.99251165       0.76043108
C        0.17971016       0.07999432      -0.14929649
C        1.10463155      -0.77040154      -1.02812867
C       -0.77848351      -0.85665945       0.56863074
O       -1.97569847      -0.68788048      -0.06144166
C       -1.83904336       0.40536718      -0.90172085
N       -0.68970480       0.88052091      -1.03773521
H        1.65414261       1.61579470       0.16394894
H        1.59721231       0.40387413       1.44714510
H        0.33367370       1.64779459       1.33751903
H        1.77622649      -1.36362519      -0.40695234
H        0.52790748      -1.44602620      -1.66188030
H        1.69795335      -0.12023348      -1.67144662
H       -0.79838625      -1.17628837       1.92813605
H       -1.03670361      -0.29791388       2.14033624
H       -2.74030049       0.69317109      -1.42754505
16
Frame=8 idx=007259 GeodesicLength=0.543241513950781 rxn_smarts="[C:1]([C:2]1([C:3]([H:11])([H:12])[H:13])[C:4]([H:14])([H:15])[O:5][C:6]([H:16])=[N:7]1)([H:8])([H:9])[H:10]>>[C:1]([C:2]1([C:3]([H:11])([H:12])[H:13])[C-:4]=[O+:5][C:6]([H:16])=[N:7]1)([H:8])([H:9])[H:10].[H:14][H:15]"
C        0.97894155       1.00794319       0.74772223
C        0.17824381       0.08408756      -0.15717896
C        1.10701204      -0.77964532      -1.01726712
C       -0.78930301      -0.83366415       0.57279707
O       -1.98905405      -0.65223113      -0.04986450
C       -1.83927254       0.42619036      -0.90694295
N       -0.68270515       0.87804013      -1.05933886
H        1.64329075       1.63074240       0.14740590
H        1.59252805       0.42850212       1.43930717
H        0.32093606       1.66304260       1.31966543
H        1.77051114      -1.36896382      -0.38367238
H        0.53249623      -1.45958578      -1.64846025
H        1.70986589      -0.13967075      -1.66196255
H       -0.77963841      -1.24243185       1.92144057
H       -1.01566487      -0.36192661       2.17015585
H       -2.73818750       0.71957105      -1.43380665
16
Frame=9 idx=007259 GeodesicLength=0.6109960246795556 rxn_smarts="[C:1]([C:2]1([C:3]([H:11])([H:12])[H:13])[C:4]([H:14])([H:15])[O:5][C:6]([H:16])=[N:7]1)([H:8])([H:9])[H:10]>>[C:1]([C:2]1([C:3]([H:11])([H:12])[H:13])[C-:4]=[O+:5][C:6]([H:16])=[N:7]1)([H:8])([H:9])[H:10].[H:14][H:15]"
C        0.97109759       1.02424301       0.73460306
C        0.17663328       0.08859307      -0.16459217
C        1.10889573      -0.78906598      -1.00510658
C       -0.80018802      -0.80880285       0.57877948
O       -2.00231937      -0.61402945      -0.03622828
C       -1.83930794       0.44718986      -0.91218748
N       -0.67597263       0.87501726      -1.08083805
H        1.63265546       1.64577539       0.12987470
H        1.58751931       0.45436968       1.43154136
H        0.30846773       1.67970190       1.30094797
H        1.76422928      -1.37378865      -0.35874598
H        0.53635457      -1.47392498      -1.63277556
H        1.72114769      -0.15991092      -1.65159052
H       -0.76126812      -1.31104546       1.90883865
H       -0.99219389      -0.43003150       2.19792210
H       -2.73575067       0.74570962      -1.44044269
16
Frame=10 idx=007259 GeodesicLength=0.6787672614609789 rxn_smarts="[C:1]([C:2]1([C:3]([H:11])([H:12])[H:13])[C:4]([H:14])([H:15])[O:5][C:6]([H:16])=[N:7]1)([H:8])([H:9])[H:10]>>[C:1]([C:2]1([C:3]([H:11])([H:12])[H:13])[C-:4]=[O+:5][C:6]([H:16])=[N:7]1)([H:8])([H:9])[H:10].[H:14][H:15]"
C        0.96355118       1.04149805       0.72105480
C        0.17495703       0.09348692      -0.17138126
C        1.11024709      -0.79861704      -0.99157049
C       -0.81092735      -0.78204454       0.58685141
O       -2.01523675      -0.57346239      -0.02050051
C       -1.83912942       0.46812594      -0.91729722
N       -0.66953651       0.87135872      -1.10202219
H        1.62246116       1.66091543       0.11124431
H        1.58236272       0.48159331       1.42389899
H        0.29660013       1.69801571       1.28125631
H        1.75742862      -1.37798019      -0.33215686
H        0.53938192      -1.48906629      -1.61465567
H        1.73164583      -0.18088590      -1.64034086
H       -0.74407830      -1.38185916       1.88973611
H       -0.96662000      -0.50239924       2.22301583
H       -2.73310735       0.77132068      -1.44713270
16
Frame=11 idx=007259 GeodesicLength=0.7465165080835426 rxn_smarts="[C:1]([C:2]1([C:3]([H:11])([H:12])[H:13])[C:4]([H:14])([H:15])[O:5][C:6]([H:16])=[N:7]1)([H:8])([H:9])[H:10]>>[C:1]([C:2]1([C:3]([H:11])([H:12])[H:13])[C-:4]=[O+:5][C:6]([H:16])=[N:7]1)([H:8])([H:9])[H:10].[H:14][H:15]"
C        0.95642255       1.05971533       0.70700937
C        0.17327079       0.09869390      -0.17739062
C        1.11112634      -0.80825636      -0.97654179
C       -0.82131316      -0.75338750       0.59726544
O       -2.02751520      -0.53078989      -0.00266238
C       -1.83873792       0.48867968      -0.92205905
N       -0.66346514       0.86687063      -1.12264855
H        1.61280709       1.67606783       0.09136833
H        1.57715520       0.51026093       1.41633548
H        0.28552727       1.71811497       1.26043165
H        1.75027343      -1.38138786      -0.30385581
H        0.54163304      -1.50501126      -1.59385850
H        1.74130102      -0.20256124      -1.62817316
H       -0.72880613      -1.45436403       1.86341731
H       -0.93928176      -0.57903867       2.24460642
H       -2.73039743       0.79639353      -1.45324414
16
Frame=12 idx=007259 GeodesicLength=0.8143959491815108 rxn_smarts="[C:1]([C:2]1([C:3]([H:11])([H:12])[H:13])[C:4]([H:14])([H:15])[O:5][C:6]([H:16])=[N:7]1)([H:8])([H:9])[H:10]>>[C:1]([C:2]1([C:3]([H:11])([H:12])[H:13])[C-:4]=[O+:5][C:6]([H:16])=[N:7]1)([H:8])([H:9])[H:10].[H:14][H:15]"
C        0.94997457       1.07896288       0.69244169
C        0.17166027       0.10414786      -0.18243693
C        1.11155401      -0.81791661      -0.95994832
C       -0.83109620      -0.72290855       0.61032073
O       -2.03890570      -0.48639630       0.01728979
C       -1.83819454       0.50858919      -0.92620627
N       -0.65783878       0.86141316      -1.14249643
H        1.60392480       1.69125980       0.07010925
H        1.57218957       0.54050950       1.40887299
H        0.27561219       1.74018290       1.23837166
H        1.74293154      -1.38386391      -0.27382777
H        0.54304315      -1.52176238      -1.57020919
H        1.75000615      -0.22481572      -1.61512277
H       -0.71638143      -1.52802218       1.82931243
H       -0.91069136      -0.66002593       2.26194861
H       -2.72778824       0.82064630      -1.45841946
16
Frame=13 idx=007259 GeodesicLength=0.8820413482197195 rxn_smarts="[C:1]([C:2]1([C:3]([H:11])([H:12])[H:13])[C:4]([H:14])([H:15])[O:5][C:6]([H:16])=[N:7]1)([H:8])([H:9])[H:10]>>[C:1]([C:2]1([C:3]([H:11])([H:12])[H:13])[C-:4]=[O+:5][C:6]([H:16])=[N:7]1)([H:8])([H:9])[H:10].[H:14][H:15]"
C        0.94415612       1.09902429       0.67734818
C        0.17012297       0.10977306      -0.18626661
C        1.11164754      -0.82754900      -0.94178115
C       -0.83998288      -0.69053380       0.62632675
O       -2.04901645      -0.44031637       0.03965662
C       -1.83752873       0.52785375      -0.92902001
N       -0.65282265       0.85490840      -1.16097949
H        1.59562669       1.70609850       0.04741583
H        1.56748040       0.57214469       1.40131232
H        0.26684822       1.76409787       1.21513739
H        1.73568268      -1.38534211      -0.24230189
H        0.54382228      -1.53912974      -1.54357566
H        1.75768561      -0.24767886      -1.60123934
H       -0.70745080      -1.60169942       1.78663690
H       -0.88118028      -0.74489402       2.27390565
H       -2.72509072       0.84324274      -1.46257547
16
Frame=14 idx=007259 GeodesicLength=0.9498405238728606 rxn_smarts="[C:1]([C:2]1([C:3]([H:11])([H:12])[H:13])[C:4]([H:14])([H:15])[O:5][C:6]([H:16])=[N:7]1)([H:8])([H:9])[H:10]>>[C:1]([C:2]1([C:3]([H:11])([H:12])[H:13])[C-:4]=[O+:5][C:6]([H:16])=[N:7]1)([H:8])([H:9])[H:10].[H:14][H:15]"
C        0.93928640       1.11995580       0.66162926
C        0.16884310       0.11532471      -0.18878841
C        1.11161649      -0.83706669      -0.92202834
C       -0.84760912      -0.65684227       0.64535584
O       -2.05759535      -0.39365371       0.06408005
C       -1.83677474       0.54583579      -0.93044057
N       -0.64842055       0.84696259      -1.17809466
H        1.58816522       1.72078073       0.02309917
H        1.56346862       0.60540324       1.39363894
H        0.25956481       1.78986111       1.19049205
H        1.72894531      -1.38558498      -0.20928145
H        0.54413773      -1.55719141      -1.51391235
H        1.76441457      -0.27082931      -1.58658958
H       -0.70320318      -1.67447164       1.73545675
H       -0.85202078      -0.83330841       2.27974247
H       -2.72281853       0.86482445      -1.46435918
16
Frame=15 idx=007259 GeodesicLength=1.0177487341846383 rxn_smarts="[C:1]([C:2]1([C:3]([H:11])([H:12])[H:13])[C:4]([H:14])([H:15])[O:5][C:6]([H:16])=[N:7]1)([H:8])([H:9])[H:10]>>[C:1]([C:2]1([C:3]([H:11])([H:12])[H:13])[C-:4]=[O+:5][C:6]([H:16])=[N:7]1)([H:8])([H:9])[H:10].[H:14][H:15]"
C        0.93537977       1.14152498       0.64529709
C        0.16788278       0.12061975      -0.18982988
C        1.11167269      -0.84639884      -0.90079814
C       -0.85362312      -0.62221713       0.66747787
O       -2.06437404      -0.34668614       0.09080151
C       -1.83597755       0.56242472      -0.92990788
N       -0.64474828       0.83740475      -1.19344804
H        1.58136256       1.73510476      -0.00285073
H        1.56036052       0.64011807       1.38566600
H        0.25373815       1.81714312       1.16453513
H        1.72313999      -1.38451163      -0.17507749
H        0.54428390      -1.57578339      -1.48131095
H        1.77023422      -0.29410688      -1.57130078
H       -0.70432713      -1.74500008       1.67571233
H       -0.82406483      -0.92447626       2.27856585
H       -2.72093964       0.88484020      -1.46353189
16
Frame=16 idx=007259 GeodesicLength=1.0858327534664491 rxn_smarts="[C:1]([C:2]1([C:3]([H:11])([H:12])[H:13])[C:4]([H:14])([H:15])[O:5][C:6]([H:16])=[N:7]1)([H:8])([H:9])[H:10]>>[C:1]([C:2]1([C:3]([H:11])([H:12])[H:13])[C-:4]=[O+:5][C:6]([H:16])=[N:7]1)([H:8])([H:9])[H:10].[H:14][H:15]"
C        0.93249421       1.16346699       0.62843481
C        0.16733780       0.12543818      -0.18928682
C        1.11202193      -0.85544642      -0.87833094
C       -0.85766108      -0.58734168       0.69254914
O       -2.06912473      -0.29968796       0.12004231
C       -1.83515036       0.57751338      -0.92697805
N       -0.64187632       0.82610981      -1.20672705
H        1.57506021       1.74899061      -0.03031553
H        1.55844910       0.67604579       1.37724681
H        0.24937039       1.84545381       1.13750845
H        1.71869038      -1.38207189      -0.14014954
H        0.54453361      -1.59472037      -1.44610439
H        1.77519028      -0.31719304      -1.55557822
H       -0.71141167      -1.81187915       1.60793291
H       -0.79844910      -1.01726970       2.26975863
H       -2.71947463       0.90259165      -1.46000250
