12
Frame=0 idx=001130 GeodesicLength=0.0 rxn_smarts="[O:1]=[C:2]([C:3]([C@@:4]1([H:10])[C:5]([H:11])([H:12])[O:6]1)([H:8])[H:9])[H:7]>>[O+:1](=[C-:2][H:7])[C:3]([C@@:4]1([H:10])[C:5]([H:11])([H:12])[O:6]1)([H:8])[H:9]"
O        1.56290831      -0.13204699       0.99167887
C        2.18153716       0.19235504      -0.09486151
C        0.64546408      -0.67139746      -0.36789323
C       -0.67790664      -0.50265219       0.33890092
C       -1.48174416       0.69121250       0.12775265
O       -1.78298581      -0.52227760      -0.54614146
H        2.12543803       1.30967690      -0.24704259
H        0.94571093      -1.69411249      -0.54679801
H        0.58306057      -0.07638365      -1.29255788
H       -0.80574291      -1.07564080       1.25159278
H       -2.19609525       0.99073442       0.88745170
H       -1.09964435       1.49053229      -0.50208228
12
Frame=1 idx=001130 GeodesicLength=0.058080634025295286 rxn_smarts="[O:1]=[C:2]([C:3]([C@@:4]1([H:10])[C:5]([H:11])([H:12])[O:6]1)([H:8])[H:9])[H:7]>>[O+:1](=[C-:2][H:7])[C:3]([C@@:4]1([H:10])[C:5]([H:11])([H:12])[O:6]1)([H:8])[H:9]"
O        1.54913185      -0.08499723       1.00002069
C        2.20291054       0.16554478      -0.08066872
C        0.64337254      -0.65261058      -0.36516912
C       -0.68320577      -0.50207424       0.33792218
C       -1.50099749       0.68308035       0.13052896
O       -1.78917187      -0.53217624      -0.54571449
H        2.21338748       1.27734056      -0.27014191
H        0.93890063      -1.67516206      -0.55844323
H        0.57712675      -0.06032824      -1.29082484
H       -0.80449404      -1.07943178       1.24892792
H       -2.21786753       0.97275820       0.89172815
H       -1.12909309       1.48805649      -0.49816560
12
Frame=2 idx=001130 GeodesicLength=0.11563207436083284 rxn_smarts="[O:1]=[C:2]([C:3]([C@@:4]1([H:10])[C:5]([H:11])([H:12])[O:6]1)([H:8])[H:9])[H:7]>>[O+:1](=[C-:2][H:7])[C:3]([C@@:4]1([H:10])[C:5]([H:11])([H:12])[O:6]1)([H:8])[H:9]"
O        1.53519929      -0.03341354       1.00587149
C        2.22342157       0.13753517      -0.06420932
C        0.64122498      -0.63248596      -0.36297009
C       -0.68814876      -0.50097856       0.33702121
C       -1.52120285       0.67428474       0.13319846
O       -1.79522163      -0.54319826      -0.54476683
H        2.30442213       1.23804784      -0.29192939
H        0.93177103      -1.65458173      -0.57153537
H        0.57118734      -0.04171601      -1.28884643
H       -0.80160079      -1.08206626       1.24686482
H       -2.24043286       0.95363424       0.89609484
H       -1.16061945       1.48493834      -0.49479340
12
Frame=3 idx=001130 GeodesicLength=0.17216893745951037 rxn_smarts="[O:1]=[C:2]([C:3]([C@@:4]1([H:10])[C:5]([H:11])([H:12])[O:6]1)([H:8])[H:9])[H:7]>>[O+:1](=[C-:2][H:7])[C:3]([C@@:4]1([H:10])[C:5]([H:11])([H:12])[O:6]1)([H:8])[H:9]"
O        1.52144453       0.02269966       1.00867292
C        2.24257840       0.10875986      -0.04518889
C        0.63908348      -0.61115878      -0.36139616
C       -0.69258052      -0.49933339       0.33621305
C       -1.54205496       0.66488651       0.13578755
O       -1.80094183      -0.55524585      -0.54328781
H        2.39691135       1.19136998      -0.31185889
H        0.92449205      -1.63242576      -0.58621561
H        0.56525746      -0.02079109      -1.28682635
H       -0.79692554      -1.08344721       1.24544614
H       -2.26350469       0.93349519       0.90054361
H       -1.19375972       1.48119089      -0.49188954
12
Frame=4 idx=001130 GeodesicLength=0.22774074130861605 rxn_smarts="[O:1]=[C:2]([C:3]([C@@:4]1([H:10])[C:5]([H:11])([H:12])[O:6]1)([H:8])[H:9])[H:7]>>[O+:1](=[C-:2][H:7])[C:3]([C@@:4]1([H:10])[C:5]([H:11])([H:12])[O:6]1)([H:8])[H:9]"
O        1.50801721       0.08315117       1.00737779
C        2.25979507       0.07922358      -0.02371196
C        0.63684553      -0.58851966      -0.36094608
C       -0.69625062      -0.49697647       0.33546363
C       -1.56357461       0.65473183       0.13813265
O       -1.80645031      -0.56873292      -0.54049290
H        2.49104812       1.13685503      -0.32761389
H        0.91706424      -1.60842750      -0.60300719
H        0.55899816       0.00267457      -1.28495858
H       -0.78970706      -1.08275693       1.24493172
H       -2.28647352       0.91262923       0.90521160
H       -1.22931222       1.47614806      -0.49038678
12
Frame=5 idx=001130 GeodesicLength=0.2814287433053328 rxn_smarts="[O:1]=[C:2]([C:3]([C@@:4]1([H:10])[C:5]([H:11])([H:12])[O:6]1)([H:8])[H:9])[H:7]>>[O+:1](=[C-:2][H:7])[C:3]([C@@:4]1([H:10])[C:5]([H:11])([H:12])[O:6]1)([H:8])[H:9]"
O        1.49547793       0.14722826       1.00175569
C        2.27450703       0.05004851       0.00049848
C        0.63466833      -0.56511535      -0.36156167
C       -0.69904878      -0.49405490       0.33473254
C       -1.58496795       0.64414577       0.14041793
O       -1.81135012      -0.58301527      -0.53690582
H        2.58297898       1.07522623      -0.33944826
H        0.90997149      -1.58315020      -0.62142343
H        0.55251003       0.02749520      -1.28376298
H       -0.78036186      -1.08049247       1.24505974
H       -2.30886040       0.89134838       0.91009778
H       -1.26552468       1.47033583      -0.48945999
12
Frame=6 idx=001130 GeodesicLength=0.3337635494768044 rxn_smarts="[O:1]=[C:2]([C:3]([C@@:4]1([H:10])[C:5]([H:11])([H:12])[O:6]1)([H:8])[H:9])[H:7]>>[O+:1](=[C-:2][H:7])[C:3]([C@@:4]1([H:10])[C:5]([H:11])([H:12])[O:6]1)([H:8])[H:9]"
O        1.48403090       0.21482885       0.99100064
C        2.28635839       0.02142748       0.02734102
C        0.63244574      -0.54092628      -0.36372066
C       -0.70090172      -0.49055332       0.33396278
C       -1.60624325       0.63304167       0.14262928
O       -1.81590507      -0.59834443      -0.53208736
H        2.67307282       1.00658071      -0.34565047
H        0.90325020      -1.55656519      -0.64168238
H        0.54546676       0.05358473      -1.28374450
H       -0.76855793      -1.07633480       1.24599199
H       -2.33022032       0.86981742       0.91554224
H       -1.30279652       1.46344316      -0.48958260
12
Frame=7 idx=001130 GeodesicLength=0.384288769424283 rxn_smarts="[O:1]=[C:2]([C:3]([C@@:4]1([H:10])[C:5]([H:11])([H:12])[O:6]1)([H:8])[H:9])[H:7]>>[O+:1](=[C-:2][H:7])[C:3]([C@@:4]1([H:10])[C:5]([H:11])([H:12])[O:6]1)([H:8])[H:9]"
O        1.47434795       0.28429660       0.97489110
C        2.29482113      -0.00587632       0.05636980
C        0.63016541      -0.51623878      -0.36760559
C       -0.70160912      -0.48644252       0.33316050
C       -1.62681678       0.62163799       0.14483214
O       -1.81988792      -0.61448749      -0.52587258
H        2.75900086       0.93221437      -0.34517012
H        0.89710079      -1.52899028      -0.66353448
H        0.53760759       0.08014245      -1.28535518
H       -0.75428242      -1.07023213       1.24761085
H       -2.34996488       0.84850532       0.92149735
H       -1.34048262       1.45547078      -0.49082380
12
Frame=8 idx=001130 GeodesicLength=0.4334707873605912 rxn_smarts="[O:1]=[C:2]([C:3]([C@@:4]1([H:10])[C:5]([H:11])([H:12])[O:6]1)([H:8])[H:9])[H:7]>>[O+:1](=[C-:2][H:7])[C:3]([C@@:4]1([H:10])[C:5]([H:11])([H:12])[O:6]1)([H:8])[H:9]"
O        1.46650859       0.35556574       0.95292776
C        2.29979125      -0.03157810       0.08777313
C        0.62788159      -0.49111677      -0.37343858
C       -0.70115900      -0.48177210       0.33217764
C       -1.64658785       0.60997709       0.14720264
O       -1.82330134      -0.63122595      -0.51835253
H        2.84008868       0.85236140      -0.33769094
H        0.89185633      -1.50057363      -0.68673116
H        0.52884277       0.10675564      -1.28902875
H       -0.73762171      -1.06230428       1.24965195
H       -2.36793792       0.82738990       0.92828626
H       -1.37836138       1.44652106      -0.49277743
12
Frame=9 idx=001130 GeodesicLength=0.4814339741590781 rxn_smarts="[O:1]=[C:2]([C:3]([C@@:4]1([H:10])[C:5]([H:11])([H:12])[O:6]1)([H:8])[H:9])[H:7]>>[O+:1](=[C-:2][H:7])[C:3]([C@@:4]1([H:10])[C:5]([H:11])([H:12])[O:6]1)([H:8])[H:9]"
O        1.46075491       0.42741599       0.92463877
C        2.30078727      -0.05513157       0.12078007
C        0.62546574      -0.46582007      -0.38159006
C       -0.69942893      -0.47661175       0.33084416
C       -1.66518264       0.59820244       0.14982243
O       -1.82615295      -0.64836129      -0.50930805
H        2.91538735       0.76851477      -0.32158450
H        0.88765660      -1.47175125      -0.71085799
H        0.51866835       0.13260943      -1.29537098
H       -0.71845388      -1.05256027       1.25186655
H       -2.38337054       0.80689308       0.93617150
H       -1.41613128       1.43660051      -0.49541190
12
Frame=10 idx=001130 GeodesicLength=0.528643321174224 rxn_smarts="[O:1]=[C:2]([C:3]([C@@:4]1([H:10])[C:5]([H:11])([H:12])[O:6]1)([H:8])[H:9])[H:7]>>[O+:1](=[C-:2][H:7])[C:3]([C@@:4]1([H:10])[C:5]([H:11])([H:12])[O:6]1)([H:8])[H:9]"
O        1.45763867       0.49880392       0.89020174
C        2.29794909      -0.07609675       0.15497974
C        0.62294826      -0.44048687      -0.39217220
C       -0.69648694      -0.47099358       0.32913527
C       -1.68247116       0.58645860       0.15286016
O       -1.82852292      -0.66571488      -0.49884836
H        2.98424518       0.68184464      -0.29663897
H        0.88462978      -1.44286547      -0.73569391
H        0.50700143       0.15723458      -1.30474870
H       -0.69712310      -1.04119811       1.25410049
H       -2.39629206       0.78715786       0.94531742
H       -1.45351624       1.42585605      -0.49849269
12
Frame=11 idx=001130 GeodesicLength=0.5747580642274133 rxn_smarts="[O:1]=[C:2]([C:3]([C@@:4]1([H:10])[C:5]([H:11])([H:12])[O:6]1)([H:8])[H:9])[H:7]>>[O+:1](=[C-:2][H:7])[C:3]([C@@:4]1([H:10])[C:5]([H:11])([H:12])[O:6]1)([H:8])[H:9]"
O        1.45766156       0.56756778       0.85075024
C        2.29131721      -0.09403349       0.18958408
C        0.62036286      -0.41541988      -0.40477302
C       -0.69229609      -0.46499524       0.32705429
C       -1.69791364       0.57505927       0.15633417
O       -1.83001140      -0.68270631      -0.48725779
H        3.04442718       0.59454577      -0.26398091
H        0.88289188      -1.41437632      -0.76038603
H        0.49386066       0.18007720      -1.31683705
H       -0.67411564      -1.02876574       1.25592953
H       -2.40649715       0.76841058       0.95527401
H       -1.48968744       1.41463638      -0.50169152
12
Frame=12 idx=001130 GeodesicLength=0.6203157589618791 rxn_smarts="[O:1]=[C:2]([C:3]([C@@:4]1([H:10])[C:5]([H:11])([H:12])[O:6]1)([H:8])[H:9])[H:7]>>[O+:1](=[C-:2][H:7])[C:3]([C@@:4]1([H:10])[C:5]([H:11])([H:12])[O:6]1)([H:8])[H:9]"
O        1.46058182       0.63305585       0.80626283
C        2.28116846      -0.10851384       0.22354160
C        0.61761057      -0.39114082      -0.41961216
C       -0.68710603      -0.45892302       0.32432615
C       -1.71145190       0.56416193       0.16040277
O       -1.83109014      -0.69900201      -0.47474229
H        3.09638675       0.50865793      -0.22262738
H        0.88248141      -1.38706799      -0.78456882
H        0.47898893       0.20015061      -1.33208519
H       -0.64985010      -1.01568424       1.25701288
H       -2.41350884       0.75107446       0.96660278
H       -1.52421094       1.40323114      -0.50451319
12
Frame=13 idx=001130 GeodesicLength=0.6655006110441286 rxn_smarts="[O:1]=[C:2]([C:3]([C@@:4]1([H:10])[C:5]([H:11])([H:12])[O:6]1)([H:8])[H:9])[H:7]>>[O+:1](=[C-:2][H:7])[C:3]([C@@:4]1([H:10])[C:5]([H:11])([H:12])[O:6]1)([H:8])[H:9]"
O        1.46666381       0.69433444       0.75793920
C        2.26806446      -0.11965193       0.25656657
C        0.61477913      -0.36775316      -0.43620527
C       -0.68104929      -0.45283662       0.32103833
C       -1.72303822       0.55389697       0.16505839
O       -1.83163099      -0.71438867      -0.46165195
H        3.13952282       0.42536050      -0.17431936
H        0.88334391      -1.36109325      -0.80798356
H        0.46273770       0.21753999      -1.34987476
H       -0.62487357      -1.00238623       1.25722678
H       -2.41770474       0.73508191       0.97895436
H       -1.55681502       1.39189604      -0.50674872
12
Frame=14 idx=001130 GeodesicLength=0.7104980423129447 rxn_smarts="[O:1]=[C:2]([C:3]([C@@:4]1([H:10])[C:5]([H:11])([H:12])[O:6]1)([H:8])[H:9])[H:7]>>[O+:1](=[C-:2][H:7])[C:3]([C@@:4]1([H:10])[C:5]([H:11])([H:12])[O:6]1)([H:8])[H:9]"
O        1.47568223       0.75081019       0.70634454
C        2.25243209      -0.12742823       0.28787461
C        0.61179243      -0.34557089      -0.45434324
C       -0.67432143      -0.44694220       0.31711595
C       -1.73264189       0.54437866       0.17032646
O       -1.83179778      -0.72860920      -0.44822476
H        3.17415594       0.34610438      -0.11938696
H        0.88532138      -1.33681487      -0.83040622
H        0.44514391       0.23192914      -1.36991632
H       -0.59956802      -0.98932701       1.25636298
H       -2.41900600       0.72056386       0.99233908
H       -1.58719288       1.38090618      -0.50808612
12
Frame=15 idx=001130 GeodesicLength=0.7554915527788556 rxn_smarts="[O:1]=[C:2]([C:3]([C@@:4]1([H:10])[C:5]([H:11])([H:12])[O:6]1)([H:8])[H:9])[H:7]>>[O+:1](=[C-:2][H:7])[C:3]([C@@:4]1([H:10])[C:5]([H:11])([H:12])[O:6]1)([H:8])[H:9]"
O        1.48759742       0.80219302       0.65228140
C        2.23485066      -0.13206990       0.31711067
C        0.60866244      -0.32469113      -0.47367726
C       -0.66711529      -0.44133774       0.31261960
C       -1.74039120       0.53564985       0.17618278
O       -1.83168298      -0.74160182      -0.43469680
H        3.20069524       0.27163853      -0.05891455
H        0.88825715      -1.31429583      -0.85182219
H        0.42649469       0.24345498      -1.39167270
H       -0.57432715      -0.97683583       1.25440030
H       -2.41775447       0.70746062       1.00658557
H       -1.61528652       1.37043524      -0.50839680
12
Frame=16 idx=001130 GeodesicLength=0.8005005636587779 rxn_smarts="[O:1]=[C:2]([C:3]([C@@:4]1([H:10])[C:5]([H:11])([H:12])[O:6]1)([H:8])[H:9])[H:7]>>[O+:1](=[C-:2][H:7])[C:3]([C@@:4]1([H:10])[C:5]([H:11])([H:12])[O:6]1)([H:8])[H:9]"
O        1.50232404       0.84832232       0.59675022
C        2.21579731      -0.13391368       0.34447871
C        0.60546033      -0.30505593      -0.49362372
C       -0.65953051      -0.43605452       0.30768602
C       -1.74636531       0.52769835       0.18249547
O       -1.83113320      -0.75329191      -0.42137168
H        3.21902784       0.20219946       0.00498409
H        0.89207568      -1.29333536      -0.87203378
H        0.40721866       0.25251777      -1.41433732
H       -0.54945925      -0.96520163       1.25138739
H       -2.41439296       0.69551028       1.02123906
H       -1.64102262       1.36060486      -0.50765446
