17
Frame=0 idx=007744 GeodesicLength=0.0 rxn_smarts="[C:1]([C:2]1=[C:3]([H:11])[C:4]([H:12])([H:13])[C:5]([H:14])([H:15])[C@:6]1([O:7][H:17])[H:16])([H:8])([H:9])[H:10]>>[C:1](=[C:2]1[C:3]([H:11])=[C:4]([H:12])[C:5]([H:14])([H:15])[C@:6]1([O:7][H:17])[H:16])([H:8])[H:10].[H:9][H:13]"
C        1.88985420      -0.24665114      -0.03168848
C        0.74272842       0.29154505       0.54312932
C       -0.06030110      -0.65189489       1.19608285
C       -1.01564621      -0.98330014       0.23522514
C       -1.33593792       0.24073435      -0.60779312
C       -0.14948686       1.18454443      -0.30240156
O       -0.53461323       2.36936898       0.36502380
H        2.46071693       0.31400825      -0.76503236
H        1.01928016      -1.18013323      -0.83028249
H        2.45667572      -0.99814556       0.51333776
H        0.32803291      -1.37207432       1.90626160
H       -1.74402216      -1.77980306       0.34994906
H        0.06374774      -1.54753529      -0.67413778
H       -1.43566340       0.00900436      -1.66799250
H       -2.27047668       0.70381038      -0.28435346
H        0.35349010       1.51295391      -1.21190924
H       -0.76837864       2.13356790       1.26658141
17
Frame=1 idx=007744 GeodesicLength=0.08246664736167954 rxn_smarts="[C:1]([C:2]1=[C:3]([H:11])[C:4]([H:12])([H:13])[C:5]([H:14])([H:15])[C@:6]1([O:7][H:17])[H:16])([H:8])([H:9])[H:10]>>[C:1](=[C:2]1[C:3]([H:11])=[C:4]([H:12])[C:5]([H:14])([H:15])[C@:6]1([O:7][H:17])[H:16])([H:8])[H:10].[H:9][H:13]"
C        1.89609210      -0.24146906      -0.02885758
C        0.74007954       0.28612153       0.54254184
C       -0.06607729      -0.65854292       1.19115052
C       -1.01918320      -0.99315990       0.22581750
C       -1.34588181       0.24016827      -0.60196162
C       -0.15245806       1.17746611      -0.30568383
O       -0.51700664       2.37105186       0.35711331
H        2.47533541       0.34807515      -0.73268649
H        1.03332684      -1.19351399      -0.85069414
H        2.46851946      -0.98096255       0.52666424
H        0.32069790      -1.37713742       1.90391212
H       -1.75938014      -1.77589478       0.35905992
H        0.05852147      -1.56555174      -0.69211183
H       -1.45392592       0.01411113      -1.66272810
H       -2.27566665       0.70730916      -0.27088914
H        0.34211323       1.49772115      -1.22302077
H       -0.74510624       2.14420799       1.26237405
17
Frame=2 idx=007744 GeodesicLength=0.16487626335230277 rxn_smarts="[C:1]([C:2]1=[C:3]([H:11])[C:4]([H:12])([H:13])[C:5]([H:14])([H:15])[C@:6]1([O:7][H:17])[H:16])([H:8])([H:9])[H:10]>>[C:1](=[C:2]1[C:3]([H:11])=[C:4]([H:12])[C:5]([H:14])([H:15])[C@:6]1([O:7][H:17])[H:16])([H:8])[H:10].[H:9][H:13]"
C        1.90238194      -0.23603192      -0.02612365
C        0.73748083       0.28064395       0.54190811
C       -0.07178448      -0.66524564       1.18614395
C       -1.02279147      -1.00297304       0.21639784
C       -1.35580073       0.23961159      -0.59592640
C       -0.15542193       1.17033105      -0.30899885
O       -0.49918631       2.37254614       0.34875229
H        2.48886679       0.38221363      -0.69902827
H        1.04776498      -1.20697441      -0.87156474
H        2.48000180      -0.96341881       0.54000072
H        0.31348431      -1.38234704       1.90135458
H       -1.77423645      -1.77169549       0.36815392
H        0.05287120      -1.58382055      -0.71040442
H       -1.47228727       0.01927938      -1.65716341
H       -2.28068970       0.71083314      -0.25714502
H        0.33072306       1.48227448      -1.23402434
H       -0.72137656       2.15477354       1.25766769
17
Frame=3 idx=007744 GeodesicLength=0.24723567758781606 rxn_smarts="[C:1]([C:2]1=[C:3]([H:11])[C:4]([H:12])([H:13])[C:5]([H:14])([H:15])[C@:6]1([O:7][H:17])[H:16])([H:8])([H:9])[H:10]>>[C:1](=[C:2]1[C:3]([H:11])=[C:4]([H:12])[C:5]([H:14])([H:15])[C@:6]1([O:7][H:17])[H:16])([H:8])[H:10].[H:9][H:13]"
C        1.90873533      -0.23029769      -0.02345194
C        0.73493610       0.27513173       0.54124660
C       -0.07741704      -0.67198629       1.18108050
C       -1.02647224      -1.01271597       0.20698630
C       -1.36567596       0.23907354      -0.58968625
C       -0.15837510       1.16315555      -0.31232999
O       -0.48116990       2.37385386       0.33994555
H        2.50122430       0.41630146      -0.66414735
H        1.06262259      -1.22049618      -0.89289475
H        2.49110194      -0.94553301       0.55333447
H        0.30640045      -1.38769010       1.89860326
H       -1.78854708      -1.76725145       0.37718140
H        0.04676829      -1.60234568      -0.72899311
H       -1.49070838       0.02451209      -1.65129445
H       -2.28553248       0.71438858      -0.24314215
H        0.31932125       1.46664040      -1.24489442
H       -0.69721208       2.16525917       1.25245632
17
Frame=4 idx=007744 GeodesicLength=0.3295519683031999 rxn_smarts="[C:1]([C:2]1=[C:3]([H:11])[C:4]([H:12])([H:13])[C:5]([H:14])([H:15])[C@:6]1([O:7][H:17])[H:16])([H:8])([H:9])[H:10]>>[C:1](=[C:2]1[C:3]([H:11])=[C:4]([H:12])[C:5]([H:14])([H:15])[C@:6]1([O:7][H:17])[H:16])([H:8])[H:10].[H:9][H:13]"
C        1.91516552      -0.22422216      -0.02079763
C        0.73244862       0.26960497       0.54057761
C       -0.08296982      -0.67874843       1.17597797
C       -1.03022564      -1.02236609       0.19760210
C       -1.37548850       0.23856263      -0.58324129
C       -0.16131451       1.15595682      -0.31565892
O       -0.46298016       2.37497774       0.33070114
H        2.51232824       0.45021164      -0.62815748
H        1.07793214      -1.23405257      -0.91468695
H        2.50180220      -0.92732935       0.56665906
H        0.29945253      -1.39315352       1.89567424
H       -1.80227613      -1.76260803       0.38609660
H        0.04018395      -1.62113138      -0.74785575
H       -1.50914906       0.02981254      -1.64511964
H       -2.29018359       0.71798000      -0.22890206
H        0.30791356       1.45084546      -1.25560633
H       -0.67263934       2.17565975       1.24673730
17
Frame=5 idx=007744 GeodesicLength=0.4118506888648818 rxn_smarts="[C:1]([C:2]1=[C:3]([H:11])[C:4]([H:12])([H:13])[C:5]([H:14])([H:15])[C@:6]1([O:7][H:17])[H:16])([H:8])([H:9])[H:10]>>[C:1](=[C:2]1[C:3]([H:11])=[C:4]([H:12])[C:5]([H:14])([H:15])[C@:6]1([O:7][H:17])[H:16])([H:8])[H:10].[H:9][H:13]"
C        1.92168374      -0.21775845      -0.01811085
C        0.73002091       0.26408319       0.53992008
C       -0.08843663      -0.68551750       1.17085235
C       -1.03405277      -1.03190093       0.18826623
C       -1.38522141       0.23808779      -0.57659188
C       -0.16423751       1.14875113      -0.31896860
O       -0.44463824       2.37591902       0.32102615
H        2.52211991       0.48383131      -0.59118045
H        1.09373932      -1.24760995      -0.93694942
H        2.51208706      -0.90884218       0.57997555
H        0.29264769      -1.39872563       1.89258158
H       -1.81540077      -1.75780900       0.39486091
H        0.03307906      -1.64019061      -0.76696944
H       -1.52757159       0.03518289      -1.63863806
H       -2.29463260       0.72161399      -0.21444677
H        0.29650094       1.43491601      -1.26613594
H       -0.64768710       2.18596891       1.24050857
17
Frame=6 idx=007744 GeodesicLength=0.4941318205735452 rxn_smarts="[C:1]([C:2]1=[C:3]([H:11])[C:4]([H:12])([H:13])[C:5]([H:14])([H:15])[C@:6]1([O:7][H:17])[H:16])([H:8])([H:9])[H:10]>>[C:1](=[C:2]1[C:3]([H:11])=[C:4]([H:12])[C:5]([H:14])([H:15])[C@:6]1([O:7][H:17])[H:16])([H:8])[H:10].[H:9][H:13]"
C        1.92830013      -0.21086622      -0.01533727
C        0.72765458       0.25858598       0.53929691
C       -0.09381472      -0.69227891       1.16572127
C       -1.03795183      -1.04130114       0.17899476
C       -1.39485732       0.23765675      -0.56974057
C       -0.16714151       1.14155502      -0.32223944
O       -0.42617333       2.37668210       0.31093444
H        2.53055201       0.51705334      -0.55335618
H        1.11007962      -1.26113662      -0.95969383
H        2.52194849      -0.89010423       0.59328452
H        0.28598718      -1.40439387       1.88934452
H       -1.82790759      -1.75289529       0.40344210
H        0.02542270      -1.65953295      -0.78631130
H       -1.54593532       0.04062535      -1.63185225
H       -2.29887214       0.72529220      -0.19980047
H        0.28509310       1.41887588      -1.27645904
H       -0.62238406       2.19618261       1.23377183
17
Frame=7 idx=007744 GeodesicLength=0.5764136840386126 rxn_smarts="[C:1]([C:2]1=[C:3]([H:11])[C:4]([H:12])([H:13])[C:5]([H:14])([H:15])[C@:6]1([O:7][H:17])[H:16])([H:8])([H:9])[H:10]>>[C:1](=[C:2]1[C:3]([H:11])=[C:4]([H:12])[C:5]([H:14])([H:15])[C@:6]1([O:7][H:17])[H:16])([H:8])[H:10].[H:9][H:13]"
C        1.93502175      -0.20351078      -0.01242397
C        0.72535090       0.25312707       0.53872377
C       -0.09910117      -0.69902211       1.16059976
C       -1.04192530      -1.05054826       0.16980687
C       -1.40438359       0.23727631      -0.56268876
C       -0.17002322       1.13438029      -0.32545805
O       -0.40760532       2.37726469       0.30043230
H        2.53759840       0.54979920      -0.51480168
H        1.12700843      -1.27458007      -0.98294156
H        2.53138340      -0.87114685       0.60659338
H        0.27947255      -1.41015005       1.88597551
H       -1.83980018      -1.74790403       0.41182162
H        0.01716409      -1.67917846      -0.80586003
H       -1.56421017       0.04613883      -1.62476325
H       -2.30289505       0.72902110      -0.18498233
H        0.27369693       1.40274245      -1.28655909
H       -0.59675245       2.20629066       1.22652549
17
Frame=8 idx=007744 GeodesicLength=0.65871588863446 rxn_smarts="[C:1]([C:2]1=[C:3]([H:11])[C:4]([H:12])([H:13])[C:5]([H:14])([H:15])[C@:6]1([O:7][H:17])[H:16])([H:8])([H:9])[H:10]>>[C:1](=[C:2]1[C:3]([H:11])=[C:4]([H:12])[C:5]([H:14])([H:15])[C@:6]1([O:7][H:17])[H:16])([H:8])[H:10].[H:9][H:13]"
C        1.94185616      -0.19565556      -0.00931857
C        0.72310998       0.24772182       0.53821644
C       -0.10429318      -0.70573859       1.15550005
C       -1.04597472      -1.05962557       0.16071795
C       -1.41378812       0.23695278      -0.55544069
C       -0.17287925       1.12723897      -0.32861087
O       -0.38895959       2.37766669       0.28953255
H        2.54324959       0.58200417      -0.47564760
H        1.14458391      -1.28790558      -1.00671520
H        2.54039264      -0.85200272       0.61991952
H        0.27310460      -1.41598900       1.88248921
H       -1.85108934      -1.74286557       0.41999209
H        0.00824530      -1.69914725      -0.82559748
H       -1.58236584       0.05172390      -1.61737648
H       -2.30669673       0.73280504      -0.17001551
H        0.26232201       1.38653393      -1.29642173
H       -0.57081742       2.21628255       1.21877632
17
Frame=9 idx=007744 GeodesicLength=0.7412472447481951 rxn_smarts="[C:1]([C:2]1=[C:3]([H:11])[C:4]([H:12])([H:13])[C:5]([H:14])([H:15])[C@:6]1([O:7][H:17])[H:16])([H:8])([H:9])[H:10]>>[C:1](=[C:2]1[C:3]([H:11])=[C:4]([H:12])[C:5]([H:14])([H:15])[C@:6]1([O:7][H:17])[H:16])([H:8])[H:10].[H:9][H:13]"
C        1.94881588      -0.18727329      -0.00593282
C        0.72092574       0.24235433       0.53779104
C       -0.10938087      -0.71245143       1.15042622
C       -1.05013438      -1.06852233       0.15176877
C       -1.42305919       0.23668222      -0.54800805
C       -0.17570657       1.12012054      -0.33169122
O       -0.37027251       2.37787821       0.27825507
H        2.54762406       0.61369823      -0.43602333
H        1.16293701      -1.30093391      -1.03113508
H        2.54901551      -0.83270212       0.63328443
H        0.26690077      -1.42194427       1.87887099
H       -1.86188739      -1.73773047       0.42802355
H       -0.00150330      -1.71956908      -0.84547372
H       -1.60036528       0.05735949      -1.60970448
H       -2.31027200       0.73665672      -0.15494385
H        0.25100810       1.37022117      -1.30603064
H       -0.54464558       2.22615598       1.21052313
17
Frame=10 idx=007744 GeodesicLength=0.8238184108088318 rxn_smarts="[C:1]([C:2]1=[C:3]([H:11])[C:4]([H:12])([H:13])[C:5]([H:14])([H:15])[C@:6]1([O:7][H:17])[H:16])([H:8])([H:9])[H:10]>>[C:1](=[C:2]1[C:3]([H:11])=[C:4]([H:12])[C:5]([H:14])([H:15])[C@:6]1([O:7][H:17])[H:16])([H:8])[H:10].[H:9][H:13]"
C        1.95589263      -0.17834136      -0.00225935
C        0.71880574       0.23705069       0.53744960
C       -0.11436621      -0.71913334       1.14538998
C       -1.05438551      -1.07722719       0.14295307
C       -1.43219336       0.23647483      -0.54038533
C       -0.17850100       1.11304293      -0.33469194
O       -0.35153710       2.37790225       0.26658679
H        2.55064584       0.64481058      -0.39595215
H        1.18205097      -1.31372623      -1.05617507
H        2.55723093      -0.81326476       0.64670226
H        0.26085225      -1.42798471       1.87514613
H       -1.87213024      -1.73258190       0.43586012
H       -0.01206960      -1.74039578      -0.86549873
H       -1.61820513       0.06305734      -1.60174236
H       -2.31361982       0.74057491      -0.13975647
H        0.23972688       1.35384226      -1.31538725
H       -0.51819726       2.23589948       1.20176071
17
Frame=11 idx=007744 GeodesicLength=0.9064180996934813 rxn_smarts="[C:1]([C:2]1=[C:3]([H:11])[C:4]([H:12])([H:13])[C:5]([H:14])([H:15])[C@:6]1([O:7][H:17])[H:16])([H:8])([H:9])[H:10]>>[C:1](=[C:2]1[C:3]([H:11])=[C:4]([H:12])[C:5]([H:14])([H:15])[C@:6]1([O:7][H:17])[H:16])([H:8])[H:10].[H:9][H:13]"
C        1.96308377      -0.16884000       0.00175315
C        0.71675069       0.23181118       0.53719991
C       -0.11924561      -0.72578535       1.14039689
C       -1.05873575      -1.08573296       0.13428426
C       -1.44118460       0.23633259      -0.53257470
C       -0.18125915       1.10600560      -0.33760860
O       -0.33276844       2.37773430       0.25452662
H        2.55235196       0.67534932      -0.35549252
H        1.20196125      -1.32622870      -1.08189624
H        2.56505354      -0.79370559       0.66020031
H        0.25496365      -1.43411552       1.87131671
H       -1.88185364      -1.72743268       0.44351265
H       -0.02352336      -1.76167178      -0.88565596
H       -1.63587098       0.06881408      -1.59349327
H       -2.31673674       0.74456521      -0.12446310
H        0.22848422       1.33739227      -1.32448510
H       -0.49147083       2.24550804       1.19247899
17
Frame=12 idx=007744 GeodesicLength=0.9890441046278063 rxn_smarts="[C:1]([C:2]1=[C:3]([H:11])[C:4]([H:12])([H:13])[C:5]([H:14])([H:15])[C@:6]1([O:7][H:17])[H:16])([H:8])([H:9])[H:10]>>[C:1](=[C:2]1[C:3]([H:11])=[C:4]([H:12])[C:5]([H:14])([H:15])[C@:6]1([O:7][H:17])[H:16])([H:8])[H:10].[H:9][H:13]"
C        1.97038903      -0.15875562       0.00614029
C        0.71476205       0.22663506       0.53704681
C       -0.12401526      -0.73240965       1.13545127
C       -1.06319343      -1.09403384       0.12577428
C       -1.45002713       0.23625670      -0.52457969
C       -0.18397645       1.09900781      -0.34043874
O       -0.31397655       2.37736862       0.24207465
H        2.55278057       0.70532655      -0.31468737
H        1.22272361      -1.33838471      -1.10836421
H        2.57249952      -0.77403395       0.67380856
H        0.24923968      -1.44034313       1.86738331
H       -1.89109247      -1.72228593       0.45100363
H       -0.03595750      -1.78344863      -0.90592627
H       -1.65334785       0.07462505      -1.58496214
H       -2.31961962       0.74863265      -0.10907691
H        0.21728598       1.32086903      -1.33332111
H       -0.46447417       2.25497398       1.18267366
17
Frame=13 idx=007744 GeodesicLength=1.0717100157098822 rxn_smarts="[C:1]([C:2]1=[C:3]([H:11])[C:4]([H:12])([H:13])[C:5]([H:14])([H:15])[C@:6]1([O:7][H:17])[H:16])([H:8])([H:9])[H:10]>>[C:1](=[C:2]1[C:3]([H:11])=[C:4]([H:12])[C:5]([H:14])([H:15])[C@:6]1([O:7][H:17])[H:16])([H:8])[H:10].[H:9][H:13]"
C        1.97780715      -0.14806869       0.01094398
C        0.71284147       0.22151929       0.53699152
C       -0.12866863      -0.73901313       1.13055320
C       -1.06776985      -1.10212579       0.11743829
C       -1.45871596       0.23624834      -0.51640407
C       -0.18664637       1.09204443      -0.34318366
O       -0.29517158       2.37679472       0.22922669
H        2.55197236       0.73477082      -0.27355606
H        1.24440634      -1.35012795      -1.13565714
H        2.57958684      -0.75425183       0.68756017
H        0.24369093      -1.44668015       1.86333957
H       -1.89989014      -1.71713720       0.45836540
H       -0.04949008      -1.80578801      -0.92629151
H       -1.67062577       0.08048452      -1.57615402
H       -2.32226383       0.75278491      -0.09360933
H        0.20614232       1.30426195      -1.34189735
H       -0.43720519       2.26428375       1.17233432
17
Frame=14 idx=007744 GeodesicLength=1.1544051106150501 rxn_smarts="[C:1]([C:2]1=[C:3]([H:11])[C:4]([H:12])([H:13])[C:5]([H:14])([H:15])[C@:6]1([O:7][H:17])[H:16])([H:8])([H:9])[H:10]>>[C:1](=[C:2]1[C:3]([H:11])=[C:4]([H:12])[C:5]([H:14])([H:15])[C@:6]1([O:7][H:17])[H:16])([H:8])[H:10].[H:9][H:13]"
C        1.98533887      -0.13676394       0.01620020
C        0.71099240       0.21645673       0.53702973
C       -0.13319911      -0.74560264       1.12570131
C       -1.07247582      -1.11000624       0.10928927
C       -1.46724727       0.23630685      -0.50805233
C       -0.18926351       1.08511042      -0.34584746
O       -0.27636158       2.37600326       0.21597722
H        2.54996230       0.76371324      -0.23210113
H        1.26707017      -1.36138958      -1.16385818
H        2.58633374      -0.73435601       0.70149467
H        0.23832763      -1.45313877       1.85917860
H       -1.90828857      -1.71198062       0.46563488
H       -0.06423594      -1.82875088      -0.94673468
H       -1.68769662       0.08638572      -1.56707464
H       -2.32466560       0.75702768      -0.07807051
H        0.19506334       1.28755930      -1.35021820
H       -0.40965442       2.27342548       1.16145126
17
Frame=15 idx=007744 GeodesicLength=1.237127592811481 rxn_smarts="[C:1]([C:2]1=[C:3]([H:11])[C:4]([H:12])([H:13])[C:5]([H:14])([H:15])[C@:6]1([O:7][H:17])[H:16])([H:8])([H:9])[H:10]>>[C:1](=[C:2]1[C:3]([H:11])=[C:4]([H:12])[C:5]([H:14])([H:15])[C@:6]1([O:7][H:17])[H:16])([H:8])[H:10].[H:9][H:13]"
C        1.99298402      -0.12482262       0.02194658
C        0.70921871       0.21144009       0.53715609
C       -0.13759836      -0.75218716       1.12089223
C       -1.07732362      -1.11767500       0.10134210
C       -1.47561706       0.23643184      -0.49952817
C       -0.19182049       1.07819719      -0.34843711
O       -0.25755287       2.37498185       0.20231413
H        2.54678086       0.79218864      -0.19030029
H        1.29078985      -1.37208920      -1.19306066
H        2.59275699      -0.71433987       0.71564826
H        0.23316471      -1.45973411       1.85488930
H       -1.91632929      -1.70680348       0.47285352
H       -0.08033014      -1.85240706      -0.96723713
H       -1.70455533       0.09232147      -1.55772857
H       -2.32681855       0.76136872      -0.06246850
H        0.18405978       1.27074370      -1.35829109
H       -0.38180922       2.28238502       1.15000932
17
Frame=16 idx=007744 GeodesicLength=1.3198753409176 rxn_smarts="[C:1]([C:2]1=[C:3]([H:11])[C:4]([H:12])([H:13])[C:5]([H:14])([H:15])[C@:6]1([O:7][H:17])[H:16])([H:8])([H:9])[H:10]>>[C:1](=[C:2]1[C:3]([H:11])=[C:4]([H:12])[C:5]([H:14])([H:15])[C@:6]1([O:7][H:17])[H:16])([H:8])[H:10].[H:9][H:13]"
C        2.00074448      -0.11222162       0.02822466
C        0.70752499       0.20646176       0.53736512
C       -0.14185673      -0.75877642       1.11612163
C       -1.08232464      -1.12513248       0.09361075
C       -1.48381950       0.23662209      -0.49083692
C       -0.19430935       1.07129654      -0.35095941
O       -0.23875455       2.37371898       0.18822844
H        2.54245381       0.82022191      -0.14813747
H        1.31564281      -1.38214376      -1.22336775
H        2.59887265      -0.69418984       0.73006664
H        0.22821871      -1.46648198       1.85045879
H       -1.92405012      -1.70158861       0.48006556
H       -0.09792089      -1.87683146      -0.98777705
H       -1.72119279       0.09828415      -1.54812271
H       -2.32871592       0.76581405      -0.04681436
H        0.17314597       1.25379803      -1.36612191
H       -0.35365892       2.29114865       1.13799600
