15
Frame=0 idx=006722 GeodesicLength=0.0 rxn_smarts="[O:1]([C:2]([C@@:3]1([H:11])[O:4][C@@:5]2([H:12])[C:6]([H:13])([H:14])[C@@:7]12[H:15])([H:9])[H:10])[H:8]>>[C:2](=[C:3]1[O:4][C@@:5]2([H:12])[C:6]([H:13])([H:14])[C@@:7]12[H:15])([H:9])[H:10].[O:1]([H:8])[H:11]"
O        2.50522402      -0.26761119       1.15907487
C        1.54009567       0.29379254      -0.31943145
C        0.28989783       0.00805463       0.26311003
O       -0.58216459       1.07269317       0.69110754
C       -1.70365975       0.26878171       0.34357154
C       -1.74402437      -0.02299394      -1.11511327
C       -0.85607976      -0.84348451      -0.20263681
H        2.83844321       0.46753102       1.68999841
H        1.89363029       1.31617250      -0.39656335
H        1.98436055      -0.41630739      -1.00425407
H        1.29021847      -0.38420735       1.24038193
H       -2.55431809       0.26875707       1.01119570
H       -1.31100750       0.68307492      -1.81472786
H       -2.63674153      -0.53167256      -1.45896664
H       -0.95387451      -1.91258067      -0.08674652
15
Frame=1 idx=006722 GeodesicLength=0.07195155028838453 rxn_smarts="[O:1]([C:2]([C@@:3]1([H:11])[O:4][C@@:5]2([H:12])[C:6]([H:13])([H:14])[C@@:7]12[H:15])([H:9])[H:10])[H:8]>>[C:2](=[C:3]1[O:4][C@@:5]2([H:12])[C:6]([H:13])([H:14])[C@@:7]12[H:15])([H:9])[H:10].[O:1]([H:8])[H:11]"
O        2.51034061      -0.22813717       1.18895649
C        1.55053650       0.27024718      -0.33346470
C        0.30071921      -0.01606620       0.24964314
O       -0.55493560       1.05209876       0.69919991
C       -1.68848140       0.26302787       0.35415280
C       -1.74656420      -0.00442899      -1.10820743
C       -0.85703395      -0.84825352      -0.21889217
H        2.76282133       0.54338303       1.71274895
H        1.88382443       1.29614037      -0.44691067
H        2.00029312      -0.45234419      -1.00178407
H        1.29290458      -0.42715850       1.24328398
H       -2.53002583       0.26097655       1.03316981
H       -1.31413956       0.70862750      -1.80105554
H       -2.64725749      -0.49984125      -1.45066390
H       -0.96300176      -1.91827144      -0.12017659
15
Frame=2 idx=006722 GeodesicLength=0.14391800682534026 rxn_smarts="[O:1]([C:2]([C@@:3]1([H:11])[O:4][C@@:5]2([H:12])[C:6]([H:13])([H:14])[C@@:7]12[H:15])([H:9])[H:10])[H:8]>>[C:2](=[C:3]1[O:4][C@@:5]2([H:12])[C:6]([H:13])([H:14])[C@@:7]12[H:15])([H:9])[H:10].[O:1]([H:8])[H:11]"
O        2.51158630      -0.19047327       1.21752589
C        1.56073291       0.24922379      -0.34681824
C        0.31135233      -0.03827588       0.23685136
O       -0.52878960       1.03305276       0.70565812
C       -1.67339237       0.25753145       0.36403020
C       -1.74805450       0.01262680      -1.10106935
C       -0.85719810      -0.85230635      -0.23371897
H        2.68685418       0.60952792       1.72987662
H        1.87486479       1.27699267      -0.49346081
H        2.01506594      -0.48429586      -1.00025197
H        1.29596638      -0.46564476       1.24765884
H       -2.50599896       0.25347697       1.05384369
H       -1.31624041       0.73188531      -1.78775190
H       -2.65607569      -0.47051021      -1.44165465
H       -0.97067319      -1.92281135      -0.15071885
15
Frame=3 idx=006722 GeodesicLength=0.21603357122959582 rxn_smarts="[O:1]([C:2]([C@@:3]1([H:11])[O:4][C@@:5]2([H:12])[C:6]([H:13])([H:14])[C@@:7]12[H:15])([H:9])[H:10])[H:8]>>[C:2](=[C:3]1[O:4][C@@:5]2([H:12])[C:6]([H:13])([H:14])[C@@:7]12[H:15])([H:9])[H:10].[O:1]([H:8])[H:11]"
O        2.50980611      -0.15465585       1.24490445
C        1.57077220       0.23041683      -0.35948913
C        0.32174859      -0.05876954       0.22469928
O       -0.50375448       1.01551173       0.71070865
C       -1.65857368       0.25230183       0.37327143
C       -1.74869846       0.02830619      -1.09382614
C       -0.85677148      -0.85579162      -0.24730407
H        2.61168109       0.66713000       1.74227843
H        1.86670220       1.25884037      -0.53663049
H        2.02871779      -0.51266050      -0.99981547
H        1.29900885      -0.50007667       1.25365130
H       -2.48248586       0.24629473       1.07336658
H       -1.31744078       0.75312141      -1.77488735
H       -2.66350833      -0.44348284      -1.43216171
H       -0.97720376      -1.92648606      -0.17876577
15
Frame=4 idx=006722 GeodesicLength=0.2883892646216328 rxn_smarts="[O:1]([C:2]([C@@:3]1([H:11])[O:4][C@@:5]2([H:12])[C:6]([H:13])([H:14])[C@@:7]12[H:15])([H:9])[H:10])[H:8]>>[C:2](=[C:3]1[O:4][C@@:5]2([H:12])[C:6]([H:13])([H:14])[C@@:7]12[H:15])([H:9])[H:10].[O:1]([H:8])[H:11]"
O        2.50559480      -0.12077008       1.27137618
C        1.58051361       0.21354883      -0.37140617
C        0.33183851      -0.07774903       0.21324699
O       -0.47982041       0.99934903       0.71459702
C       -1.64405897       0.24732132       0.38189644
C       -1.74862965       0.04277181      -1.08665415
C       -0.85587070      -0.85882022      -0.25978522
H        2.53853942       0.71738672       1.75035013
H        1.85904307       1.24169495      -0.57664599
H        2.04101464      -0.53780775      -1.00053062
H        1.30169369      -0.53093144       1.26150453
H       -2.45949412       0.23940844       1.09176225
H       -1.31790650       0.77262422      -1.76258691
H       -2.66969628      -0.41853094      -1.42252442
H       -0.98276111      -1.92949586      -0.20460006
15
Frame=5 idx=006722 GeodesicLength=0.36104009425208117 rxn_smarts="[O:1]([C:2]([C@@:3]1([H:11])[O:4][C@@:5]2([H:12])[C:6]([H:13])([H:14])[C@@:7]12[H:15])([H:9])[H:10])[H:8]>>[C:2](=[C:3]1[O:4][C@@:5]2([H:12])[C:6]([H:13])([H:14])[C@@:7]12[H:15])([H:9])[H:10].[O:1]([H:8])[H:11]"
O        2.49948658      -0.08865589       1.29715788
C        1.58987045       0.19832227      -0.38259046
C        0.34162503      -0.09537290       0.20243678
O       -0.45689566       0.98444282       0.71743721
C       -1.62978433       0.24255023       0.38994267
C       -1.74803853       0.05621771      -1.07965192
C       -0.85453399      -0.86142924      -0.27136459
H        2.46800255       0.76127962       1.75497540
H        1.85154071       1.22541427      -0.61409939
H        2.05186099      -0.56027990      -1.00224916
H        1.30382722      -0.55859491       1.27130535
H       -2.43680314       0.23271943       1.10916359
H       -1.31797093       0.79069860      -1.75089696
H       -2.67485327      -0.39538141      -1.41291402
H       -0.98733369      -1.93193069      -0.22865238
15
Frame=6 idx=006722 GeodesicLength=0.4335880691557154 rxn_smarts="[O:1]([C:2]([C@@:3]1([H:11])[O:4][C@@:5]2([H:12])[C:6]([H:13])([H:14])[C@@:7]12[H:15])([H:9])[H:10])[H:8]>>[C:2](=[C:3]1[O:4][C@@:5]2([H:12])[C:6]([H:13])([H:14])[C@@:7]12[H:15])([H:9])[H:10].[O:1]([H:8])[H:11]"
O        2.49162866      -0.05783598       1.32207564
C        1.59909267       0.18446517      -0.39317912
C        0.35113459      -0.11189597       0.19220256
O       -0.43496003       0.97043177       0.71941820
C       -1.61588209       0.23791058       0.39752362
C       -1.74671566       0.06876247      -1.07255334
C       -0.85286188      -0.86361767      -0.28209036
H        2.39937773       0.79985665       1.75636948
H        1.84440643       1.20976138      -0.64938223
H        2.06166091      -0.58038211      -1.00501933
H        1.30518596      -0.58371871       1.28248283
H       -2.41479858       0.22614343       1.12564147
H       -1.31709337       0.80745117      -1.73933311
H       -2.67888107      -0.37365713      -1.40302532
H       -0.99129429      -1.93367506      -0.25113100
15
Frame=7 idx=006722 GeodesicLength=0.5064505065616951 rxn_smarts="[O:1]([C:2]([C@@:3]1([H:11])[O:4][C@@:5]2([H:12])[C:6]([H:13])([H:14])[C@@:7]12[H:15])([H:9])[H:10])[H:8]>>[C:2](=[C:3]1[O:4][C@@:5]2([H:12])[C:6]([H:13])([H:14])[C@@:7]12[H:15])([H:9])[H:10].[O:1]([H:8])[H:11]"
O        2.48259511      -0.02840873       1.34642639
C        1.60801243       0.17192484      -0.40321805
C        0.36041841      -0.12734377       0.18253992
O       -0.41387035       0.95749036       0.72063756
C       -1.60223722       0.23351067       0.40462189
C       -1.74499347       0.08047511      -1.06567453
C       -0.85086411      -0.86551552      -0.29207084
H        2.33335709       0.83349896       1.75560483
H        1.83725060       1.19490911      -0.68278783
H        2.07011709      -0.59837071      -1.00893947
H        1.30589930      -0.60662731       1.29528936
H       -2.39313096       0.21982966       1.14129921
H       -1.31587925       0.82304772      -1.72836116
H       -2.68214322      -0.35337041      -1.39326851
H       -0.99453144      -1.93504998      -0.27209877
15
Frame=8 idx=006722 GeodesicLength=0.5794633511644279 rxn_smarts="[O:1]([C:2]([C@@:3]1([H:11])[O:4][C@@:5]2([H:12])[C:6]([H:13])([H:14])[C@@:7]12[H:15])([H:9])[H:10])[H:8]>>[C:2](=[C:3]1[O:4][C@@:5]2([H:12])[C:6]([H:13])([H:14])[C@@:7]12[H:15])([H:9])[H:10].[O:1]([H:8])[H:11]"
O        2.47256478      -0.00020640       1.37027007
C        1.61671712       0.16052493      -0.41274090
C        0.36949105      -0.14184256       0.17341431
O       -0.39361387       0.94546674       0.72119665
C       -1.58891260       0.22929198       0.41128642
C       -1.74290471       0.09145568      -1.05894860
C       -0.84859554      -0.86713926      -0.30141045
H        2.27001966       0.86292606       1.75286741
H        1.83011023       1.18070542      -0.71455460
H        2.07740561      -0.61451488      -1.01391501
H        1.30580915      -0.62758620       1.30959467
H       -2.37192222       0.21368904       1.15618470
H       -1.31429223       0.83763443      -1.71780043
H       -2.68471868      -0.33434468      -1.38360460
H       -0.99715775      -1.93606028      -0.29183964
15
Frame=9 idx=006722 GeodesicLength=0.6526823321856379 rxn_smarts="[O:1]([C:2]([C@@:3]1([H:11])[O:4][C@@:5]2([H:12])[C:6]([H:13])([H:14])[C@@:7]12[H:15])([H:9])[H:10])[H:8]>>[C:2](=[C:3]1[O:4][C@@:5]2([H:12])[C:6]([H:13])([H:14])[C@@:7]12[H:15])([H:9])[H:10].[O:1]([H:8])[H:11]"
O        2.46169492       0.02685398       1.39368709
C        1.62523070       0.15016081      -0.42184571
C        0.37837328      -0.15548645       0.16480212
O       -0.37414584       0.93431955       0.72121251
C       -1.57590831       0.22525331       0.41758939
C       -1.74047088       0.10178337      -1.05239611
C       -0.84607795      -0.86855070      -0.31017223
H        2.20937653       0.88866164       1.74853095
H        1.82293222       1.16713000      -0.74496804
H        2.08358404      -0.62902697      -1.02000239
H        1.30480556      -0.64686868       1.32536517
H       -2.35117981       0.20770931       1.17043407
H       -1.31233528       0.85135434      -1.70766956
H       -2.68665518      -0.31646809      -1.37407553
H       -0.99922401      -1.93682542      -0.31049172
15
Frame=10 idx=006722 GeodesicLength=0.7258443624541903 rxn_smarts="[O:1]([C:2]([C@@:3]1([H:11])[O:4][C@@:5]2([H:12])[C:6]([H:13])([H:14])[C@@:7]12[H:15])([H:9])[H:10])[H:8]>>[C:2](=[C:3]1[O:4][C@@:5]2([H:12])[C:6]([H:13])([H:14])[C@@:7]12[H:15])([H:9])[H:10].[O:1]([H:8])[H:11]"
O        2.45009758       0.05285990       1.41676175
C        1.63353315       0.14069321      -0.43046712
C        0.38708091      -0.16835357       0.15668664
O       -0.35540323       0.92384737       0.72069498
C       -1.56319892       0.22131266       0.42348204
C       -1.73775954       0.11151891      -1.04596321
C       -0.84333744      -0.86969135      -0.31844519
H        2.15162255       0.91124424       1.74253785
H        1.81566406       1.15395914      -0.77402854
H        2.08865983      -0.64202073      -1.02696128
H        1.30279843      -0.66459271       1.34250425
H       -2.33083732       0.20175917       1.18392348
H       -1.31010605       0.86425456      -1.69777360
H       -2.68804384      -0.29960299      -1.36466502
H       -1.00077016      -1.93718780      -0.32828705
15
Frame=11 idx=006722 GeodesicLength=0.7991540667836441 rxn_smarts="[O:1]([C:2]([C@@:3]1([H:11])[O:4][C@@:5]2([H:12])[C:6]([H:13])([H:14])[C@@:7]12[H:15])([H:9])[H:10])[H:8]>>[C:2](=[C:3]1[O:4][C@@:5]2([H:12])[C:6]([H:13])([H:14])[C@@:7]12[H:15])([H:9])[H:10].[O:1]([H:8])[H:11]"
O        2.43791846       0.07781459       1.43950298
C        1.64163176       0.13212048      -0.43879955
C        0.39564575      -0.18049584       0.14903837
O       -0.33733809       0.91412292       0.71976539
C       -1.55076493       0.21754797       0.42905859
C       -1.73475037       0.12069006      -1.03972148
C       -0.84036727      -0.87066678      -0.32621549
H        2.09655839       0.93087180       1.73548487
H        1.80822967       1.14134730      -0.80202697
H        2.09264997      -0.65359649      -1.03505420
H        1.29973586      -0.68104053       1.36098450
H       -2.31090135       0.19598603       1.19684891
H       -1.30755913       0.87640101      -1.68830085
H       -2.68887470      -0.28373522      -1.35543864
H       -1.00181402      -1.93736727      -0.34512643
15
Frame=12 idx=006722 GeodesicLength=0.8725307032625 rxn_smarts="[O:1]([C:2]([C@@:3]1([H:11])[O:4][C@@:5]2([H:12])[C:6]([H:13])([H:14])[C@@:7]12[H:15])([H:9])[H:10])[H:8]>>[C:2](=[C:3]1[O:4][C@@:5]2([H:12])[C:6]([H:13])([H:14])[C@@:7]12[H:15])([H:9])[H:10].[O:1]([H:8])[H:11]"
O        2.42524173       0.10179549       1.46196985
C        1.64953501       0.12435193      -0.44686785
C        0.40409457      -0.19198029       0.14183231
O       -0.31989084       0.90504559       0.71845476
C       -1.53858387       0.21392237       0.43432520
C       -1.73148109       0.12934632      -1.03364589
C       -0.83718007      -0.87147337      -0.33354267
H        2.04417467       0.94791798       1.72746028
H        1.80060426       1.12918669      -0.82905493
H        2.09560028      -0.66386711      -1.04417738
H        1.29555162      -0.69632932       1.38074477
H       -2.29132782       0.19033313       1.20921172
H       -1.30474291       0.88785733      -1.67916636
H       -2.68921052      -0.26877106      -1.34638560
H       -1.00238502      -1.93733569      -0.36115821
15
Frame=13 idx=006722 GeodesicLength=0.9459743583709997 rxn_smarts="[O:1]([C:2]([C@@:3]1([H:11])[O:4][C@@:5]2([H:12])[C:6]([H:13])([H:14])[C@@:7]12[H:15])([H:9])[H:10])[H:8]>>[C:2](=[C:3]1[O:4][C@@:5]2([H:12])[C:6]([H:13])([H:14])[C@@:7]12[H:15])([H:9])[H:10].[O:1]([H:8])[H:11]"
O        2.41215230       0.12484161       1.48419246
C        1.65725256       0.11733859      -0.45474571
C        0.41245579      -0.20286095       0.13504387
O       -0.30301034       0.89657236       0.71681059
C       -1.52663653       0.21043631       0.43930850
C       -1.72796512       0.13752127      -1.02773751
C       -0.83377921      -0.87213728      -0.34045340
H        1.99439412       0.96263675       1.71866072
H        1.79275244       1.11745852      -0.85523782
H        2.09755145      -0.67291259      -1.05433384
H        1.29018115      -0.71058880       1.40174346
H       -2.27209501       0.18480888       1.22106003
H       -1.30166773       0.89867172      -1.67036747
H       -2.68908356      -0.25465291      -1.33751114
H       -1.00250232      -1.93713349      -0.37643273
15
Frame=14 idx=006722 GeodesicLength=1.0194376251990866 rxn_smarts="[O:1]([C:2]([C@@:3]1([H:11])[O:4][C@@:5]2([H:12])[C:6]([H:13])([H:14])[C@@:7]12[H:15])([H:9])[H:10])[H:8]>>[C:2](=[C:3]1[O:4][C@@:5]2([H:12])[C:6]([H:13])([H:14])[C@@:7]12[H:15])([H:9])[H:10].[O:1]([H:8])[H:11]"
O        2.39869338       0.14697788       1.50622853
C        1.66477012       0.11102377      -0.46247280
C        0.42075048      -0.21318531       0.12865097
O       -0.28663840       0.88863101       0.71486548
C       -1.51488764       0.20706786       0.44401729
C       -1.72422343       0.14524562      -1.02198707
C       -0.83016850      -0.87266086      -0.34698780
H        1.94721783       0.97530625       1.70913869
H        1.78464503       1.10610734      -0.88062754
H        2.09851898      -0.68079564      -1.06545915
H        1.28354071      -0.72390606       1.42394732
H       -2.25314131       0.17937836       1.23240635
H       -1.29836981       0.90888246      -1.66186413
H       -2.68852699      -0.24132420      -1.32881727
H       -1.00218046      -1.93674848      -0.39103886
15
Frame=15 idx=006722 GeodesicLength=1.092961328073541 rxn_smarts="[O:1]([C:2]([C@@:3]1([H:11])[O:4][C@@:5]2([H:12])[C:6]([H:13])([H:14])[C@@:7]12[H:15])([H:9])[H:10])[H:8]>>[C:2](=[C:3]1[O:4][C@@:5]2([H:12])[C:6]([H:13])([H:14])[C@@:7]12[H:15])([H:9])[H:10].[O:1]([H:8])[H:11]"
O        2.38492538       0.16823601       1.52811129
C        1.67213571       0.10536766      -0.47014021
C        0.42901046      -0.22301033       0.12262976
O       -0.27074668       0.88120915       0.71267131
C       -1.50335262       0.20382020       0.44849703
C       -1.72027215       0.15255706      -1.01638967
C       -0.82635580      -0.87309289      -0.35316908
H        1.90256225       0.98616428       1.69902076
H        1.77631242       1.09515153      -0.90534986
H        2.09860840      -0.68760670      -1.07757121
H        1.27554591      -0.73639538       1.44733990
H       -2.23450562       0.17404262       1.24333625
H       -1.29484183       0.91856867      -1.65365660
H       -2.68758346      -0.22873774      -1.32029809
H       -1.00144238      -1.93627413      -0.40503157
15
Frame=16 idx=006722 GeodesicLength=1.1664814689410705 rxn_smarts="[O:1]([C:2]([C@@:3]1([H:11])[O:4][C@@:5]2([H:12])[C:6]([H:13])([H:14])[C@@:7]12[H:15])([H:9])[H:10])[H:8]>>[C:2](=[C:3]1[O:4][C@@:5]2([H:12])[C:6]([H:13])([H:14])[C@@:7]12[H:15])([H:9])[H:10].[O:1]([H:8])[H:11]"
O        2.37092365       0.18862684       1.54979974
C        1.67924654       0.10036759      -0.47780213
C        0.43725567      -0.23235229       0.11696013
O       -0.25523397       0.87422260       0.71023133
C       -1.49192031       0.20070607       0.45271816
C       -1.71607977       0.15943548      -1.01095740
C       -0.82232043      -0.87340351      -0.35898244
H        1.86027395       0.99518908       1.68853721
H        1.76758236       1.08456761      -0.92941095
H        2.09769084      -0.69329075      -1.09065147
H        1.26618473      -0.74808635       1.47184134
H       -2.21602476       0.16888426       1.25378519
H       -1.29108294       0.92762842      -1.64576410
H       -2.68620817      -0.21687720      -1.31196885
H       -1.00028740      -1.93561786      -0.41833577
