11
Frame=0 idx=004391 GeodesicLength=0.0 rxn_smarts="[O:1]=[C:2]1[N:3]([H:7])[C:4]([H:8])([H:9])[C:5]([H:10])=[C:6]1[H:11]>>[H:9][H:10].[O:1]=[C:2]1[N:3]([H:7])[C:4]([H:8])=[C:5]=[C:6]1[H:11]"
O        2.41251531      -1.06578074      -0.06837710
C        1.34874928      -0.51666087      -0.03292355
N        0.10200988      -1.27418171       0.17671542
C       -0.89907225      -0.42908671       0.23762034
C       -0.38940022       0.90464693       0.37050980
C        0.92798391       0.87745875       0.04024614
H        0.06585674      -2.28059754       0.17844109
H       -1.93830328      -0.72498630       0.17805330
H       -1.84175372       1.23504907      -0.93666589
H       -1.44034239       1.60121481      -0.25574144
H        1.65175676       1.67292430       0.11212191
11
Frame=1 idx=004391 GeodesicLength=0.06869809226203274 rxn_smarts="[O:1]=[C:2]1[N:3]([H:7])[C:4]([H:8])([H:9])[C:5]([H:10])=[C:6]1[H:11]>>[H:9][H:10].[O:1]=[C:2]1[N:3]([H:7])[C:4]([H:8])=[C:5]=[C:6]1[H:11]"
O        2.41412763      -1.06944890      -0.06095959
C        1.35126077      -0.51864109      -0.02380010
N        0.10029517      -1.26943007       0.15683780
C       -0.90054928      -0.41816269       0.21654218
C       -0.38400308       0.91371579       0.36456312
C        0.93651969       0.87915560       0.05427638
H        0.05942161      -2.27551484       0.15063427
H       -1.94019381      -0.71846596       0.22977878
H       -1.85900616       1.19513680      -0.93909213
H       -1.44103649       1.60959753      -0.27557148
H        1.66316394       1.67205782       0.12679076
11
Frame=2 idx=004391 GeodesicLength=0.13736679453885065 rxn_smarts="[O:1]=[C:2]1[N:3]([H:7])[C:4]([H:8])([H:9])[C:5]([H:10])=[C:6]1[H:11]>>[H:9][H:10].[O:1]=[C:2]1[N:3]([H:7])[C:4]([H:8])=[C:5]=[C:6]1[H:11]"
O        2.41510930      -1.07329065      -0.05465375
C        1.35310979      -0.52096119      -0.01469827
N        0.09849468      -1.26464139       0.13736697
C       -0.90249339      -0.40753340       0.19623449
C       -0.37900689       0.92250538       0.35831728
C        0.94439647       0.88041870       0.06864026
H        0.05322665      -2.27034090       0.12506314
H       -1.93817974      -0.71141143       0.27822653
H       -1.87632398       1.15674018      -0.94005184
H       -1.44219658       1.61770227      -0.29565930
H        1.67386369       1.67081242       0.14121449
11
Frame=3 idx=004391 GeodesicLength=0.20615988892580575 rxn_smarts="[O:1]=[C:2]1[N:3]([H:7])[C:4]([H:8])([H:9])[C:5]([H:10])=[C:6]1[H:11]>>[H:9][H:10].[O:1]=[C:2]1[N:3]([H:7])[C:4]([H:8])=[C:5]=[C:6]1[H:11]"
O        2.41561500      -1.07729533      -0.04879857
C        1.35443022      -0.52356619      -0.00519628
N        0.09654768      -1.25974303       0.11804411
C       -0.90481118      -0.39703287       0.17814737
C       -0.37422983       0.93137342       0.35184088
C        0.95179358       0.88139405       0.08328407
H        0.04695583      -2.26504642       0.09996267
H       -1.93303843      -0.70382931       0.32381022
H       -1.89357584       1.11903359      -0.93979511
H       -1.44381147       1.62534927      -0.31625532
H        1.68412445       1.66936280       0.15495598
11
Frame=4 idx=004391 GeodesicLength=0.2750495842123473 rxn_smarts="[O:1]=[C:2]1[N:3]([H:7])[C:4]([H:8])([H:9])[C:5]([H:10])=[C:6]1[H:11]>>[H:9][H:10].[O:1]=[C:2]1[N:3]([H:7])[C:4]([H:8])=[C:5]=[C:6]1[H:11]"
O        2.41572901      -1.08155975      -0.04173382
C        1.35533852      -0.52645072       0.00565574
N        0.09446342      -1.25457963       0.09898428
C       -0.90735322      -0.38645595       0.16317479
C       -0.36947152       0.94064656       0.34484442
C        0.95886288       0.88216214       0.09797997
H        0.04025532      -2.25936186       0.07183154
H       -1.92519048      -0.69569537       0.36831918
H       -1.91097522       1.08119160      -0.93832684
H       -1.44580795       1.63234699      -0.33796446
H        1.69414925       1.66775598       0.16723519
11
Frame=5 idx=004391 GeodesicLength=0.3438302598927362 rxn_smarts="[O:1]=[C:2]1[N:3]([H:7])[C:4]([H:8])([H:9])[C:5]([H:10])=[C:6]1[H:11]>>[H:9][H:10].[O:1]=[C:2]1[N:3]([H:7])[C:4]([H:8])=[C:5]=[C:6]1[H:11]"
O        2.41526470      -1.08595714      -0.03318280
C        1.35568842      -0.52957015       0.01713750
N        0.09232682      -1.24901045       0.08031054
C       -0.90993120      -0.37579035       0.15120198
C       -0.36455070       0.95021686       0.33726661
C        0.96559349       0.88265626       0.11245318
H        0.03330743      -2.25295051       0.04104105
H       -1.91505492      -0.68694163       0.41136817
H       -1.92850953       1.04306991      -0.93536481
H       -1.44804398       1.63852069      -0.36060438
H        1.70390948       1.66575649       0.17837298
11
Frame=6 idx=004391 GeodesicLength=0.41300378137021665 rxn_smarts="[O:1]=[C:2]1[N:3]([H:7])[C:4]([H:8])([H:9])[C:5]([H:10])=[C:6]1[H:11]>>[H:9][H:10].[O:1]=[C:2]1[N:3]([H:7])[C:4]([H:8])=[C:5]=[C:6]1[H:11]"
O        2.41462091      -1.09054835      -0.02517550
C        1.35571637      -0.53296361       0.02913301
N        0.09013165      -1.24329200       0.06142721
C       -0.91277274      -0.36519111       0.14118611
C       -0.35966306       0.96012720       0.32921198
C        0.97215423       0.88307086       0.12737272
H        0.02637616      -2.24637706       0.01061504
H       -1.90352512      -0.67810824       0.45222370
H       -1.94610732       1.00524002      -0.93123138
H       -1.45065411       1.64433153      -0.38397901
H        1.71372302       1.66371076       0.18921614
11
Frame=7 idx=004391 GeodesicLength=0.48171951313670214 rxn_smarts="[O:1]=[C:2]1[N:3]([H:7])[C:4]([H:8])([H:9])[C:5]([H:10])=[C:6]1[H:11]>>[H:9][H:10].[O:1]=[C:2]1[N:3]([H:7])[C:4]([H:8])=[C:5]=[C:6]1[H:11]"
O        2.41324844      -1.09529605      -0.01641497
C        1.35517343      -0.53657899       0.04236381
N        0.08797729      -1.23706121       0.04279613
C       -0.91552277      -0.35447465       0.13327884
C       -0.35462379       0.97021962       0.32037085
C        0.97832940       0.88314591       0.14275121
H        0.01941036      -2.23883343      -0.02206631
H       -1.88999262      -0.66894101       0.49213080
H       -1.96375240       0.96731458      -0.92565130
H       -1.45338865       1.64937751      -0.40848191
H        1.72314131       1.66112772       0.19892286
11
Frame=8 idx=004391 GeodesicLength=0.5510683716772901 rxn_smarts="[O:1]=[C:2]1[N:3]([H:7])[C:4]([H:8])([H:9])[C:5]([H:10])=[C:6]1[H:11]>>[H:9][H:10].[O:1]=[C:2]1[N:3]([H:7])[C:4]([H:8])=[C:5]=[C:6]1[H:11]"
O        2.41179786      -1.10028491      -0.00775821
C        1.35437986      -0.54043050       0.05572952
N        0.08582729      -1.23069295       0.02454028
C       -0.91851565      -0.34380947       0.12687671
C       -0.34952456       0.98073894       0.31068369
C        0.98446034       0.88323270       0.15875177
H        0.01242728      -2.23101583      -0.05540887
H       -1.87551245      -0.65963556       0.53087042
H       -1.98179283       0.92936141      -0.91877405
H       -1.45635945       1.65401395      -0.43418123
H        1.73281232       1.65852222       0.20866998
11
Frame=9 idx=004391 GeodesicLength=0.6199153988917165 rxn_smarts="[O:1]=[C:2]1[N:3]([H:7])[C:4]([H:8])([H:9])[C:5]([H:10])=[C:6]1[H:11]>>[H:9][H:10].[O:1]=[C:2]1[N:3]([H:7])[C:4]([H:8])=[C:5]=[C:6]1[H:11]"
O        2.40976447      -1.10570851       0.00617163
C        1.35295177      -0.54429411       0.06566289
N        0.08382893      -1.22381927       0.00569234
C       -0.92123728      -0.33311105       0.12146448
C       -0.34400059       0.99116809       0.29965585
C        0.99021707       0.88295691       0.17378090
H        0.00566708      -2.22215613      -0.09030441
H       -1.85882957      -0.65005238       0.56904829
H       -2.00084600       0.89181970      -0.90915550
H       -1.45974251       1.65806505      -0.46020298
H        1.74222662       1.65513168       0.21818651
11
Frame=10 idx=004391 GeodesicLength=0.6890426125490546 rxn_smarts="[O:1]=[C:2]1[N:3]([H:7])[C:4]([H:8])([H:9])[C:5]([H:10])=[C:6]1[H:11]>>[H:9][H:10].[O:1]=[C:2]1[N:3]([H:7])[C:4]([H:8])=[C:5]=[C:6]1[H:11]"
O        2.40747718      -1.11123685       0.01876862
C        1.35125108      -0.54810409       0.07371604
N        0.08190282      -1.21685848      -0.01270002
C       -0.92410275      -0.32254359       0.11648326
C       -0.33846640       1.00163376       0.28807624
C        0.99567665       0.88254395       0.19025119
H       -0.00082891      -2.21325888      -0.12260358
H       -1.84145877      -0.64049832       0.60487240
H       -2.01966289       0.85484861      -0.89856336
H       -1.46324997       1.66187695      -0.48677339
H        1.75146195       1.65159694       0.22847261
11
Frame=11 idx=004391 GeodesicLength=0.758240264420739 rxn_smarts="[O:1]=[C:2]1[N:3]([H:7])[C:4]([H:8])([H:9])[C:5]([H:10])=[C:6]1[H:11]>>[H:9][H:10].[O:1]=[C:2]1[N:3]([H:7])[C:4]([H:8])=[C:5]=[C:6]1[H:11]"
O        2.40483867      -1.11718777       0.03301376
C        1.34933317      -0.55171715       0.07893487
N        0.08005857      -1.20968356      -0.03089861
C       -0.92693000      -0.31198672       0.11214254
C       -0.33265859       1.01218510       0.27520253
C        1.00084436       0.88201466       0.20672103
H       -0.00718543      -2.20395803      -0.15456152
H       -1.82277470      -0.63067170       0.63976487
H       -2.03905085       0.81811115      -0.88611775
H       -1.46705296       1.66524363      -0.51420489
H        1.76057776       1.64765040       0.24000317
11
Frame=12 idx=004391 GeodesicLength=0.8274726102004608 rxn_smarts="[O:1]=[C:2]1[N:3]([H:7])[C:4]([H:8])([H:9])[C:5]([H:10])=[C:6]1[H:11]>>[H:9][H:10].[O:1]=[C:2]1[N:3]([H:7])[C:4]([H:8])=[C:5]=[C:6]1[H:11]"
O        2.40184001      -1.12319854       0.04614235
C        1.34724644      -0.55512205       0.08192068
N        0.07826887      -1.20242211      -0.04829332
C       -0.92974687      -0.30144947       0.10822174
C       -0.32661896       1.02274313       0.26109669
C        1.00559712       0.88131432       0.22351605
H       -0.01340959      -2.19451481      -0.18457810
H       -1.80314268      -0.62041370       0.67324631
H       -2.05843549       0.78159728      -0.87250475
H       -1.47098510       1.66816585      -0.54265499
H        1.76938622       1.64330011       0.25388735
11
Frame=13 idx=004391 GeodesicLength=0.8967122538696183 rxn_smarts="[O:1]=[C:2]1[N:3]([H:7])[C:4]([H:8])([H:9])[C:5]([H:10])=[C:6]1[H:11]>>[H:9][H:10].[O:1]=[C:2]1[N:3]([H:7])[C:4]([H:8])=[C:5]=[C:6]1[H:11]"
O        2.39854323      -1.12916435       0.05784904
C        1.34506899      -0.55825979       0.08263433
N        0.07652576      -1.19515781      -0.06488230
C       -0.93254736      -0.29093904       0.10452262
C       -0.32031218       1.03322604       0.24581329
C        1.00986941       0.88042242       0.24044979
H       -0.01951982      -2.18513565      -0.21213595
H       -1.78271871      -0.60969714       0.70514370
H       -2.07762799       0.74538810      -0.85788275
H       -1.47506062       1.67075958      -0.57184050
H        1.77777930       1.63855763       0.27032873
11
Frame=14 idx=004391 GeodesicLength=0.9659439164031377 rxn_smarts="[O:1]=[C:2]1[N:3]([H:7])[C:4]([H:8])([H:9])[C:5]([H:10])=[C:6]1[H:11]>>[H:9][H:10].[O:1]=[C:2]1[N:3]([H:7])[C:4]([H:8])=[C:5]=[C:6]1[H:11]"
O        2.39512221      -1.13469643       0.06592087
C        1.34279925      -0.56120224       0.08199993
N        0.07478593      -1.18803910      -0.08001881
C       -0.93535908      -0.28044083       0.10098228
C       -0.31372271       1.04356805       0.22940954
C        1.01358475       0.87932112       0.25717693
H       -0.02558695      -2.17604620      -0.23635267
H       -1.76192036      -0.59823767       0.73522965
H       -2.09614139       0.70931387      -0.84300242
H       -1.47922559       1.67307147      -0.60167831
H        1.78566395       1.63338797       0.29033302
11
Frame=15 idx=004391 GeodesicLength=1.0352058917521885 rxn_smarts="[O:1]=[C:2]1[N:3]([H:7])[C:4]([H:8])([H:9])[C:5]([H:10])=[C:6]1[H:11]>>[H:9][H:10].[O:1]=[C:2]1[N:3]([H:7])[C:4]([H:8])=[C:5]=[C:6]1[H:11]"
O        2.39157958      -1.14011596       0.07306287
C        1.34054310      -0.56390291       0.07963494
N        0.07308195      -1.18106177      -0.09440802
C       -0.93814045      -0.26997240       0.09748396
C       -0.30678779       1.05371046       0.21204124
C        1.01679845       0.87806021       0.27317410
H       -0.03158839      -2.16723190      -0.25844441
H       -1.74059437      -0.58626528       0.76370807
H       -2.11424686       0.67348934      -0.82734729
H       -1.48366049       1.67539237      -0.63143585
H        1.79301527       1.62789784       0.31253039
11
Frame=16 idx=004391 GeodesicLength=1.1044706225297833 rxn_smarts="[O:1]=[C:2]1[N:3]([H:7])[C:4]([H:8])([H:9])[C:5]([H:10])=[C:6]1[H:11]>>[H:9][H:10].[O:1]=[C:2]1[N:3]([H:7])[C:4]([H:8])=[C:5]=[C:6]1[H:11]"
O        2.38795629      -1.14536342       0.07933797
C        1.33829389      -0.56644328       0.07634132
N        0.07143387      -1.17426133      -0.10803428
C       -0.94088931      -0.25956051       0.09393994
C       -0.29953779       1.06354463       0.19415616
C        1.01949375       0.87663247       0.28841882
H       -0.03748081      -2.15871020      -0.27864068
H       -1.71900179      -0.57391222       0.79030497
H       -2.13165449       0.63789752      -0.81124563
H       -1.48834100       1.67802761      -0.66047398
H        1.79972739       1.62214872       0.33589539
