15
Frame=0 idx=011884 GeodesicLength=0.0 rxn_smarts="[C:1]([C:2]([n:3]1[c:4]([H:13])[c:5]([H:14])[n:6][c:7]1[H:15])([H:11])[H:12])([H:8])([H:9])[H:10]>>[C:1]([C-:2]([N+:3]1=[C:7]([H:15])[N:6]=[C:5]([H:14])[C:4]1([H:11])[H:13])[H:12])([H:8])([H:9])[H:10]"
C       -1.92102932       0.21749556      -0.41430133
C       -1.09112579      -0.68089999       0.47744624
N        0.25967272      -0.15058247       0.61726870
C        1.04570485      -0.80855751      -0.35438085
C        2.10845000       0.13524294      -0.58377630
N        2.00962678       1.15779268       0.24560105
C        0.87077716       0.96109782       0.95896739
H       -2.89942127      -0.23632306      -0.57970769
H       -2.08620792       1.21668947       0.01998779
H       -1.46105566       0.36766193      -1.39576298
H       -0.04944199      -1.26622993      -0.79136843
H       -1.55664022      -0.85030544       1.44951737
H        1.37259187      -1.79789725      -0.02230876
H        2.92233809       0.05773715      -1.29127264
H        0.47576075       1.67707813       1.66409040
15
Frame=1 idx=011884 GeodesicLength=0.11836464956587144 rxn_smarts="[C:1]([C:2]([n:3]1[c:4]([H:13])[c:5]([H:14])[n:6][c:7]1[H:15])([H:11])[H:12])([H:8])([H:9])[H:10]>>[C:1]([C-:2]([N+:3]1=[C:7]([H:15])[N:6]=[C:5]([H:14])[C:4]1([H:11])[H:13])[H:12])([H:8])([H:9])[H:10]"
C       -1.95327339       0.20050415      -0.40816528
C       -1.08385376      -0.64824337       0.49170224
N        0.27534941      -0.15311637       0.61378687
C        1.05501296      -0.78937121      -0.37591313
C        2.14206206       0.13488418      -0.56466887
N        2.00673628       1.18124067       0.22926871
C        0.89160429       0.95557347       0.96767661
H       -2.92315007      -0.27867492      -0.55208296
H       -2.14279077       1.21417397      -0.02040297
H       -1.51935586       0.32814889      -1.40601601
H       -0.07333002      -1.23824560      -0.79452571
H       -1.55845738      -0.77575712       1.46748531
H        1.37320484      -1.80725294      -0.13774854
H        3.00731322       0.02107256      -1.20304470
H        0.50292821       1.65506365       1.69264843
15
Frame=2 idx=011884 GeodesicLength=0.2371421014513884 rxn_smarts="[C:1]([C:2]([n:3]1[c:4]([H:13])[c:5]([H:14])[n:6][c:7]1[H:15])([H:11])[H:12])([H:8])([H:9])[H:10]>>[C:1]([C-:2]([N+:3]1=[C:7]([H:15])[N:6]=[C:5]([H:14])[C:4]1([H:11])[H:13])[H:12])([H:8])([H:9])[H:10]"
C       -1.98609802       0.18202753      -0.40285643
C       -1.07621055      -0.61225562       0.50410036
N        0.29129117      -0.15523211       0.60967087
C        1.06499345      -0.76833878      -0.39820046
C        2.17678154       0.13414376      -0.54252091
N        2.00863735       1.19970985       0.21976512
C        0.91404461       0.94916846       0.97787946
H       -2.95024575      -0.31861626      -0.51343767
H       -2.19474290       1.21180597      -0.07053869
H       -1.58369913       0.27267578      -1.42027966
H       -0.09642288      -1.20889051      -0.79772978
H       -1.55847767      -0.69655435       1.48273963
H        1.37110315      -1.80783522      -0.26290997
H        3.08589466      -0.01290041      -1.10921445
H        0.53315097       1.63109192       1.72353257
15
Frame=3 idx=011884 GeodesicLength=0.3588585475765154 rxn_smarts="[C:1]([C:2]([n:3]1[c:4]([H:13])[c:5]([H:14])[n:6][c:7]1[H:15])([H:11])[H:12])([H:8])([H:9])[H:10]>>[C:1]([C-:2]([N+:3]1=[C:7]([H:15])[N:6]=[C:5]([H:14])[C:4]1([H:11])[H:13])[H:12])([H:8])([H:9])[H:10]"
C       -2.01946488       0.16090232      -0.40022842
C       -1.06856395      -0.57266156       0.51358297
N        0.30692213      -0.15673880       0.60461947
C        1.07585566      -0.74336381      -0.42171028
C        2.21101219       0.13632669      -0.51874059
N        2.02078667       1.21018657       0.22774889
C        0.93754557       0.94040790       0.99294820
H       -2.98609045      -0.34878924      -0.45284674
H       -2.23107226       1.21305832      -0.14285445
H       -1.66038075       0.18321613      -1.44227790
H       -0.11779543      -1.17824774      -0.80085134
H       -1.55740654      -0.60979688       1.49428552
H        1.36799653      -1.79501420      -0.39995813
H        3.15505246      -0.04060473      -1.01561288
H        0.56560305       1.60111903       1.76189570
15
Frame=4 idx=011884 GeodesicLength=0.4821225943941425 rxn_smarts="[C:1]([C:2]([n:3]1[c:4]([H:13])[c:5]([H:14])[n:6][c:7]1[H:15])([H:11])[H:12])([H:8])([H:9])[H:10]>>[C:1]([C-:2]([N+:3]1=[C:7]([H:15])[N:6]=[C:5]([H:14])[C:4]1([H:11])[H:13])[H:12])([H:8])([H:9])[H:10]"
C       -2.05311476       0.13651712      -0.40068575
C       -1.06099266      -0.52873209       0.52000524
N        0.32218416      -0.15749859       0.59922677
C        1.08768250      -0.71440592      -0.44538573
C        2.24542596       0.13998142      -0.49282826
N        2.04440161       1.21199560       0.25474921
C        0.96326671       0.92766580       1.01499405
H       -3.02613694      -0.36719080      -0.37586333
H       -2.25657311       1.21069018      -0.23812643
H       -1.74817970       0.06288784      -1.46147125
H       -0.13740122      -1.14535986      -0.80428955
H       -1.55566057      -0.51292132       1.50116647
H        1.36305227      -1.76586731      -0.54831622
H        3.21406095      -0.06430355      -0.92837167
H        0.59798482       1.56654146       1.80519646
15
Frame=5 idx=011884 GeodesicLength=0.607942272512377 rxn_smarts="[C:1]([C:2]([n:3]1[c:4]([H:13])[c:5]([H:14])[n:6][c:7]1[H:15])([H:11])[H:12])([H:8])([H:9])[H:10]>>[C:1]([C-:2]([N+:3]1=[C:7]([H:15])[N:6]=[C:5]([H:14])[C:4]1([H:11])[H:13])[H:12])([H:8])([H:9])[H:10]"
C       -2.08896138       0.10706645      -0.40392251
C       -1.05332070      -0.47692216       0.52301942
N        0.33690395      -0.15416606       0.59258631
C        1.10049385      -0.68199061      -0.46783057
C        2.28284959       0.13974605      -0.46275469
N        2.08271430       1.20278261       0.29884879
C        0.99232406       0.91340981       1.04096272
H       -3.06124066      -0.38300375      -0.29886358
H       -2.29269867       1.18920296      -0.34732936
H       -1.84248929      -0.06789855      -1.46264020
H       -0.15600463      -1.10619247      -0.81003190
H       -1.55249027      -0.40245071       1.50123020
H        1.35323601      -1.71824778      -0.70320755
H        3.26564522      -0.09233115      -0.85032916
H        0.63303862       1.53099537       1.85026208
15
Frame=6 idx=011884 GeodesicLength=0.7338377292396845 rxn_smarts="[C:1]([C:2]([n:3]1[c:4]([H:13])[c:5]([H:14])[n:6][c:7]1[H:15])([H:11])[H:12])([H:8])([H:9])[H:10]>>[C:1]([C-:2]([N+:3]1=[C:7]([H:15])[N:6]=[C:5]([H:14])[C:4]1([H:11])[H:13])[H:12])([H:8])([H:9])[H:10]"
C       -2.12830564       0.07070235      -0.41170314
C       -1.04707495      -0.41494491       0.52005012
N        0.34933659      -0.14528038       0.58386842
C        1.11436999      -0.64444702      -0.48875552
C        2.32120349       0.13876724      -0.42934124
N        2.13230407       1.18292367       0.36102804
C        1.02339636       0.89632322       1.07302450
H       -3.10219984      -0.38789339      -0.20813955
H       -2.32438059       1.15482603      -0.48195646
H       -1.94237053      -0.23331642      -1.45480104
H       -0.17314534      -1.06059480      -0.81785625
H       -1.55001593      -0.27164507       1.49141344
H        1.34047839      -1.64774467      -0.86092153
H        3.30872762      -0.11741728      -0.78872412
H        0.67767632       1.47974143       1.91281432
15
Frame=7 idx=011884 GeodesicLength=0.8590433616977367 rxn_smarts="[C:1]([C:2]([n:3]1[c:4]([H:13])[c:5]([H:14])[n:6][c:7]1[H:15])([H:11])[H:12])([H:8])([H:9])[H:10]>>[C:1]([C-:2]([N+:3]1=[C:7]([H:15])[N:6]=[C:5]([H:14])[C:4]1([H:11])[H:13])[H:12])([H:8])([H:9])[H:10]"
C       -2.17165421       0.02638835      -0.41876315
C       -1.04186203      -0.34212034       0.50778307
N        0.35943672      -0.13005755       0.57151418
C        1.13031717      -0.60395726      -0.50789160
C        2.36236982       0.13160866      -0.39071059
N        2.19238079       1.14838256       0.43879802
C        1.05663351       0.87594055       1.10910859
H       -3.14299132      -0.38484276      -0.11473044
H       -2.36203763       1.09557315      -0.62638260
H       -2.04203898      -0.41371200      -1.42312229
H       -0.18968365      -1.00020754      -0.83664063
H       -1.54758639      -0.12256260       1.46562368
H        1.32592709      -1.55733525      -1.01120119
H        3.34716267      -0.14336520      -0.74305995
H        0.72362642       1.42026724       1.97967490
15
Frame=8 idx=011884 GeodesicLength=0.9845575952676429 rxn_smarts="[C:1]([C:2]([n:3]1[c:4]([H:13])[c:5]([H:14])[n:6][c:7]1[H:15])([H:11])[H:12])([H:8])([H:9])[H:10]>>[C:1]([C-:2]([N+:3]1=[C:7]([H:15])[N:6]=[C:5]([H:14])[C:4]1([H:11])[H:13])[H:12])([H:8])([H:9])[H:10]"
C       -2.22013843      -0.02467916      -0.42345573
C       -1.03673312      -0.25025542       0.48158490
N        0.36750267      -0.10465128       0.55283339
C        1.14956628      -0.56008768      -0.52597890
C        2.40846514       0.11312347      -0.34471017
N        2.26468087       1.09169374       0.53411339
C        1.09438627       0.84900813       1.15051672
H       -3.17493329      -0.38433048      -0.02324888
H       -2.42755932       1.00165078      -0.77480198
H       -2.14360492      -0.60333222      -1.36104550
H       -0.20519353      -0.90587558      -0.87773901
H       -1.54262816       0.05314428       1.41820517
H        1.31116342      -1.45486521      -1.14260728
H        3.38416150      -0.17074082      -0.71383738
H        0.77086461       1.35019747       2.05017127
15
Frame=9 idx=011884 GeodesicLength=1.1132797988552774 rxn_smarts="[C:1]([C:2]([n:3]1[c:4]([H:13])[c:5]([H:14])[n:6][c:7]1[H:15])([H:11])[H:12])([H:8])([H:9])[H:10]>>[C:1]([C-:2]([N+:3]1=[C:7]([H:15])[N:6]=[C:5]([H:14])[C:4]1([H:11])[H:13])[H:12])([H:8])([H:9])[H:10]"
C       -2.27064520      -0.08431887      -0.42033653
C       -1.03156665      -0.14127214       0.43488961
N        0.37300217      -0.07744272       0.52832841
C        1.17461429      -0.52263615      -0.53986042
C        2.45586556       0.08145264      -0.29307273
N        2.33770017       1.00769315       0.64448276
C        1.13451344       0.79839223       1.20384072
H       -3.19964340      -0.37832621       0.07790281
H       -2.50865167       0.87088364      -0.91972604
H       -2.23461197      -0.80457075      -1.25650095
H       -0.21859801      -0.72981847      -0.97159853
H       -1.53508904       0.25545912       1.33946356
H        1.30233618      -1.36889419      -1.23260955
H        3.41808741      -0.18155280      -0.70918719
H        0.80268674       1.27495152       2.11398406
15
Frame=10 idx=011884 GeodesicLength=1.2376187374208778 rxn_smarts="[C:1]([C:2]([n:3]1[c:4]([H:13])[c:5]([H:14])[n:6][c:7]1[H:15])([H:11])[H:12])([H:8])([H:9])[H:10]>>[C:1]([C-:2]([N+:3]1=[C:7]([H:15])[N:6]=[C:5]([H:14])[C:4]1([H:11])[H:13])[H:12])([H:8])([H:9])[H:10]"
C       -2.30819765      -0.16904037      -0.40620840
C       -1.02507485       0.00564514       0.36816845
N        0.37286942      -0.04851667       0.50345733
C        1.18646430      -0.47030927      -0.56541245
C        2.49453630       0.02443434      -0.24073235
N        2.41061739       0.87085892       0.77331539
C        1.17298280       0.71741835       1.26810192
H       -3.19558877      -0.40601315       0.18426157
H       -2.62001070       0.66724922      -1.05268120
H       -2.25969429      -1.02674793      -1.09889266
H       -0.21539757      -0.39384037      -1.10913265
H       -1.52891415       0.52876022       1.20761255
H        1.25007272      -1.28404085      -1.29500306
H        3.43916129      -0.20642857      -0.71167413
H        0.82617376       1.19057099       2.17481968
15
Frame=11 idx=011884 GeodesicLength=1.3787573362738343 rxn_smarts="[C:1]([C:2]([n:3]1[c:4]([H:13])[c:5]([H:14])[n:6][c:7]1[H:15])([H:11])[H:12])([H:8])([H:9])[H:10]>>[C:1]([C-:2]([N+:3]1=[C:7]([H:15])[N:6]=[C:5]([H:14])[C:4]1([H:11])[H:13])[H:12])([H:8])([H:9])[H:10]"
C       -2.29737097      -0.26243217      -0.37635470
C       -1.02267199       0.14039468       0.31619849
N        0.35671984      -0.04114108       0.48844414
C        1.16865410      -0.39735995      -0.60755396
C        2.49765917      -0.03203930      -0.21268511
N        2.44616908       0.70986343       0.88289227
C        1.18531191       0.61253292       1.32827003
H       -3.17429869      -0.39375372       0.26259293
H       -2.63317498       0.41721402      -1.17908621
H       -2.19763164      -1.23784034      -0.88283161
H       -0.20092851      -0.02433520      -1.17754180
H       -1.54046050       0.80971534       1.03196301
H        1.15388493      -1.17271699      -1.37161027
H        3.42731838      -0.22907981      -0.72635033
H        0.83081988       1.10097818       2.22365311
15
Frame=12 idx=011884 GeodesicLength=1.5704440335942813 rxn_smarts="[C:1]([C:2]([n:3]1[c:4]([H:13])[c:5]([H:14])[n:6][c:7]1[H:15])([H:11])[H:12])([H:8])([H:9])[H:10]>>[C:1]([C-:2]([N+:3]1=[C:7]([H:15])[N:6]=[C:5]([H:14])[C:4]1([H:11])[H:13])[H:12])([H:8])([H:9])[H:10]"
C       -2.25758317      -0.34922850      -0.33690395
C       -1.02262136       0.25809423       0.26983648
N        0.33171140      -0.02967212       0.46268946
C        1.14217635      -0.29684141      -0.66271228
C        2.48169667      -0.07714413      -0.20527299
N        2.45498526       0.53589430       0.96890351
C        1.17578156       0.51426275       1.36677672
H       -3.13829346      -0.38020084       0.30639596
H       -2.60303221       0.14402956      -1.25875041
H       -2.10530516      -1.39796292      -0.63771136
H       -0.17712758       0.35621873      -1.18598345
H       -1.56006785       1.04528027       0.82536889
H        1.04985199      -1.04522439      -1.44640216
H        3.40592107      -0.29492287      -0.72006283
H        0.82190650       1.01741734       2.25382841
15
Frame=13 idx=011884 GeodesicLength=1.7907697522737316 rxn_smarts="[C:1]([C:2]([n:3]1[c:4]([H:13])[c:5]([H:14])[n:6][c:7]1[H:15])([H:11])[H:12])([H:8])([H:9])[H:10]>>[C:1]([C-:2]([N+:3]1=[C:7]([H:15])[N:6]=[C:5]([H:14])[C:4]1([H:11])[H:13])[H:12])([H:8])([H:9])[H:10]"
C       -2.20294998      -0.42541378      -0.29637372
C       -1.02879777       0.34056858       0.24640396
N        0.30328668      -0.02549617       0.44379011
C        1.10833321      -0.19703230      -0.70813739
C        2.45063278      -0.10792984      -0.21791748
N        2.44391034       0.36621816       1.01991593
C        1.15868417       0.42690886       1.38998407
H       -3.12206950      -0.34231518       0.28545620
H       -2.47849993      -0.12223965      -1.31791568
H       -2.01459618      -1.50582580      -0.37470914
H       -0.14776256       0.71037067      -1.11631788
H       -1.59244688       1.20751257       0.61726046
H        0.94199660      -0.92047693      -1.50192916
H        3.36347349      -0.35669826      -0.73842227
H        0.81680553       0.95184909       2.26891201
15
Frame=14 idx=011884 GeodesicLength=2.027031799901586 rxn_smarts="[C:1]([C:2]([n:3]1[c:4]([H:13])[c:5]([H:14])[n:6][c:7]1[H:15])([H:11])[H:12])([H:8])([H:9])[H:10]>>[C:1]([C-:2]([N+:3]1=[C:7]([H:15])[N:6]=[C:5]([H:14])[C:4]1([H:11])[H:13])[H:12])([H:8])([H:9])[H:10]"
C       -2.14437394      -0.48480000      -0.25625401
C       -1.03663872       0.41532544       0.21863610
N        0.27141438      -0.02381466       0.42338073
C        1.07381788      -0.11140621      -0.74433209
C        2.41403486      -0.12152564      -0.24051201
N        2.41668088       0.21289558       1.04305399
C        1.13443786       0.34096721       1.40292590
H       -3.10538056      -0.30736702       0.22791267
H       -2.31951599      -0.36993125      -1.33510302
H       -1.94427124      -1.55477937      -0.11620700
H       -0.10362956       1.01682509      -0.99493476
H       -1.62238677       1.32237966       0.39979496
H        0.84428025      -0.82193005      -1.53449244
H        3.31337566      -0.39367748      -0.77240813
H        0.80815498       0.88083870       2.27853912
15
Frame=15 idx=011884 GeodesicLength=2.271370317746931 rxn_smarts="[C:1]([C:2]([n:3]1[c:4]([H:13])[c:5]([H:14])[n:6][c:7]1[H:15])([H:11])[H:12])([H:8])([H:9])[H:10]>>[C:1]([C-:2]([N+:3]1=[C:7]([H:15])[N:6]=[C:5]([H:14])[C:4]1([H:11])[H:13])[H:12])([H:8])([H:9])[H:10]"
C       -2.08753182      -0.53000996      -0.21438368
C       -1.04424183       0.48655413       0.17479146
N        0.23695118      -0.02094290       0.39787766
C        1.04094378      -0.03662841      -0.77686826
C        2.37636128      -0.12339746      -0.26612577
N        2.37774749       0.07619450       1.04609222
C        1.10266545       0.25549645       1.40612273
H       -3.08288983      -0.28523959       0.15687859
H       -2.15592744      -0.59419472      -1.30775048
H       -1.88754259      -1.55140883       0.12707284
H       -0.04019945       1.28051098      -0.83380128
H       -1.64761381       1.39668744       0.17307701
H        0.75853785      -0.74463368      -1.55325691
H        3.26219342      -0.41247337      -0.81150553
H        0.79054633       0.80348541       2.28177940
15
Frame=16 idx=011884 GeodesicLength=2.518003847654862 rxn_smarts="[C:1]([C:2]([n:3]1[c:4]([H:13])[c:5]([H:14])[n:6][c:7]1[H:15])([H:11])[H:12])([H:8])([H:9])[H:10]>>[C:1]([C-:2]([N+:3]1=[C:7]([H:15])[N:6]=[C:5]([H:14])[C:4]1([H:11])[H:13])[H:12])([H:8])([H:9])[H:10]"
C       -2.03751775      -0.56162513      -0.16775432
C       -1.04935451       0.54813584       0.11585431
N        0.20207235      -0.02405318       0.36774324
C        1.01055791       0.03180815      -0.80822950
C        2.34060978      -0.11025598      -0.29310805
N        2.33242981      -0.04571583       1.03364621
C        1.06490214       0.16265352       1.40112378
H       -3.05757425      -0.26411955       0.07527947
H       -1.99503507      -0.80300836      -1.23586094
H       -1.85744611      -1.49955760       0.36493151
H        0.02970797       1.49565669      -0.62982021
H       -1.65002867       1.43571307      -0.08157980
H        0.68705731      -0.68044050      -1.56666751
H        3.21672804      -0.39763928      -0.85485579
H        0.76289105       0.71244814       2.27929760
