15
Frame=0 idx=011302 GeodesicLength=0.0 rxn_smarts="[O:1]([C:2]([C:3]([O:4][C:5]([C:6]#[C:7][H:15])([H:13])[H:14])([H:11])[H:12])([H:9])[H:10])[H:8]>>[O:1]([C:2]([C:3]([O:4][C:5]([C:7](=[C:6])[H:15])([H:13])[H:14])([H:11])[H:12])([H:9])[H:10])[H:8]"
O       -2.56028967       0.89265584      -0.03484563
C       -2.03334432      -0.24089661       0.60955659
C       -0.75700350      -0.71552101      -0.04569313
O        0.18750805       0.33257290       0.08479480
C        1.36569506       0.09549039      -0.60882706
C        2.22783508       1.53945255      -0.57388240
C        2.88790187       0.79766590       0.18290652
H       -1.86524837       1.55618121      -0.06326197
H       -2.78773213      -1.02710645       0.54382267
H       -1.83905285      -0.04152269       1.67133145
H       -0.94021859      -0.92856967      -1.10680297
H       -0.38701658      -1.62995464       0.43936061
H        1.22538390       0.00863307      -1.68856085
H        1.79950692      -0.86983476      -0.28532743
H        3.47607520       0.23075402       0.87542875
15
Frame=1 idx=011302 GeodesicLength=0.041301134616938594 rxn_smarts="[O:1]([C:2]([C:3]([O:4][C:5]([C:6]#[C:7][H:15])([H:13])[H:14])([H:11])[H:12])([H:9])[H:10])[H:8]>>[O:1]([C:2]([C:3]([O:4][C:5]([C:7](=[C:6])[H:15])([H:13])[H:14])([H:11])[H:12])([H:9])[H:10])[H:8]"
O       -2.55466140       0.90449019      -0.01879256
C       -2.03487255      -0.24145865       0.60947479
C       -0.76335342      -0.71711101      -0.05420004
O        0.18883684       0.32259205       0.08457153
C        1.36815772       0.08111439      -0.60779288
C        2.24190170       1.52910660      -0.60508424
C        2.88276854       0.81064055       0.18771461
H       -1.85488964       1.56329916      -0.03877808
H       -2.79537163      -1.02095584       0.53472692
H       -1.83700636      -0.05775679       1.67341288
H       -0.95017193      -0.91611747      -1.11747656
H       -0.39946323      -1.64017877       0.41892658
H        1.22428408      -0.01786914      -1.68651490
H        1.79957738      -0.88335951      -0.28001427
H        3.48426388       0.28356424       0.89982620
15
Frame=2 idx=011302 GeodesicLength=0.08285592140638637 rxn_smarts="[O:1]([C:2]([C:3]([O:4][C:5]([C:6]#[C:7][H:15])([H:13])[H:14])([H:11])[H:12])([H:9])[H:10])[H:8]>>[O:1]([C:2]([C:3]([O:4][C:5]([C:7](=[C:6])[H:15])([H:13])[H:14])([H:11])[H:12])([H:9])[H:10])[H:8]"
O       -2.54941987       0.91593965      -0.00391496
C       -2.03747573      -0.24210485       0.60860363
C       -0.77014277      -0.71863341      -0.06226100
O        0.18951110       0.31256652       0.08565189
C        1.37047152       0.06687313      -0.60464453
C        2.25600287       1.51816212      -0.63372693
C        2.87655588       0.82458520       0.19462283
H       -1.84492627       1.56987373      -0.01495300
H       -2.80394817      -1.01474808       0.52423208
H       -1.83718891      -0.07408128       1.67467701
H       -0.95943870      -0.90354686      -1.12771280
H       -0.41279483      -1.65010822       0.39919051
H        1.22366000      -0.04400131      -1.68232815
H        1.79921273      -0.89683765      -0.27254114
H        3.49992115       0.33606131       0.91510456
15
Frame=3 idx=011302 GeodesicLength=0.12387929244422619 rxn_smarts="[O:1]([C:2]([C:3]([O:4][C:5]([C:6]#[C:7][H:15])([H:13])[H:14])([H:11])[H:12])([H:9])[H:10])[H:8]>>[O:1]([C:2]([C:3]([O:4][C:5]([C:7](=[C:6])[H:15])([H:13])[H:14])([H:11])[H:12])([H:9])[H:10])[H:8]"
O       -2.54248931       0.92778163       0.01321545
C       -2.03836621      -0.24254479       0.60883305
C       -0.77619268      -0.72010161      -0.07081717
O        0.19154745       0.30190745       0.08556348
C        1.37310428       0.05173631      -0.60434283
C        2.27242821       1.50447868      -0.66472936
C        2.87196412       0.83593019       0.19715105
H       -1.83300086       1.57634470       0.01050514
H       -2.81120264      -1.00778888       0.51548576
H       -1.83454926      -0.09075065       1.67666813
H       -0.96910395      -0.89032977      -1.13813706
H       -0.42539256      -1.66014113       0.37807864
H        1.22179707      -0.06945433      -1.68080757
H        1.79872715      -0.91198996      -0.26963595
H        3.50072918       0.39492214       0.94296922
15
Frame=4 idx=011302 GeodesicLength=0.1653298003063614 rxn_smarts="[O:1]([C:2]([C:3]([O:4][C:5]([C:6]#[C:7][H:15])([H:13])[H:14])([H:11])[H:12])([H:9])[H:10])[H:8]>>[O:1]([C:2]([C:3]([O:4][C:5]([C:7](=[C:6])[H:15])([H:13])[H:14])([H:11])[H:12])([H:9])[H:10])[H:8]"
O       -2.53724299       0.93840696       0.02704051
C       -2.04164515      -0.24327545       0.60738967
C       -0.78302155      -0.72149344      -0.07820193
O        0.19194114       0.29169884       0.08811166
C        1.37525839       0.03775401      -0.59966139
C        2.28794866       1.49168920      -0.68993341
C        2.86515646       0.84970852       0.20506975
H       -1.82308906       1.58176513       0.03342764
H       -2.82019608      -1.00142346       0.50410008
H       -1.83668107      -0.10694172       1.67708671
H       -0.97721971      -0.87768244      -1.14750419
H       -0.43917131      -1.66943821       0.35925501
H        1.22088543      -0.09336178      -1.67505994
H        1.79752248      -0.92605221      -0.26228971
H        3.51955436       0.44864605       0.95116955
15
Frame=5 idx=011302 GeodesicLength=0.20608350412882095 rxn_smarts="[O:1]([C:2]([C:3]([O:4][C:5]([C:6]#[C:7][H:15])([H:13])[H:14])([H:11])[H:12])([H:9])[H:10])[H:8]>>[O:1]([C:2]([C:3]([O:4][C:5]([C:7](=[C:6])[H:15])([H:13])[H:14])([H:11])[H:12])([H:9])[H:10])[H:8]"
O       -2.53017647       0.94937009       0.04308998
C       -2.04295277      -0.24366733       0.60727549
C       -0.78896774      -0.72283880      -0.08595459
O        0.19387940       0.28084224       0.08931033
C        1.37774868       0.02283935      -0.59829483
C        2.30610177       1.47603243      -0.71750176
C        2.86037052       0.86024509       0.20827794
H       -1.81109068       1.58704161       0.05758091
H       -2.82759677      -0.99423534       0.49505936
H       -1.83555846      -0.12302894       1.67838602
H       -0.98575124      -0.86462591      -1.15686024
H       -0.45200862      -1.67874430       0.33933178
H        1.21844277      -0.11612280      -1.67252243
H        1.79612591      -0.94204989      -0.26047115
H        3.52143370       0.50894248       0.97329318
15
Frame=6 idx=011302 GeodesicLength=0.247054679828464 rxn_smarts="[O:1]([C:2]([C:3]([O:4][C:5]([C:6]#[C:7][H:15])([H:13])[H:14])([H:11])[H:12])([H:9])[H:10])[H:8]>>[O:1]([C:2]([C:3]([O:4][C:5]([C:7](=[C:6])[H:15])([H:13])[H:14])([H:11])[H:12])([H:9])[H:10])[H:8]"
O       -2.52444899       0.95925397       0.05645824
C       -2.04610804      -0.24433954       0.60583470
C       -0.79540959      -0.72417515      -0.09270179
O        0.19459194       0.27024669       0.09281120
C        1.37984666       0.00898421      -0.59349379
C        2.32356792       1.46123113      -0.73997553
C        2.85402647       0.87261919       0.21552713
H       -1.80073012       1.59136605       0.07959102
H       -2.83626066      -0.98758523       0.48391327
H       -1.83825929      -0.13871094       1.67843791
H       -0.99287281      -0.85210887      -1.16529573
H       -0.46560316      -1.68748001       0.32129815
H        1.21657741      -0.13702966      -1.66674041
H        1.79414246      -0.95721003      -0.25566508
H        3.53693980       0.56493818       0.98000072
15
Frame=7 idx=011302 GeodesicLength=0.2874370486853617 rxn_smarts="[O:1]([C:2]([C:3]([O:4][C:5]([C:6]#[C:7][H:15])([H:13])[H:14])([H:11])[H:12])([H:9])[H:10])[H:8]>>[O:1]([C:2]([C:3]([O:4][C:5]([C:7](=[C:6])[H:15])([H:13])[H:14])([H:11])[H:12])([H:9])[H:10])[H:8]"
O       -2.51711637       0.96940456       0.07160438
C       -2.04756379      -0.24464041       0.60556288
C       -0.80108948      -0.72545199      -0.09966873
O        0.19663165       0.25908656       0.09514731
C        1.38225941      -0.00573918      -0.59149037
C        2.34355944       1.44374138      -0.76426791
C        2.84938066       0.88213842       0.21905856
H       -1.78853991       1.59554118       0.10244457
H       -2.84354336      -0.98015265       0.47491516
H       -1.83819254      -0.15408880       1.67924492
H       -1.00030063      -0.83932906      -1.17359248
H       -0.47843475      -1.69613400       0.30252497
H        1.21343320      -0.15684072      -1.66372491
H        1.79190089      -0.97417663      -0.25567046
H        3.53761559       0.62664134       0.99791211
15
Frame=8 idx=011302 GeodesicLength=0.32783159216082586 rxn_smarts="[O:1]([C:2]([C:3]([O:4][C:5]([C:6]#[C:7][H:15])([H:13])[H:14])([H:11])[H:12])([H:9])[H:10])[H:8]>>[O:1]([C:2]([C:3]([O:4][C:5]([C:7](=[C:6])[H:15])([H:13])[H:14])([H:11])[H:12])([H:9])[H:10])[H:8]"
O       -2.51063788       0.97869219       0.08475535
C       -2.05026725      -0.24515201       0.60436392
C       -0.80699318      -0.72678890      -0.10578530
O        0.19792318       0.24793428       0.09940442
C        1.38439377      -0.01962250      -0.58708480
C        2.36304284       1.42697927      -0.78440078
C        2.84394578       0.89277448       0.22511090
H       -1.77742106       1.59890006       0.12357577
H       -2.85161585      -0.97309432       0.46443773
H       -1.84089611      -0.16909138       1.67916496
H       -1.00651820      -0.82703698      -1.18107778
H       -0.49167957      -1.70440370       0.28523357
H        1.21048093      -0.17464535      -1.65851280
H        1.78921303      -0.99066307      -0.25420499
H        3.54702955       0.68521792       1.00501984
15
Frame=9 idx=011302 GeodesicLength=0.3677875154379207 rxn_smarts="[O:1]([C:2]([C:3]([O:4][C:5]([C:6]#[C:7][H:15])([H:13])[H:14])([H:11])[H:12])([H:9])[H:10])[H:8]>>[O:1]([C:2]([C:3]([O:4][C:5]([C:7](=[C:6])[H:15])([H:13])[H:14])([H:11])[H:12])([H:9])[H:10])[H:8]"
O       -2.50319601       0.98794512       0.09865064
C       -2.05195933      -0.24538529       0.60386568
C       -0.81235230      -0.72807438      -0.11180732
O        0.20001705       0.23643675       0.10314174
C        1.38672237      -0.03394251      -0.58422346
C        2.38450723       1.40830696      -0.80486879
C        2.83951017       0.90158885       0.22931820
H       -1.76525697       1.60198231       0.14473992
H       -2.85877614      -0.96555513       0.45538454
H       -1.84211762      -0.18357747       1.67948291
H       -1.01266541      -0.81478419      -1.18819660
H       -0.50439674      -1.71244372       0.26791818
H        1.20669347      -0.19107728      -1.65490351
H        1.78617376      -1.00837207      -0.25603284
H        3.54709649       0.74695205       1.01753070
15
Frame=10 idx=011302 GeodesicLength=0.40753527215212226 rxn_smarts="[O:1]([C:2]([C:3]([O:4][C:5]([C:6]#[C:7][H:15])([H:13])[H:14])([H:11])[H:12])([H:9])[H:10])[H:8]>>[O:1]([C:2]([C:3]([O:4][C:5]([C:7](=[C:6])[H:15])([H:13])[H:14])([H:11])[H:12])([H:9])[H:10])[H:8]"
O       -2.49532147       0.99699685       0.11249829
C       -2.05340330      -0.24550830       0.60350785
C       -0.81746514      -0.72936371      -0.11755413
O        0.20241272       0.22460523       0.10720390
C        1.38912747      -0.04838793      -0.58152250
C        2.40703746       1.38859908      -0.82422425
C        2.83549913       0.90964683       0.23314210
H       -1.75263509       1.60467671       0.16555270
H       -2.86565727      -0.95776026       0.44667534
H       -1.84327573      -0.19774492       1.67978036
H       -1.01840818      -0.80259775      -1.19489527
H       -0.51701474      -1.72029747       0.25090035
H        1.20253019      -0.20613260      -1.65156935
H        1.78278199      -1.02677712      -0.25938431
H        3.54379198       0.81004535       1.02988891
15
Frame=11 idx=011302 GeodesicLength=0.4471585493459183 rxn_smarts="[O:1]([C:2]([C:3]([O:4][C:5]([C:6]#[C:7][H:15])([H:13])[H:14])([H:11])[H:12])([H:9])[H:10])[H:8]>>[O:1]([C:2]([C:3]([O:4][C:5]([C:7](=[C:6])[H:15])([H:13])[H:14])([H:11])[H:12])([H:9])[H:10])[H:8]"
O       -2.48737167       1.00577820       0.12579803
C       -2.05519639      -0.24566646       0.60280977
C       -0.82255586      -0.73070020      -0.12294185
O        0.20473189       0.21237604       0.11232427
C        1.39154366      -0.06276020      -0.57780982
C        2.42969297       1.36864088      -0.84142677
C        2.83141125       0.91797015       0.23760826
H       -1.73995043       1.60691140       0.18595587
H       -2.87276418      -0.94982858       0.43728947
H       -1.84552061      -0.21189932       1.67969266
H       -1.02344508      -0.79037915      -1.20119438
H       -0.52988473      -1.72804068       0.23425820
H        1.19842858      -0.22002216      -1.64736045
H        1.77912866      -1.04543441      -0.26267370
H        3.54175194       0.87305447       1.03767045
15
Frame=12 idx=011302 GeodesicLength=0.48663915399084307 rxn_smarts="[O:1]([C:2]([C:3]([O:4][C:5]([C:6]#[C:7][H:15])([H:13])[H:14])([H:11])[H:12])([H:9])[H:10])[H:8]>>[O:1]([C:2]([C:3]([O:4][C:5]([C:7](=[C:6])[H:15])([H:13])[H:14])([H:11])[H:12])([H:9])[H:10])[H:8]"
O       -2.47896900       1.01445148       0.13913435
C       -2.05681303      -0.24572825       0.60217023
C       -0.82744399      -0.73202802      -0.12812199
O        0.20730418       0.19975709       0.11783522
C        1.39408737      -0.07732719      -0.57401764
C        2.45326473       1.34771037      -0.85759674
C        2.82753302       0.92602758       0.24185732
H       -1.72677802       1.60881746       0.20628519
H       -2.87968463      -0.94158103       0.42798351
H       -1.84784554      -0.22592373       1.67953382
H       -1.02805015      -0.77808114      -1.20716417
H       -0.54276222      -1.73563914       0.21774308
H        1.19419797      -0.23290241      -1.64317390
H        1.77519213      -1.06468684      -0.26695642
H        3.53676718       0.93713377       1.04448812
15
Frame=13 idx=011302 GeodesicLength=0.5258471453702414 rxn_smarts="[O:1]([C:2]([C:3]([O:4][C:5]([C:6]#[C:7][H:15])([H:13])[H:14])([H:11])[H:12])([H:9])[H:10])[H:8]>>[O:1]([C:2]([C:3]([O:4][C:5]([C:7](=[C:6])[H:15])([H:13])[H:14])([H:11])[H:12])([H:9])[H:10])[H:8]"
O       -2.46926672       1.02341977       0.15345794
C       -2.05743261      -0.24542240       0.60216447
C       -0.83187845      -0.73329926      -0.13332365
O        0.21074396       0.18650458       0.12293974
C        1.39697721      -0.09275156      -0.57144894
C        2.47896985       1.32440543      -0.87393659
C        2.82463414       0.93226500       0.24467935
H       -1.71210281       1.61061062       0.22714110
H       -2.88586436      -0.93252682       0.41978319
H       -1.84877643      -0.23969948       1.67974847
H       -1.03258967      -0.76549304      -1.21291386
H       -0.55548499      -1.74314462       0.20086761
H        1.18956541      -0.24496293      -1.64026182
H        1.77086345      -1.08540183      -0.27395042
H        3.52164202       1.00549654       1.05505338
15
Frame=14 idx=011302 GeodesicLength=0.5649900538663443 rxn_smarts="[O:1]([C:2]([C:3]([O:4][C:5]([C:6]#[C:7][H:15])([H:13])[H:14])([H:11])[H:12])([H:9])[H:10])[H:8]>>[O:1]([C:2]([C:3]([O:4][C:5]([C:7](=[C:6])[H:15])([H:13])[H:14])([H:11])[H:12])([H:9])[H:10])[H:8]"
O       -2.45984844       1.03195825       0.16704987
C       -2.05870650      -0.24531096       0.60156858
C       -0.83634677      -0.73455872      -0.13816524
O        0.21382387       0.17302429       0.12933657
C        1.39987143      -0.10779983      -0.56722158
C        2.50436955       1.30141550      -0.88789178
C        2.82099876       0.94018214       0.24869425
H       -1.69784167       1.61187453       0.24772414
H       -2.89243167      -0.92355458       0.41034869
H       -1.85137261      -0.25372658       1.67938104
H       -1.03621638      -0.75278440      -1.21830192
H       -0.56845420      -1.75045143       0.18435429
H        1.18539508      -0.25604155      -1.63581467
H        1.76640631      -1.10576491      -0.27978743
H        3.51035324       1.07153826       1.05872520
15
Frame=15 idx=011302 GeodesicLength=0.6040457761684769 rxn_smarts="[O:1]([C:2]([C:3]([O:4][C:5]([C:6]#[C:7][H:15])([H:13])[H:14])([H:11])[H:12])([H:9])[H:10])[H:8]>>[O:1]([C:2]([C:3]([O:4][C:5]([C:7](=[C:6])[H:15])([H:13])[H:14])([H:11])[H:12])([H:9])[H:10])[H:8]"
O       -2.44930637       1.04081933       0.18150257
C       -2.05942965      -0.24495129       0.60122015
C       -0.84055257      -0.73573568      -0.14308230
O        0.21748403       0.15882544       0.13583553
C        1.40312303      -0.12366967      -0.56324651
C        2.53134511       1.27640327      -0.90142096
C        2.81775082       0.94742119       0.25199176
H       -1.68226498       1.61297758       0.26922453
H       -2.89867162      -0.91375689       0.40108744
H       -1.85345337      -0.26798405       1.67907103
H       -1.03955648      -0.73946611      -1.22359072
H       -0.58162317      -1.75771047       0.16725078
H        1.18133069      -0.26681096      -1.63166826
H        1.76166356      -1.12726430      -0.28680383
H        3.49216097       1.14090261       1.06262882
15
Frame=16 idx=011302 GeodesicLength=0.6430122566183973 rxn_smarts="[O:1]([C:2]([C:3]([O:4][C:5]([C:6]#[C:7][H:15])([H:13])[H:14])([H:11])[H:12])([H:9])[H:10])[H:8]>>[O:1]([C:2]([C:3]([O:4][C:5]([C:7](=[C:6])[H:15])([H:13])[H:14])([H:11])[H:12])([H:9])[H:10])[H:8]"
O       -2.43819128       1.04965456       0.19619486
C       -2.05999553      -0.24449841       0.60085008
C       -0.84454859      -0.73683759      -0.14787641
O        0.22137779       0.14414112       0.14283025
C        1.40661110      -0.13984868      -0.55885797
C        2.55933208       1.25022899      -0.91365464
C        2.81437963       0.95497350       0.25531839
H       -1.66607606       1.61374499       0.29106765
H       -2.90475087      -0.90350721       0.39160789
H       -1.85575233      -0.28236908       1.67860341
H       -1.04232776      -0.72578286      -1.22862455
H       -0.59490140      -1.76479366       0.14999513
H        1.17752202      -0.27680142      -1.62718879
H        1.75666641      -1.14927362      -0.29430346
H        3.47065479       1.21096936       1.06403815
