11
Frame=0 idx=002065 GeodesicLength=0.0 rxn_smarts="[C:1]([c:2]1[c:3]([H:10])[o:4][c:5]([H:11])[n:6]1)([H:7])([H:8])[H:9]>>[C:1]([n+:6]1[c-:2][c:3]([H:10])[o:4][c:5]1[H:11])([H:7])([H:8])[H:9]"
C       -1.45812948      -0.67954938      -0.23448889
C       -0.21397977       0.33060801       0.96315977
C        0.67051296       1.33839560       0.70525915
O        1.69541745       0.89208358      -0.09708915
C        1.38934748      -0.34249006      -0.42084819
N        0.30975472      -0.76497486       0.19386951
H       -1.91114725      -1.30047425       0.52199153
H       -1.29239848      -1.20322772      -1.17329215
H       -1.99446563       0.24809467      -0.39509935
H        0.76287140       2.36115948       1.02717422
H        2.04221655      -0.87962510      -1.09063643
11
Frame=1 idx=002065 GeodesicLength=0.020888158299668665 rxn_smarts="[C:1]([c:2]1[c:3]([H:10])[o:4][c:5]([H:11])[n:6]1)([H:7])([H:8])[H:9]>>[C:1]([n+:6]1[c-:2][c:3]([H:10])[o:4][c:5]1[H:11])([H:7])([H:8])[H:9]"
C       -1.45562213      -0.67501387      -0.23106798
C       -0.21134097       0.32665783       0.96022023
C        0.67218924       1.33495912       0.70662493
O        1.70918092       0.88511238      -0.07942815
C        1.39550520      -0.34440022      -0.41662440
N        0.31425708      -0.76628477       0.19319864
H       -1.91002677      -1.30298657       0.51979464
H       -1.29940225      -1.19296321      -1.17495872
H       -2.00314556       0.24697773      -0.38911734
H        0.74784789       2.36503408       1.00878090
H        2.04055736      -0.87709252      -1.09742276
11
Frame=2 idx=002065 GeodesicLength=0.041552343223100405 rxn_smarts="[C:1]([c:2]1[c:3]([H:10])[o:4][c:5]([H:11])[n:6]1)([H:7])([H:8])[H:9]>>[C:1]([n+:6]1[c-:2][c:3]([H:10])[o:4][c:5]1[H:11])([H:7])([H:8])[H:9]"
C       -1.45326708      -0.67078455      -0.22787319
C       -0.20925978       0.32350195       0.95665707
C        0.67463313       1.33159359       0.70904711
O        1.72179687       0.87883044      -0.06318377
C        1.40151935      -0.34613104      -0.41227360
N        0.31857124      -0.76723994       0.19272518
H       -1.90908254      -1.30535278       0.51767500
H       -1.30626082      -1.18366734      -1.17631727
H       -2.01205706       0.24525231      -0.38402144
H        0.73452679       2.36827582       0.99141125
H        2.03887991      -0.87427844      -1.10384633
11
Frame=3 idx=002065 GeodesicLength=0.062139742882721796 rxn_smarts="[C:1]([c:2]1[c:3]([H:10])[o:4][c:5]([H:11])[n:6]1)([H:7])([H:8])[H:9]>>[C:1]([n+:6]1[c-:2][c:3]([H:10])[o:4][c:5]1[H:11])([H:7])([H:8])[H:9]"
C       -1.45071493      -0.66669870      -0.22487900
C       -0.20745146       0.32081447       0.95289489
C        0.67673752       1.32858136       0.71101013
O        1.73280978       0.87334038      -0.04888767
C        1.40760799      -0.34808147      -0.40717351
N        0.32284746      -0.76806825       0.19284706
H       -1.90818583      -1.30730227       0.51551931
H       -1.31261728      -1.17512113      -1.17732780
H       -2.02055396       0.24315569      -0.37987180
H        0.72299074       2.37051782       0.97591804
H        2.03652998      -0.87113791      -1.11004964
11
Frame=4 idx=002065 GeodesicLength=0.08252757226474486 rxn_smarts="[C:1]([c:2]1[c:3]([H:10])[o:4][c:5]([H:11])[n:6]1)([H:7])([H:8])[H:9]>>[C:1]([n+:6]1[c-:2][c:3]([H:10])[o:4][c:5]1[H:11])([H:7])([H:8])[H:9]"
C       -1.44864041      -0.66305045      -0.22203153
C       -0.20618737       0.31907630       0.94799746
C        0.67841900       1.32644527       0.71189207
O        1.74247672       0.86904713      -0.03694906
C        1.41305867      -0.34931342      -0.40322054
N        0.32684264      -0.76826560       0.19244783
H       -1.90733714      -1.30926399       0.51382006
H       -1.31946913      -1.16780687      -1.17798311
H       -2.02980030       0.24021161      -0.37639971
H        0.71462075       2.37177608       0.96435656
H        2.03601657      -0.86885608      -1.11393005
11
Frame=5 idx=002065 GeodesicLength=0.1027982536548191 rxn_smarts="[C:1]([c:2]1[c:3]([H:10])[o:4][c:5]([H:11])[n:6]1)([H:7])([H:8])[H:9]>>[C:1]([n+:6]1[c-:2][c:3]([H:10])[o:4][c:5]1[H:11])([H:7])([H:8])[H:9]"
C       -1.44667437      -0.65954713      -0.21929579
C       -0.20509840       0.31768678       0.94274481
C        0.67965930       1.32474124       0.71194710
O        1.75118496       0.86542114      -0.02645361
C        1.41833144      -0.35040323      -0.39948715
N        0.33074891      -0.76827589       0.19199648
H       -1.90652008      -1.31110449       0.51223146
H       -1.32640477      -1.16104187      -1.17842571
H       -2.03911267       0.23693388      -0.37329204
H        0.70777335       2.37252033       0.95488260
H        2.03611233      -0.86693076      -1.11684816
11
Frame=6 idx=002065 GeodesicLength=0.12299425631162778 rxn_smarts="[C:1]([c:2]1[c:3]([H:10])[o:4][c:5]([H:11])[n:6]1)([H:7])([H:8])[H:9]>>[C:1]([n+:6]1[c-:2][c:3]([H:10])[o:4][c:5]1[H:11])([H:7])([H:8])[H:9]"
C       -1.44479583      -0.65624455      -0.21670371
C       -0.20427802       0.31677816       0.93705164
C        0.68075881       1.32339534       0.71161911
O        1.75936245       0.86218157      -0.01674829
C        1.42346746      -0.35138852      -0.39578020
N        0.33455518      -0.76806885       0.19163738
H       -1.90576776      -1.31277468       0.51079207
H       -1.33329746      -1.15505526      -1.17860352
H       -2.04845851       0.23322181      -0.37079500
H        0.70226572       2.37298723       0.94703128
H        2.03618796      -0.86503225      -1.11950076
11
Frame=7 idx=002065 GeodesicLength=0.14311793472807885 rxn_smarts="[C:1]([c:2]1[c:3]([H:10])[o:4][c:5]([H:11])[n:6]1)([H:7])([H:8])[H:9]>>[C:1]([n+:6]1[c-:2][c:3]([H:10])[o:4][c:5]1[H:11])([H:7])([H:8])[H:9]"
C       -1.44298183      -0.65297586      -0.21419026
C       -0.20350111       0.31598141       0.93122072
C        0.68172324       1.32219143       0.71100933
O        1.76706940       0.85923097      -0.00766000
C        1.42851418      -0.35230813      -0.39218493
N        0.33831391      -0.76779108       0.19122483
H       -1.90503523      -1.31434893       0.50937343
H       -1.34026960      -1.14932126      -1.17865897
H       -2.05776801       0.22935115      -0.36842431
H        0.69736780       2.37325371       0.94000286
H        2.03656724      -0.86326342      -1.12171270
11
Frame=8 idx=002065 GeodesicLength=0.1631911636037479 rxn_smarts="[C:1]([c:2]1[c:3]([H:10])[o:4][c:5]([H:11])[n:6]1)([H:7])([H:8])[H:9]>>[C:1]([n+:6]1[c-:2][c:3]([H:10])[o:4][c:5]1[H:11])([H:7])([H:8])[H:9]"
C       -1.44119223      -0.64965901      -0.21172201
C       -0.20266218       0.31509989       0.92545720
C        0.68257300       1.32101780       0.71026764
O        1.77451931       0.85637700       0.00118929
C        1.43354618      -0.35323367      -0.38860319
N        0.34206159      -0.76754071       0.19076836
H       -1.90430587      -1.31587211       0.50788633
H       -1.34730910      -1.14357128      -1.17866751
H       -2.06696020       0.22546519      -0.36597145
H        0.69260160       2.37342424       0.93309784
H        2.03712791      -0.86150735      -1.12370249
11
Frame=9 idx=002065 GeodesicLength=0.18325016882958872 rxn_smarts="[C:1]([c:2]1[c:3]([H:10])[o:4][c:5]([H:11])[n:6]1)([H:7])([H:8])[H:9]>>[C:1]([n+:6]1[c-:2][c:3]([H:10])[o:4][c:5]1[H:11])([H:7])([H:8])[H:9]"
C       -1.43937885      -0.64614991      -0.20923818
C       -0.20156541       0.31382482       0.92006135
C        0.68324927       1.31969780       0.70947540
O        1.78182774       0.85350886       0.01002907
C        1.43867125      -0.35425289      -0.38500094
N        0.34585693      -0.76747055       0.19021217
H       -1.90357592      -1.31738430       0.50620609
H       -1.35444645      -1.13735104      -1.17874002
H       -2.07591862       0.22180722      -0.36305160
H        0.68730416       2.37352398       0.92553571
H        2.03797591      -0.85975398      -1.12548904
11
Frame=10 idx=002065 GeodesicLength=0.20331618479707964 rxn_smarts="[C:1]([c:2]1[c:3]([H:10])[o:4][c:5]([H:11])[n:6]1)([H:7])([H:8])[H:9]>>[C:1]([n+:6]1[c-:2][c:3]([H:10])[o:4][c:5]1[H:11])([H:7])([H:8])[H:9]"
C       -1.43734180      -0.64240807      -0.20676165
C       -0.20022837       0.31209384       0.91525503
C        0.68395936       1.31800032       0.70894918
O        1.78896395       0.85041753       0.01928865
C        1.44412285      -0.35568398      -0.38064380
N        0.34978192      -0.76772553       0.18998675
H       -1.90284538      -1.31875233       0.50418296
H       -1.36128905      -1.13062817      -1.17881851
H       -2.08435906       0.21848674      -0.35987924
H        0.68117537       2.37350522       0.91642452
H        2.03806021      -0.85730557      -1.12798387
11
Frame=11 idx=002065 GeodesicLength=0.22335826730507385 rxn_smarts="[C:1]([c:2]1[c:3]([H:10])[o:4][c:5]([H:11])[n:6]1)([H:7])([H:8])[H:9]>>[C:1]([n+:6]1[c-:2][c:3]([H:10])[o:4][c:5]1[H:11])([H:7])([H:8])[H:9]"
C       -1.43558787      -0.63893815      -0.20442363
C       -0.19921787       0.31100054       0.90962526
C        0.68459590       1.31676064       0.70803330
O        1.79566564       0.84786544       0.02748905
C        1.44908359      -0.35662192      -0.37710435
N        0.35349090      -0.76754391       0.18940704
H       -1.90211011      -1.32003434       0.50252506
H       -1.36846318      -1.12485113      -1.17862165
H       -2.09312512       0.21457381      -0.35725526
H        0.67664359       2.37331290       0.90971499
H        2.03902452      -0.85552388      -1.12938981
11
Frame=12 idx=002065 GeodesicLength=0.24329314627537305 rxn_smarts="[C:1]([c:2]1[c:3]([H:10])[o:4][c:5]([H:11])[n:6]1)([H:7])([H:8])[H:9]>>[C:1]([n+:6]1[c-:2][c:3]([H:10])[o:4][c:5]1[H:11])([H:7])([H:8])[H:9]"
C       -1.43390411      -0.63554417      -0.20218541
C       -0.19829634       0.31008633       0.90382989
C        0.68515082       1.31568448       0.70688713
O        1.80200485       0.84561108       0.03508148
C        1.45396704      -0.35750321      -0.37364629
N        0.35716309      -0.76727924       0.18883843
H       -1.90144187      -1.32118038       0.50093312
H       -1.37566626      -1.11949022      -1.17827817
H       -2.10183096       0.21048733      -0.35491035
H        0.67272900       2.37301360       0.90397835
H        2.04012474      -0.85388561      -1.13052818
11
Frame=13 idx=002065 GeodesicLength=0.2631792072198351 rxn_smarts="[C:1]([c:2]1[c:3]([H:10])[o:4][c:5]([H:11])[n:6]1)([H:7])([H:8])[H:9]>>[C:1]([n+:6]1[c-:2][c:3]([H:10])[o:4][c:5]1[H:11])([H:7])([H:8])[H:9]"
C       -1.43226493      -0.63217408      -0.20002172
C       -0.19740370       0.30925100       0.89794011
C        0.68564385       1.31468829       0.70560627
O        1.80807066       0.84354915       0.04227344
C        1.45877805      -0.35834381      -0.37025950
N        0.36080264      -0.76696884       0.18825316
H       -1.90079833      -1.32221921       0.49936822
H       -1.38290022      -1.11436523      -1.17782242
H       -2.11043773       0.20629787      -0.35270628
H        0.66916569       2.37262918       0.89881871
H        2.04134402      -0.85234433      -1.13144999
11
Frame=14 idx=002065 GeodesicLength=0.2830284660432673 rxn_smarts="[C:1]([c:2]1[c:3]([H:10])[o:4][c:5]([H:11])[n:6]1)([H:7])([H:8])[H:9]>>[C:1]([n+:6]1[c-:2][c:3]([H:10])[o:4][c:5]1[H:11])([H:7])([H:8])[H:9]"
C       -1.43069670      -0.62885846      -0.19794600
C       -0.19658751       0.30857747       0.89185767
C        0.68615721       1.31377818       0.70427811
O        1.81396703       0.84162006       0.04921540
C        1.46349376      -0.35911041      -0.36697211
N        0.36438699      -0.76656779       0.18763503
H       -1.90017281      -1.32315659       0.49786786
H       -1.39018169      -1.10956460      -1.17724095
H       -2.11901181       0.20193356      -0.35069149
H        0.66601412       2.37219861       0.89421827
H        2.04263142      -0.85085003      -1.13222179
11
Frame=15 idx=002065 GeodesicLength=0.3028448262094543 rxn_smarts="[C:1]([c:2]1[c:3]([H:10])[o:4][c:5]([H:11])[n:6]1)([H:7])([H:8])[H:9]>>[C:1]([n+:6]1[c-:2][c:3]([H:10])[o:4][c:5]1[H:11])([H:7])([H:8])[H:9]"
C       -1.42918477      -0.62555067      -0.19593873
C       -0.19578814       0.30796300       0.88568443
C        0.68665872       1.31290774       0.70289201
O        1.81970119       0.83979924       0.05594408
C        1.46814502      -0.35982846      -0.36376629
N        0.36793431      -0.76612143       0.18696241
H       -1.89954619      -1.32402809       0.49637769
H       -1.39752506      -1.10491241      -1.17658019
H       -2.12753255       0.19747395      -0.34871594
H        0.66308518       2.37172190       0.88995113
H        2.04405229      -0.84942475      -1.13281062
11
Frame=16 idx=002065 GeodesicLength=0.32264108462407926 rxn_smarts="[C:1]([c:2]1[c:3]([H:10])[o:4][c:5]([H:11])[n:6]1)([H:7])([H:8])[H:9]>>[C:1]([n+:6]1[c-:2][c:3]([H:10])[o:4][c:5]1[H:11])([H:7])([H:8])[H:9]"
C       -1.42772983      -0.62221915      -0.19398393
C       -0.19496676       0.30733969       0.87947054
C        0.68712245       1.31205495       0.70143680
O        1.82527539       0.83807900       0.06246974
C        1.47274172      -0.36049868      -0.36066571
N        0.37145216      -0.76565135       0.18619078
H       -1.89889923      -1.32486412       0.49486718
H       -1.40496063      -1.10028372      -1.17587270
H       -2.13600869       0.19296410      -0.34666213
H        0.66026389       2.37119816       0.88589513
H        2.04570952      -0.84811889      -1.13314572
