9
Frame=0 idx=004629 GeodesicLength=0.0 rxn_smarts="[O:1]=[c:2]1[n:3]([H:7])[c:4]([H:8])[n:5][n:6]1[H:9]>>[O-:1][c:2]1[n+:3]([H:7])[c:4]([H:8])[n:5]([H:9])[n:6]1"
O       -1.58343152       1.72703810      -0.04676883
C       -0.89859876       0.73980200       0.04591533
N        0.52611256       0.74061904       0.04025635
C        0.97517622      -0.51158314       0.06948459
N       -0.01452470      -1.35179381       0.22261197
N       -1.25232937      -0.57659863       0.22010256
H        1.07462543       1.58293886       0.00694874
H        2.01284840      -0.80293415       0.00530506
H       -0.83987828      -1.54748826      -0.56385573
9
Frame=1 idx=004629 GeodesicLength=0.04837726292023033 rxn_smarts="[O:1]=[c:2]1[n:3]([H:7])[c:4]([H:8])[n:5][n:6]1[H:9]>>[O-:1][c:2]1[n+:3]([H:7])[c:4]([H:8])[n:5]([H:9])[n:6]1"
O       -1.58354081       1.72770539      -0.05409082
C       -0.89533915       0.74282603       0.04162649
N        0.52884114       0.74519991       0.03633815
C        0.97791563      -0.50825917       0.06174076
N       -0.01252101      -1.34522446       0.21707344
N       -1.24468948      -0.57375798       0.21292170
H        1.07676696       1.58838736       0.03340171
H        2.01514463      -0.80079461      -0.00167575
H       -0.86257790      -1.57608246      -0.54733568
9
Frame=2 idx=004629 GeodesicLength=0.09672390314795966 rxn_smarts="[O:1]=[c:2]1[n:3]([H:7])[c:4]([H:8])[n:5][n:6]1[H:9]>>[O-:1][c:2]1[n+:3]([H:7])[c:4]([H:8])[n:5]([H:9])[n:6]1"
O       -1.58349468       1.72855137      -0.06074814
C       -0.89197904       0.74594761       0.03732269
N        0.53169163       0.75001556       0.03436115
C        0.98078258      -0.50472840       0.05450347
N       -0.01048113      -1.33873090       0.20989113
N       -1.23708262      -0.57100241       0.20388473
H        1.07863689       1.59335528       0.05826319
H        2.01757032      -0.79838730      -0.00837157
H       -0.88564395      -1.60502081      -0.52910667
9
Frame=3 idx=004629 GeodesicLength=0.14501154178413156 rxn_smarts="[O:1]=[c:2]1[n:3]([H:7])[c:4]([H:8])[n:5][n:6]1[H:9]>>[O-:1][c:2]1[n+:3]([H:7])[c:4]([H:8])[n:5]([H:9])[n:6]1"
O       -1.58333763       1.72965795      -0.06557423
C       -0.88854735       0.74914032       0.03307035
N        0.53461279       0.75496896       0.03369103
C        0.98378279      -0.50103306       0.04764864
N       -0.00843306      -1.33238584       0.20056990
N       -1.22952537      -0.56839750       0.19260842
H        1.08033532       1.59799097       0.08057439
H        2.02024636      -0.79568207      -0.01333967
H       -0.90913386      -1.63425972      -0.50924883
9
Frame=4 idx=004629 GeodesicLength=0.19322267860620906 rxn_smarts="[O:1]=[c:2]1[n:3]([H:7])[c:4]([H:8])[n:5][n:6]1[H:9]>>[O-:1][c:2]1[n+:3]([H:7])[c:4]([H:8])[n:5]([H:9])[n:6]1"
O       -1.58309493       1.73122998      -0.06710289
C       -0.88507654       0.75239010       0.02817818
N        0.53755002       0.75999923       0.03392878
C        0.98691105      -0.49718324       0.04197042
N       -0.00649661      -1.32615791       0.18921627
N       -1.22213513      -0.56593693       0.17807151
H        1.08195158       1.60246985       0.09963614
H        2.02310375      -0.79279931      -0.01628235
H       -0.93271319      -1.66401178      -0.48761604
9
Frame=5 idx=004629 GeodesicLength=0.24134179639907205 rxn_smarts="[O:1]=[c:2]1[n:3]([H:7])[c:4]([H:8])[n:5][n:6]1[H:9]>>[O-:1][c:2]1[n+:3]([H:7])[c:4]([H:8])[n:5]([H:9])[n:6]1"
O       -1.58288651       1.73283236      -0.06657241
C       -0.88154512       0.75568556       0.02459635
N        0.54052008       0.76504362       0.03471386
C        0.99022938      -0.49323250       0.03539434
N       -0.00440931      -1.32024245       0.17400698
N       -1.21461649      -0.56373401       0.16135544
H        1.08361791       1.60688945       0.11549963
H        2.02649477      -0.78948039      -0.01510345
H       -0.95740471      -1.69376164      -0.46389072
9
Frame=6 idx=004629 GeodesicLength=0.28936975339574744 rxn_smarts="[O:1]=[c:2]1[n:3]([H:7])[c:4]([H:8])[n:5][n:6]1[H:9]>>[O-:1][c:2]1[n+:3]([H:7])[c:4]([H:8])[n:5]([H:9])[n:6]1"
O       -1.58260602       1.73491003      -0.06268368
C       -0.87796123       0.75906791       0.01962896
N        0.54348855       0.77014936       0.03634611
C        0.99370494      -0.48910996       0.03084232
N       -0.00247381      -1.31433188       0.15661425
N       -1.20727455      -0.56155171       0.13994648
H        1.08529518       1.61140456       0.12933015
H        2.02988051      -0.78616016      -0.01327232
H       -0.98205356      -1.72437816      -0.43675228
9
Frame=7 idx=004629 GeodesicLength=0.33727676084124664 rxn_smarts="[O:1]=[c:2]1[n:3]([H:7])[c:4]([H:8])[n:5][n:6]1[H:9]>>[O-:1][c:2]1[n+:3]([H:7])[c:4]([H:8])[n:5]([H:9])[n:6]1"
O       -1.58241563       1.73700836      -0.05578775
C       -0.87432589       0.76249473       0.01546975
N        0.54646121       0.77524011       0.03848827
C        0.99740810      -0.48487286       0.02622134
N       -0.00039579      -1.30864374       0.13434202
N       -1.19978354      -0.55952050       0.11434216
H        1.08710919       1.61607463       0.14005944
H        2.03364471      -0.78256816      -0.00751250
H       -1.00770238      -1.75521257      -0.40562273
9
Frame=8 idx=004629 GeodesicLength=0.3849996300397077 rxn_smarts="[O:1]=[c:2]1[n:3]([H:7])[c:4]([H:8])[n:5][n:6]1[H:9]>>[O-:1][c:2]1[n+:3]([H:7])[c:4]([H:8])[n:5]([H:9])[n:6]1"
O       -1.58240882       1.73902338      -0.04465099
C       -0.87067009       0.76592353       0.01259398
N        0.54941651       0.78027552       0.04106953
C        1.00137277      -0.48053449       0.02187681
N        0.00189097      -1.30314984       0.10531591
N       -1.19206461      -0.55759645       0.08280333
H        1.08915407       1.62103914       0.14647965
H        2.03769062      -0.77880855       0.00358651
H       -1.03438142      -1.78617225      -0.36907473
9
Frame=9 idx=004629 GeodesicLength=0.4323515463886299 rxn_smarts="[O:1]=[c:2]1[n:3]([H:7])[c:4]([H:8])[n:5][n:6]1[H:9]>>[O-:1][c:2]1[n+:3]([H:7])[c:4]([H:8])[n:5]([H:9])[n:6]1"
O       -1.58276316       1.74104386      -0.02348512
C       -0.86700995       0.76937064       0.00871149
N        0.55234488       0.78526771       0.04293402
C        1.00553596      -0.47615421       0.01871718
N        0.00434208      -1.29752359       0.06760528
N       -1.18410220      -0.55543784       0.03955434
H        1.09152651       1.62644541       0.14645617
H        2.04163474      -0.77528821       0.02298302
H       -1.06150886      -1.81772377      -0.32347638
9
Frame=10 idx=004629 GeodesicLength=0.4783678073565478 rxn_smarts="[O:1]=[c:2]1[n:3]([H:7])[c:4]([H:8])[n:5][n:6]1[H:9]>>[O-:1][c:2]1[n+:3]([H:7])[c:4]([H:8])[n:5]([H:9])[n:6]1"
O       -1.58369121       1.74152794       0.00679170
C       -0.86350326       0.77235493       0.00706130
N        0.55512298       0.79000434       0.04479998
C        1.00968752      -0.47196878       0.01818973
N        0.00738288      -1.29153900       0.01649060
N       -1.17520865      -0.55262879      -0.02054490
H        1.09405932       1.63211037       0.13989395
H        2.04470491      -0.77256603       0.05050998
H       -1.08855448      -1.84729497      -0.26319235
9
Frame=11 idx=004629 GeodesicLength=0.5207150119135896 rxn_smarts="[O:1]=[c:2]1[n:3]([H:7])[c:4]([H:8])[n:5][n:6]1[H:9]>>[O-:1][c:2]1[n+:3]([H:7])[c:4]([H:8])[n:5]([H:9])[n:6]1"
O       -1.58609181       1.73822547       0.04347750
C       -0.86069510       0.77333383       0.00585210
N        0.55742693       0.79371553       0.04563128
C        1.01322374      -0.46907569       0.01937683
N        0.01174480      -1.28521534      -0.05225607
N       -1.16467074      -0.54898480      -0.09644642
H        1.09574482       1.63695952       0.13234833
H        2.04587468      -0.77204086       0.08448488
H       -1.11255732      -1.86691766      -0.18246843
9
Frame=12 idx=004629 GeodesicLength=0.5620986625499661 rxn_smarts="[O:1]=[c:2]1[n:3]([H:7])[c:4]([H:8])[n:5][n:6]1[H:9]>>[O-:1][c:2]1[n+:3]([H:7])[c:4]([H:8])[n:5]([H:9])[n:6]1"
O       -1.59063374       1.72845755       0.09211561
C       -0.85938204       0.77057529       0.00920216
N        0.55829444       0.79485215       0.05197739
C        1.01437237      -0.46920234       0.02645624
N        0.01732339      -1.27821493      -0.13136207
N       -1.15276017      -0.54450684      -0.17885658
H        1.09665975       1.64088990       0.10102657
H        2.04227627      -0.77604971       0.13231949
H       -1.12615027      -1.86680107      -0.10287880
9
Frame=13 idx=004629 GeodesicLength=0.6080705173225838 rxn_smarts="[O:1]=[c:2]1[n:3]([H:7])[c:4]([H:8])[n:5][n:6]1[H:9]>>[O-:1][c:2]1[n+:3]([H:7])[c:4]([H:8])[n:5]([H:9])[n:6]1"
O       -1.59586353       1.71644511       0.12093683
C       -0.85894659       0.76658229       0.00012590
N        0.55829145       0.79455179       0.04963725
C        1.01440918      -0.47085870       0.01952572
N        0.02214140      -1.27180065      -0.19946164
N       -1.14243842      -0.54181988      -0.24278129
H        1.09501922       1.64071509       0.10793676
H        2.03635513      -0.78257558       0.16128615
H       -1.12896784      -1.85123948      -0.01720567
9
Frame=14 idx=004629 GeodesicLength=0.6571311217610776 rxn_smarts="[O:1]=[c:2]1[n:3]([H:7])[c:4]([H:8])[n:5][n:6]1[H:9]>>[O-:1][c:2]1[n+:3]([H:7])[c:4]([H:8])[n:5]([H:9])[n:6]1"
O       -1.60122403       1.70229209       0.14939563
C       -0.85877261       0.76228235      -0.01020876
N        0.55799268       0.79365255       0.04419654
C        1.01369034      -0.47333740       0.01323238
N        0.02605881      -1.26622489      -0.25313193
N       -1.13302597      -0.54019748      -0.29401999
H        1.09307174       1.63988182       0.11152477
H        2.02855745      -0.79020541       0.18864533
H       -1.12634840      -1.82814364       0.05036604
9
Frame=15 idx=004629 GeodesicLength=0.7069556944128554 rxn_smarts="[O:1]=[c:2]1[n:3]([H:7])[c:4]([H:8])[n:5][n:6]1[H:9]>>[O-:1][c:2]1[n+:3]([H:7])[c:4]([H:8])[n:5]([H:9])[n:6]1"
O       -1.60626090       1.68797904       0.17496893
C       -0.85878536       0.75800323      -0.01836525
N        0.55766632       0.79276812       0.03828796
C        1.01276405      -0.47596884       0.00773413
N        0.02947522      -1.26094636      -0.29757525
N       -1.12453122      -0.53928143      -0.33428938
H        1.09131911       1.63915319       0.11144034
H        2.01981626      -0.79819519       0.21445926
H       -1.12146350      -1.80351176       0.10333926
9
Frame=16 idx=004629 GeodesicLength=0.7569057164191215 rxn_smarts="[O:1]=[c:2]1[n:3]([H:7])[c:4]([H:8])[n:5][n:6]1[H:9]>>[O-:1][c:2]1[n+:3]([H:7])[c:4]([H:8])[n:5]([H:9])[n:6]1"
O       -1.61083829       1.67355912       0.19852563
C       -0.85880123       0.75394689      -0.02580368
N        0.55738609       0.79201119       0.03196185
C        1.01179164      -0.47852329       0.00244576
N        0.03258702      -1.25574968      -0.33605496
N       -1.11667097      -0.53885153      -0.36743580
H        1.08972905       1.63851884       0.11001282
H        2.01031489      -0.80622377       0.23886241
H       -1.11549820      -1.77868777       0.14748597
