13
Frame=0 idx=009683 GeodesicLength=0.0 rxn_smarts="[C:1]([c:2]1[n:3][c:4]([H:11])[c:5]([O:6][H:12])[n:7]1[H:13])([H:8])([H:9])[H:10]>>[C:1]([C:2]#[N:3])([H:8])([H:9])[H:10].[C:4]1([H:11])=[C:5]([O:6][H:12])[N:7]1[H:13]"
C        2.30737833      -0.06487877      -0.32971720
C        1.34305115      -0.98670593      -0.90839105
N        0.57155937      -1.71080036      -1.35463139
C       -1.01991819       0.76976101      -0.70817001
C       -1.55219927       0.52336176       0.59812103
O       -2.86492804       0.42078076       0.89238248
N       -0.62213421       0.31182212       1.44238315
H        3.23107498      -0.59090477      -0.09116548
H        1.87198034       0.36255750       0.57387438
H        2.51498016       0.73630174      -1.03769642
H       -1.42293610       0.01711686      -1.40640281
H       -3.39721211       0.43985750       0.09097884
H       -0.96069636      -0.22826948       2.23843444
13
Frame=1 idx=009683 GeodesicLength=0.15200269159943597 rxn_smarts="[C:1]([c:2]1[n:3][c:4]([H:11])[c:5]([O:6][H:12])[n:7]1[H:13])([H:8])([H:9])[H:10]>>[C:1]([C:2]#[N:3])([H:8])([H:9])[H:10].[C:4]1([H:11])=[C:5]([O:6][H:12])[N:7]1[H:13]"
C        2.33756312      -0.06268752      -0.29256051
C        1.32866839      -0.94574179      -0.85633873
N        0.57484176      -1.66454156      -1.34961639
C       -1.07144005       0.67984788      -0.76461661
C       -1.57376793       0.53017254       0.55831398
O       -2.87331685       0.48040988       0.91310049
N       -0.60340645       0.29377665       1.35936018
H        3.28018916      -0.59625684      -0.17731899
H        1.98071298       0.28791046       0.67628306
H        2.47778546       0.79568026      -0.94869293
H       -1.50406421      -0.08011802      -1.43329656
H       -3.43899887       0.50583377       0.13517634
H       -0.91476652      -0.22428572       2.18020667
13
Frame=2 idx=009683 GeodesicLength=0.29377502219277385 rxn_smarts="[C:1]([c:2]1[n:3][c:4]([H:11])[c:5]([O:6][H:12])[n:7]1[H:13])([H:8])([H:9])[H:10]>>[C:1]([C:2]#[N:3])([H:8])([H:9])[H:10].[C:4]1([H:11])=[C:5]([O:6][H:12])[N:7]1[H:13]"
C        2.35782338      -0.05852493      -0.25832261
C        1.31428219      -0.90834485      -0.81144839
N        0.57903538      -1.62077683      -1.35006773
C       -1.11594692       0.58703683      -0.81126285
C       -1.58811045       0.53480203       0.52080211
O       -2.87169686       0.54269860       0.92890263
N       -0.58502458       0.27388680       1.28362339
H        3.30959432      -0.58796589      -0.25443160
H        2.07143854       0.21399941       0.75796704
H        2.44132836       0.84976456      -0.85474958
H       -1.57477328      -0.17970647      -1.45071996
H       -3.46613139       0.57449377       0.17306004
H       -0.87181868      -0.22136304       2.12664752
13
Frame=3 idx=009683 GeodesicLength=0.42976745741073225 rxn_smarts="[C:1]([c:2]1[n:3][c:4]([H:11])[c:5]([O:6][H:12])[n:7]1[H:13])([H:8])([H:9])[H:10]>>[C:1]([C:2]#[N:3])([H:8])([H:9])[H:10].[C:4]1([H:11])=[C:5]([O:6][H:12])[N:7]1[H:13]"
C        2.36966083      -0.05193719      -0.22765299
C        1.29996477      -0.87661157      -0.77069820
N        0.58331787      -1.58122311      -1.35252806
C       -1.15284810       0.49236244      -0.84741102
C       -1.59600923       0.53753269       0.48581682
O       -2.86140505       0.60929731       0.93860096
N       -0.56808396       0.24903682       1.21634932
H        3.32529701      -0.56470269      -0.32623240
H        2.14879870       0.14263556       0.82244250
H        2.40061627       0.89890040      -0.75998905
H       -1.63485435      -0.27981590      -1.45919087
H       -3.47959995       0.64848619       0.20251881
H       -0.83485481      -0.22396094       2.07797420
13
Frame=4 idx=009683 GeodesicLength=0.5630824390947734 rxn_smarts="[C:1]([c:2]1[n:3][c:4]([H:11])[c:5]([O:6][H:12])[n:7]1[H:13])([H:8])([H:9])[H:10]>>[C:1]([C:2]#[N:3])([H:8])([H:9])[H:10].[C:4]1([H:11])=[C:5]([O:6][H:12])[N:7]1[H:13]"
C        2.37566139      -0.04390103      -0.19967775
C        1.28499144      -0.84763374      -0.73457748
N        0.58692471      -1.54352437      -1.35716496
C       -1.18550958       0.39688009      -0.87448195
C       -1.59933434       0.53914379       0.45253546
O       -2.84403138       0.67808506       0.94257305
N       -0.55259560       0.22179790       1.15606974
H        3.33012444      -0.53080226      -0.39340824
H        2.21721384       0.07284302       0.87306961
H        2.35868740       0.94293014      -0.66342127
H       -1.68743125      -0.38049949      -1.45947178
H       -3.48226404       0.72433176       0.22431522
H       -0.80243703      -0.22965087       2.03364034
13
Frame=5 idx=009683 GeodesicLength=0.6948786708445309 rxn_smarts="[C:1]([c:2]1[n:3][c:4]([H:11])[c:5]([O:6][H:12])[n:7]1[H:13])([H:8])([H:9])[H:10]>>[C:1]([C:2]#[N:3])([H:8])([H:9])[H:10].[C:4]1([H:11])=[C:5]([O:6][H:12])[N:7]1[H:13]"
C        2.37672902      -0.03460583      -0.17429362
C        1.26921620      -0.82160040      -0.70187917
N        0.58924240      -1.50736019      -1.36321123
C       -1.21434306       0.30155664      -0.89271470
C       -1.59860251       0.53980421       0.42077449
O       -2.82023123       0.74856978       0.94055341
N       -0.53862896       0.19207027       1.10275669
H        3.32585019      -0.48692673      -0.45698306
H        2.27928072       0.00497762       0.91134360
H        2.31472481       0.98165059      -0.56583759
H       -1.73314148      -0.48062449      -1.45230112
H       -3.47518384       0.80147019       0.23809768
H       -0.77491226      -0.23898167       1.99369461
13
Frame=6 idx=009683 GeodesicLength=0.8260222727142408 rxn_smarts="[C:1]([c:2]1[n:3][c:4]([H:11])[c:5]([O:6][H:12])[n:7]1[H:13])([H:8])([H:9])[H:10]>>[C:1]([C:2]#[N:3])([H:8])([H:9])[H:10].[C:4]1([H:11])=[C:5]([O:6][H:12])[N:7]1[H:13]"
C        2.37448876      -0.02511918      -0.15070093
C        1.25215904      -0.79620934      -0.67310985
N        0.58963859      -1.47035602      -1.37139489
C       -1.24140018       0.20725022      -0.90313381
C       -1.59525267       0.53983131       0.38982292
O       -2.79147897       0.81856695       0.93292950
N       -0.52578999       0.16288331       1.05496716
H        3.31366116      -0.43623928      -0.51682431
H        2.33712975      -0.06282667       0.93877811
H        2.27193273       1.01458512      -0.46564868
H       -1.77376165      -0.58010256      -1.43833368
H       -3.46106575       0.87597711       0.24488970
H       -0.75026082      -0.24824099       1.95775877
13
Frame=7 idx=009683 GeodesicLength=0.9567504100668004 rxn_smarts="[C:1]([c:2]1[n:3][c:4]([H:11])[c:5]([O:6][H:12])[n:7]1[H:13])([H:8])([H:9])[H:10]>>[C:1]([C:2]#[N:3])([H:8])([H:9])[H:10].[C:4]1([H:11])=[C:5]([O:6][H:12])[N:7]1[H:13]"
C        2.36832951      -0.01508252      -0.12952575
C        1.23413952      -0.77533055      -0.64488823
N        0.58743684      -1.43474868      -1.37916681
C       -1.26420541       0.11586164      -0.90535554
C       -1.58869496       0.53873130       0.36035634
O       -2.75796939       0.88726170       0.91934535
N       -0.51413651       0.13207950       1.01412962
H        3.29365155      -0.37661916      -0.57444997
H        2.39268035      -0.12771318       0.95517765
H        2.22571229       1.04099861      -0.36570253
H       -1.80764694      -0.67484378      -1.42007439
H       -3.43925324       0.94988281       0.24347720
H       -0.73004361      -0.26047768       1.92667704
13
Frame=8 idx=009683 GeodesicLength=1.0874232715446341 rxn_smarts="[C:1]([c:2]1[n:3][c:4]([H:11])[c:5]([O:6][H:12])[n:7]1[H:13])([H:8])([H:9])[H:10]>>[C:1]([C:2]#[N:3])([H:8])([H:9])[H:10].[C:4]1([H:11])=[C:5]([O:6][H:12])[N:7]1[H:13]"
C        2.35984686      -0.00551690      -0.10994947
C        1.21490705      -0.75643118      -0.61820618
N        0.58236564      -1.39825191      -1.38736309
C       -1.28473264       0.02784893      -0.90070107
C       -1.58057727       0.53665638       0.33176029
O       -2.72137617       0.95333254       0.90063865
N       -0.50320692       0.10284871       0.97847367
H        3.26646144      -0.31165168      -0.62862730
H        2.44700733      -0.19137492       0.96141992
H        2.18065876       1.06043875      -0.26440263
H       -1.83652714      -0.76513706      -1.39861298
H       -3.41301510       1.01869452       0.23576823
H       -0.71181182      -0.27145618       1.89980195
13
Frame=9 idx=009683 GeodesicLength=1.2179688868205552 rxn_smarts="[C:1]([c:2]1[n:3][c:4]([H:11])[c:5]([O:6][H:12])[n:7]1[H:13])([H:8])([H:9])[H:10]>>[C:1]([C:2]#[N:3])([H:8])([H:9])[H:10].[C:4]1([H:11])=[C:5]([O:6][H:12])[N:7]1[H:13]"
C        2.34990974       0.00296238      -0.09165477
C        1.19460404      -0.73830852      -0.59350571
N        0.57439531      -1.35955569      -1.39639025
C       -1.30364283      -0.05666483      -0.88980891
C       -1.57200614       0.53349502       0.30389940
O       -2.68307137       1.01603046       0.87734437
N       -0.49258047       0.07676244       0.94699757
H        3.23311413      -0.24326926      -0.67804726
H        2.49982657      -0.25450486       0.95771929
H        2.13905904       1.07232813      -0.16151886
H       -1.86104402      -0.85103970      -1.37486376
H       -3.38467337       1.08060344       0.22305461
H       -0.69389062      -0.27883902       1.87677429
13
Frame=10 idx=009683 GeodesicLength=1.348591656004317 rxn_smarts="[C:1]([c:2]1[n:3][c:4]([H:11])[c:5]([O:6][H:12])[n:7]1[H:13])([H:8])([H:9])[H:10]>>[C:1]([C:2]#[N:3])([H:8])([H:9])[H:10].[C:4]1([H:11])=[C:5]([O:6][H:12])[N:7]1[H:13]"
C        2.33848458       0.01051380      -0.07474398
C        1.17355409      -0.72282877      -0.56907641
N        0.56344059      -1.31995645      -1.40467918
C       -1.32005761      -0.13729559      -0.87298536
C       -1.56301087       0.52898775       0.27713532
O       -2.64348333       1.07520205       0.84967708
N       -0.48227837       0.05281621       0.92000402
H        3.19336717      -0.17061729      -0.72340482
H        2.55252854      -0.31558444       0.94396150
H        2.09942986       1.07639220      -0.05803672
H       -1.88091482      -0.93095765      -1.35088109
H       -3.35431970       1.13717840       0.20532075
H       -0.67674014      -0.28385021       1.85770891
13
Frame=11 idx=009683 GeodesicLength=1.4793221873944764 rxn_smarts="[C:1]([c:2]1[n:3][c:4]([H:11])[c:5]([O:6][H:12])[n:7]1[H:13])([H:8])([H:9])[H:10]>>[C:1]([C:2]#[N:3])([H:8])([H:9])[H:10].[C:4]1([H:11])=[C:5]([O:6][H:12])[N:7]1[H:13]"
C        2.32572064       0.01714978      -0.05916882
C        1.15206294      -0.71071402      -0.54423493
N        0.54962474      -1.28004620      -1.41141861
C       -1.33384776      -0.21416150      -0.85063259
C       -1.55380883       0.52294614       0.25170561
O       -2.60293974       1.13084838       0.81804415
N       -0.47218953       0.03063135       0.89736981
H        3.14711294      -0.09395649      -0.76431960
H        2.60550674      -0.37331250       0.92019599
H        2.06170952       1.07240964       0.04529204
H       -1.89646562      -1.00407715      -1.32839044
H       -3.32231240       1.18907609       0.18302447
H       -0.66017363      -0.28679353       1.84253292
13
Frame=12 idx=009683 GeodesicLength=1.6098019268041333 rxn_smarts="[C:1]([c:2]1[n:3][c:4]([H:11])[c:5]([O:6][H:12])[n:7]1[H:13])([H:8])([H:9])[H:10]>>[C:1]([C:2]#[N:3])([H:8])([H:9])[H:10].[C:4]1([H:11])=[C:5]([O:6][H:12])[N:7]1[H:13]"
C        2.31391956       0.02087393      -0.04375520
C        1.12977757      -0.69702519      -0.52209940
N        0.53282775      -1.23390728      -1.42033705
C       -1.34761207      -0.28887638      -0.82278342
C       -1.54689617       0.51610688       0.22648930
O       -2.56458555       1.18226610       0.78229300
N       -0.46149135       0.01564592       0.87631677
H        3.09742344      -0.01719989      -0.79798482
H        2.65712254      -0.43330884       0.88679207
H        2.03296000       1.05905848       0.15188459
H       -1.90904710      -1.07428470      -1.30520049
H       -3.29435867       1.23046291       0.15851997
H       -0.64003996      -0.27981193       1.82986468
13
Frame=13 idx=009683 GeodesicLength=1.7406109513828145 rxn_smarts="[C:1]([c:2]1[n:3][c:4]([H:11])[c:5]([O:6][H:12])[n:7]1[H:13])([H:8])([H:9])[H:10]>>[C:1]([C:2]#[N:3])([H:8])([H:9])[H:10].[C:4]1([H:11])=[C:5]([O:6][H:12])[N:7]1[H:13]"
C        2.29943670       0.02495798      -0.03074330
C        1.10798893      -0.69172070      -0.49607213
N        0.51341622      -1.19316196      -1.42288328
C       -1.35662055      -0.35948670      -0.78963604
C       -1.53852204       0.50661498       0.20431781
O       -2.52453488       1.22893347       0.74442777
N       -0.45099490      -0.00190758       0.86126400
H        3.03938506       0.06405600      -0.82759790
H        2.70929576      -0.48150435       0.84410408
H        2.00132056       1.03813891       0.25239335
H       -1.91711698      -1.13183867      -1.28990757
H       -3.26100030       1.27338240       0.12847482
H       -0.62205358      -0.27646377       1.82185840
13
Frame=14 idx=009683 GeodesicLength=1.8713304472534547 rxn_smarts="[C:1]([c:2]1[n:3][c:4]([H:11])[c:5]([O:6][H:12])[n:7]1[H:13])([H:8])([H:9])[H:10]>>[C:1]([C:2]#[N:3])([H:8])([H:9])[H:10].[C:4]1([H:11])=[C:5]([O:6][H:12])[N:7]1[H:13]"
C        2.28589615       0.02652696      -0.01794082
C        1.08571999      -0.68542715      -0.47201678
N        0.49092379      -1.14696606      -1.42593319
C       -1.36550372      -0.42985312      -0.75011841
C       -1.53276854       0.49517368       0.18305773
O       -2.48684516       1.27167241       0.70244278
N       -0.43967030      -0.01323496       0.84793488
H        2.97775532       0.14543507      -0.84926765
H        2.75979281      -0.53019463       0.79153413
H        1.97849996       1.00765800       0.35501942
H       -1.92244605      -1.18478457      -1.27667990
H       -3.23117290       1.30782695       0.09563600
H       -0.60018134      -0.26383258       1.81633180
13
Frame=15 idx=009683 GeodesicLength=2.002305872576591 rxn_smarts="[C:1]([c:2]1[n:3][c:4]([H:11])[c:5]([O:6][H:12])[n:7]1[H:13])([H:8])([H:9])[H:10]>>[C:1]([C:2]#[N:3])([H:8])([H:9])[H:10].[C:4]1([H:11])=[C:5]([O:6][H:12])[N:7]1[H:13]"
C        2.27164662       0.02725242      -0.00634185
C        1.06338833      -0.68200248      -0.44752992
N        0.46518340      -1.10018444      -1.42591456
C       -1.37275460      -0.50024107      -0.70379867
C       -1.52830981       0.48017578       0.16424064
O       -2.44916131       1.31080680       0.65652634
N       -0.42790128      -0.02298587       0.83825919
H        2.90987455       0.22955559      -0.86397501
H        2.80949079      -0.57332818       0.72832966
H        1.95965296       0.96806187       0.45674140
H       -1.92459503      -1.22916004      -1.26812228
H       -3.19978078       1.33984709       0.05729422
H       -0.57673384      -0.24779746       1.81429084
13
Frame=16 idx=009683 GeodesicLength=2.1338532072420477 rxn_smarts="[C:1]([c:2]1[n:3][c:4]([H:11])[c:5]([O:6][H:12])[n:7]1[H:13])([H:8])([H:9])[H:10]>>[C:1]([C:2]#[N:3])([H:8])([H:9])[H:10].[C:4]1([H:11])=[C:5]([O:6][H:12])[N:7]1[H:13]"
C        2.25678544       0.02704694       0.00427768
C        1.04100985      -0.68067444      -0.42325248
N        0.43611138      -1.05239215      -1.42294395
C       -1.37810752      -0.56899307      -0.65226848
C       -1.52521751       0.46230274       0.14739997
O       -2.41129080       1.34659168       0.60609483
N       -0.41573885      -0.03081055       0.83119190
H        2.83581756       0.31605246      -0.87028844
H        2.85721623      -0.61082993       0.65406916
H        1.94586958       0.91836750       0.55783110
H       -1.92305774      -1.26598926      -1.25997067
H       -3.16735393       1.36845638       0.01361867
H       -0.55204369      -0.22912830       1.81424071
