13
Frame=0 idx=000078 GeodesicLength=0.0 rxn_smarts="[C:1]([C:2]([C:3]([C:4](=[O:5])[H:13])([H:11])[H:12])([H:9])[H:10])([H:6])([H:7])[H:8]>>[C:1]([C@@:2]1([H:10])[C:3]([H:11])([H:12])[C@:4]1([O:5][H:9])[H:13])([H:6])([H:7])[H:8]"
C       -1.73779756      -0.00267817       0.24723225
C       -0.39942855       0.59424439      -0.09883916
C        0.80743099       0.14494114       0.62742568
C        1.69551767      -0.27813271      -0.47237764
O        1.29536416      -0.94545092      -1.51480136
H       -2.51932220       0.35266531      -0.42743557
H       -2.06033290       0.24779145       1.27386354
H       -1.75306918      -1.09593959       0.18474219
H        0.30624068      -0.83427891      -1.46181657
H       -0.38400936       1.64175292      -0.37299304
H        1.33728709       0.92008593       1.19614541
H        0.65209034      -0.69605314       1.32479026
H        2.76002876      -0.04894771      -0.50593601
13
Frame=1 idx=000078 GeodesicLength=0.098159534262051 rxn_smarts="[C:1]([C:2]([C:3]([C:4](=[O:5])[H:13])([H:11])[H:12])([H:9])[H:10])([H:6])([H:7])[H:8]>>[C:1]([C@@:2]1([H:10])[C:3]([H:11])([H:12])[C@:4]1([O:5][H:9])[H:13])([H:6])([H:7])[H:8]"
C       -1.73548383       0.00209275       0.24438395
C       -0.39022419       0.57161965      -0.11893358
C        0.80897800       0.14618848       0.63643748
C        1.69424360      -0.25622910      -0.47442160
O        1.30753734      -0.95433781      -1.50157148
H       -2.52796376       0.42412472      -0.37715691
H       -2.01968645       0.19477506       1.29348567
H       -1.79456928      -1.08364089       0.11591243
H        0.29626957      -0.88149563      -1.42947880
H       -0.37334338       1.61343523      -0.41691317
H        1.32058819       0.93250352       1.20508128
H        0.65819663      -0.69898099       1.32787837
H        2.75545756      -0.01005499      -0.50470365
13
Frame=2 idx=000078 GeodesicLength=0.19623966785659316 rxn_smarts="[C:1]([C:2]([C:3]([C:4](=[O:5])[H:13])([H:11])[H:12])([H:9])[H:10])([H:6])([H:7])[H:8]>>[C:1]([C@@:2]1([H:10])[C:3]([H:11])([H:12])[C@:4]1([O:5][H:9])[H:13])([H:6])([H:7])[H:8]"
C       -1.73287497       0.00628980       0.24128569
C       -0.38121705       0.54875781      -0.13792636
C        0.81064820       0.14849097       0.64500087
C        1.69209563      -0.23586448      -0.47644871
O        1.31913937      -0.96393556      -1.48771425
H       -2.53072880       0.49482966      -0.32213002
H       -1.98109163       0.13572256       1.30801729
H       -1.83847387      -1.06546896       0.04513401
H        0.28700848      -0.92800128      -1.39537798
H       -0.36341320       1.58436319      -0.45957359
H        1.30410338       0.94659332       1.21185105
H        0.66519366      -0.69948671       1.33232463
H        2.74961080       0.02770968      -0.50444263
13
Frame=3 idx=000078 GeodesicLength=0.2942587569395975 rxn_smarts="[C:1]([C:2]([C:3]([C:4](=[O:5])[H:13])([H:11])[H:12])([H:9])[H:10])([H:6])([H:7])[H:8]>>[C:1]([C@@:2]1([H:10])[C:3]([H:11])([H:12])[C@:4]1([O:5][H:9])[H:13])([H:6])([H:7])[H:8]"
C       -1.72998836       0.00988443       0.23785296
C       -0.37240424       0.52573094      -0.15599573
C        0.81240572       0.15210691       0.65311873
C        1.68915468      -0.21701417      -0.47840371
O        1.33021913      -0.97445383      -1.47301298
H       -2.52756394       0.56456650      -0.26125673
H       -1.94444170       0.06952765       1.31697349
H       -1.88471410      -1.04035445      -0.02836236
H        0.27827853      -0.97419795      -1.35907600
H       -0.35428458       1.55454129      -0.50136201
H        1.28776204       0.96267598       1.21635540
H        0.67298063      -0.69721797       1.33826521
H        2.74259619       0.06420466      -0.50509628
13
Frame=4 idx=000078 GeodesicLength=0.3920914550803021 rxn_smarts="[C:1]([C:2]([C:3]([C:4](=[O:5])[H:13])([H:11])[H:12])([H:9])[H:10])([H:6])([H:7])[H:8]>>[C:1]([C@@:2]1([H:10])[C:3]([H:11])([H:12])[C@:4]1([O:5][H:9])[H:13])([H:6])([H:7])[H:8]"
C       -1.72680465       0.01281444       0.23414108
C       -0.36372058       0.50269449      -0.17299256
C        0.81429430       0.15716795       0.66092432
C        1.68540838      -0.19982568      -0.48022564
O        1.34058232      -0.98621063      -1.45720897
H       -2.51792682       0.63220488      -0.19436851
H       -1.91034207      -0.00424410       1.31942306
H       -1.93276777      -1.00712553      -0.10457000
H        0.26967934      -1.02004785      -1.32028796
H       -0.34593810       1.52407924      -0.54220522
H        1.27176336       0.98085784       1.21857551
H        0.68147946      -0.69194756       1.34593143
H        2.73429283       0.09958251      -0.50713655
13
Frame=5 idx=000078 GeodesicLength=0.4901063175211293 rxn_smarts="[C:1]([C:2]([C:3]([C:4](=[O:5])[H:13])([H:11])[H:12])([H:9])[H:10])([H:6])([H:7])[H:8]>>[C:1]([C@@:2]1([H:10])[C:3]([H:11])([H:12])[C@:4]1([O:5][H:9])[H:13])([H:6])([H:7])[H:8]"
C       -1.72344719       0.01488683       0.22953481
C       -0.35529875       0.47924306      -0.18999206
C        0.81588320       0.16388691       0.66801786
C        1.68114246      -0.18389403      -0.48189611
O        1.35096084      -0.99888800      -1.44032036
H       -2.50183998       0.69799075      -0.11801400
H       -1.87731333      -0.08644242       1.31382395
H       -1.98376138      -0.96427353      -0.18332522
H        0.26190712      -1.06656094      -1.27834973
H       -0.33868079       1.49251157      -0.58328290
H        1.25505318       1.00142459       1.21836955
H        0.69023592      -0.68348854       1.35486394
H        2.72515871       0.13360375      -0.50942973
13
Frame=6 idx=000078 GeodesicLength=0.5877938118228649 rxn_smarts="[C:1]([C:2]([C:3]([C:4](=[O:5])[H:13])([H:11])[H:12])([H:9])[H:10])([H:6])([H:7])[H:8]>>[C:1]([C@@:2]1([H:10])[C:3]([H:11])([H:12])[C@:4]1([O:5][H:9])[H:13])([H:6])([H:7])[H:8]"
C       -1.71973475       0.01627772       0.22475306
C       -0.34691389       0.45623418      -0.20581300
C        0.81752822       0.17237121       0.67491417
C        1.67593906      -0.16990487      -0.48333365
O        1.36013313      -1.01315904      -1.42195781
H       -2.47846591       0.75800385      -0.03528600
H       -1.84770720      -0.17653119       1.29892827
H       -2.03467571      -0.91055967      -0.26361580
H        0.25345998      -1.11246054      -1.23329945
H       -0.33228315       1.46075385      -0.62312911
H        1.23890887       1.02428912       1.21570446
H        0.69925940      -0.67146814       1.36577579
H        2.71455195       0.16615352      -0.51364092
13
Frame=7 idx=000078 GeodesicLength=0.6857119449854334 rxn_smarts="[C:1]([C:2]([C:3]([C:4](=[O:5])[H:13])([H:11])[H:12])([H:9])[H:10])([H:6])([H:7])[H:8]>>[C:1]([C@@:2]1([H:10])[C:3]([H:11])([H:12])[C@:4]1([O:5][H:9])[H:13])([H:6])([H:7])[H:8]"
C       -1.71585295       0.01660573       0.21893025
C       -0.33877376       0.43294137      -0.22184148
C        0.81852521       0.18222257       0.68102400
C        1.67019621      -0.15716645      -0.48460047
O        1.36927975      -1.02803338      -1.40261863
H       -2.44757170       0.81126977       0.05571293
H       -1.81983281      -0.27142079       1.27316824
H       -2.08681546      -0.84611200      -0.34173399
H        0.24539809      -1.15778520      -1.18577834
H       -0.32708608       1.42821766      -0.66278152
H        1.22172515       1.04879411       1.21089271
H        0.70769759      -0.65667961       1.37750258
H        2.70311076       0.19714621      -0.51787629
13
Frame=8 idx=000078 GeodesicLength=0.7837945740017359 rxn_smarts="[C:1]([C:2]([C:3]([C:4](=[O:5])[H:13])([H:11])[H:12])([H:9])[H:10])([H:6])([H:7])[H:8]>>[C:1]([C@@:2]1([H:10])[C:3]([H:11])([H:12])[C@:4]1([O:5][H:9])[H:13])([H:6])([H:7])[H:8]"
C       -1.71177899       0.01624193       0.21280558
C       -0.33068140       0.40991859      -0.23734062
C        0.81906959       0.19305335       0.68672688
C        1.66379730      -0.14601502      -0.48573202
O        1.37783933      -1.04351240      -1.38265531
H       -2.40975100       0.85442228       0.15045531
H       -1.79545306      -0.36797826       1.23676469
H       -2.13712931      -0.77183200      -0.41487358
H        0.23672691      -1.20148796      -1.13654529
H       -0.32264822       1.39575974      -0.70091792
H        1.20426987       1.07424430       1.20445686
H        0.71519901      -0.63968984       1.39010384
H        2.69053997       0.22687527      -0.52324843
13
Frame=9 idx=000078 GeodesicLength=0.8820387019113789 rxn_smarts="[C:1]([C:2]([C:3]([C:4](=[O:5])[H:13])([H:11])[H:12])([H:9])[H:10])([H:6])([H:7])[H:8]>>[C:1]([C@@:2]1([H:10])[C:3]([H:11])([H:12])[C@:4]1([O:5][H:9])[H:13])([H:6])([H:7])[H:8]"
C       -1.70739506       0.01562685       0.20665041
C       -0.32263127       0.38762498      -0.25218221
C        0.81914872       0.20452981       0.69198440
C        1.65661289      -0.13638721      -0.48679210
O        1.38555266      -1.05911878      -1.36239060
H       -2.36703173       0.88560842       0.24569832
H       -1.77430478      -0.46309108       1.19016281
H       -2.18303983      -0.68965853      -0.48032187
H        0.22690051      -1.24267931      -1.08624707
H       -0.31887550       1.36409855      -0.73687071
H        1.18671735       1.09990701       1.19664944
H        0.72144167      -0.62107948       1.40307536
H        2.67690436       0.25461877      -0.52941619
13
Frame=10 idx=000078 GeodesicLength=0.9808450141866673 rxn_smarts="[C:1]([C:2]([C:3]([C:4](=[O:5])[H:13])([H:11])[H:12])([H:9])[H:10])([H:6])([H:7])[H:8]>>[C:1]([C@@:2]1([H:10])[C:3]([H:11])([H:12])[C@:4]1([O:5][H:9])[H:13])([H:6])([H:7])[H:8]"
C       -1.70288870       0.01480168       0.20031522
C       -0.31467099       0.36560860      -0.26693564
C        0.81848273       0.21595782       0.69661797
C        1.64905446      -0.12774316      -0.48792676
O        1.39334545      -1.07406730      -1.34263606
H       -2.32024649       0.90524662       0.33942103
H       -1.75600300      -0.55247205       1.13537584
H       -2.22506245      -0.60277146      -0.53536301
H        0.21648727      -1.28117029      -1.03623479
H       -0.31552740       1.33302215      -0.77103736
H        1.16834410       1.12484684       1.18822547
H        0.72593610      -0.60213740       1.41557158
H        2.66274891       0.28087795      -0.53539349
13
Frame=11 idx=000078 GeodesicLength=1.0801527003110483 rxn_smarts="[C:1]([C:2]([C:3]([C:4](=[O:5])[H:13])([H:11])[H:12])([H:9])[H:10])([H:6])([H:7])[H:8]>>[C:1]([C@@:2]1([H:10])[C:3]([H:11])([H:12])[C@:4]1([O:5][H:9])[H:13])([H:6])([H:7])[H:8]"
C       -1.69826765       0.01392056       0.19407300
C       -0.30675947       0.34358819      -0.28142704
C        0.81716758       0.22657606       0.70074983
C        1.64131390      -0.11982706      -0.48919297
O        1.40151641      -1.08763554      -1.32410239
H       -2.27069658       0.91437535       0.42807618
H       -1.74099315      -0.63281560       1.07554379
H       -2.26248231      -0.51417123      -0.57902083
H        0.20567204      -1.31687469      -0.98719378
H       -0.31232604       1.30238477      -0.80318600
H        1.14910224       1.14802926       1.17991180
H        0.72878429      -0.58415948       1.42709973
H        2.64796875       0.30660943      -0.54133134
13
Frame=12 idx=000078 GeodesicLength=1.1798001200522126 rxn_smarts="[C:1]([C:2]([C:3]([C:4](=[O:5])[H:13])([H:11])[H:12])([H:9])[H:10])([H:6])([H:7])[H:8]>>[C:1]([C@@:2]1([H:10])[C:3]([H:11])([H:12])[C@:4]1([O:5][H:9])[H:13])([H:6])([H:7])[H:8]"
C       -1.69354756       0.01325294       0.18802806
C       -0.29887753       0.32169708      -0.29551747
C        0.81535474       0.23626264       0.70443700
C        1.63344847      -0.11245617      -0.49070496
O        1.41002434      -1.09957954      -1.30717662
H       -2.22012141       0.91441421       0.51016856
H       -1.72900291      -0.70345186       1.01288638
H       -2.29473404      -0.42604824      -0.61199637
H        0.19433548      -1.34989085      -0.93924851
H       -0.30910749       1.27237632      -0.83328687
H        1.12921368       1.16927113       1.17195381
H        0.73023602      -0.56749696       1.43751849
H        2.63277819       0.33164930      -0.54706150
13
Frame=13 idx=000078 GeodesicLength=1.2796265132291609 rxn_smarts="[C:1]([C:2]([C:3]([C:4](=[O:5])[H:13])([H:11])[H:12])([H:9])[H:10])([H:6])([H:7])[H:8]>>[C:1]([C@@:2]1([H:10])[C:3]([H:11])([H:12])[C@:4]1([O:5][H:9])[H:13])([H:6])([H:7])[H:8]"
C       -1.68872651       0.01280875       0.18235174
C       -0.29098625       0.29978192      -0.30897178
C        0.81324516       0.24481046       0.70783674
C        1.62556563      -0.10551744      -0.49246745
O        1.41888614      -1.10968327      -1.29218805
H       -2.16960350       0.90728516       0.58454004
H       -1.72019276      -0.76435108       0.94958019
H       -2.32164321      -0.33974006      -0.63564044
H        0.18255184      -1.38055008      -0.89225651
H       -0.30576363       1.24280202      -0.86136140
H        1.10887230       1.18836960       1.16462091
H        0.73071874      -0.55254747       1.44684281
H        2.61707603       0.35653148      -0.55288678
13
Frame=14 idx=000078 GeodesicLength=1.3795802480419137 rxn_smarts="[C:1]([C:2]([C:3]([C:4](=[O:5])[H:13])([H:11])[H:12])([H:9])[H:10])([H:6])([H:7])[H:8]>>[C:1]([C@@:2]1([H:10])[C:3]([H:11])([H:12])[C@:4]1([O:5][H:9])[H:13])([H:6])([H:7])[H:8]"
C       -1.68382962       0.01271813       0.17689005
C       -0.28310184       0.27788744      -0.32190648
C        0.81087912       0.25240414       0.71090720
C        1.61770224      -0.09890582      -0.49450184
O        1.42816574      -1.11809418      -1.27906361
H       -2.11977973       0.89436182       0.65199246
H       -1.71393075      -0.81655120       0.88639300
H       -2.34368326      -0.25587104      -0.65131640
H        0.17027084      -1.40909439      -0.84605167
H       -0.30228038       1.21362167      -0.88780062
H        1.08808422       1.20560462       1.15780048
H        0.73042611      -0.53907679       1.45514203
H        2.60107732       0.38099560      -0.55848460
13
Frame=15 idx=000078 GeodesicLength=1.4795351276922895 rxn_smarts="[C:1]([C:2]([C:3]([C:4](=[O:5])[H:13])([H:11])[H:12])([H:9])[H:10])([H:6])([H:7])[H:8]>>[C:1]([C@@:2]1([H:10])[C:3]([H:11])([H:12])[C@:4]1([O:5][H:9])[H:13])([H:6])([H:7])[H:8]"
C       -1.67883041       0.01283623       0.17185809
C       -0.27517720       0.25586132      -0.33398622
C        0.80848909       0.25899159       0.71384523
C        1.60989847      -0.09263184      -0.49676178
O        1.43774857      -1.12480817      -1.26792853
H       -2.07138442       0.87711177       0.71226170
H       -1.71052316      -0.86101299       0.82436769
H       -2.36051735      -0.17449507      -0.66072742
H        0.15749415      -1.43589097      -0.80013768
H       -0.29866456       1.18459064      -0.91252714
H        1.06713602       1.22100874       1.15156803
H        0.72984370      -0.52715684       1.46264205
H        2.58448708       0.40559559      -0.56447402
13
Frame=16 idx=000078 GeodesicLength=1.5794835677064616 rxn_smarts="[C:1]([C:2]([C:3]([C:4](=[O:5])[H:13])([H:11])[H:12])([H:9])[H:10])([H:6])([H:7])[H:8]>>[C:1]([C@@:2]1([H:10])[C:3]([H:11])([H:12])[C@:4]1([O:5][H:9])[H:13])([H:6])([H:7])[H:8]"
C       -1.67376115       0.01330017       0.16695196
C       -0.26723964       0.23375566      -0.34549964
C        0.80600045       0.26476192       0.71654009
C        1.60217552      -0.08659818      -0.49925807
O        1.44777524      -1.12996988      -1.25866076
H       -2.02442430       0.85636054       0.76651891
H       -1.70919622      -0.89853870       0.76373087
H       -2.37298409      -0.09601559      -0.66467767
H        0.14415498      -1.46104036      -0.75450416
H       -0.29491424       1.15571175      -0.93597429
H        1.04587508       1.23482664       1.14580231
H        0.72896800      -0.51652410       1.46934504
H        2.56757037       0.42997014      -0.57031458
