12
Frame=0 idx=001897 GeodesicLength=0.0 rxn_smarts="[C:1]([C:2]([C:3](=[O:4])[N:5]([H:11])[H:12])([H:9])[H:10])([H:6])([H:7])[H:8]>>[C:1]([C@@:2]1([H:9])[C@:3]([N:5]([H:11])[H:12])([H:10])[O:4]1)([H:6])([H:7])[H:8]"
C       -1.71231164       0.28448138      -0.02402893
C       -0.48524761      -0.51255840       0.03392508
C        0.84632366       0.09007852       0.31675536
O        0.57839093       1.15470933       0.99745464
N        1.80102768       0.17988910      -0.76317133
H       -2.22462658       0.31706754       0.94334511
H       -1.48189113       1.31364226      -0.30049691
H       -2.40540825      -0.20660794      -0.71606497
H       -0.60053595      -1.58904574       0.16826528
H        1.11083139      -0.76387084       1.04420609
H        1.85969810      -0.66822999      -1.31321482
H        2.71374935       0.40044473      -0.38697461
12
Frame=1 idx=001897 GeodesicLength=0.07618814298329794 rxn_smarts="[C:1]([C:2]([C:3](=[O:4])[N:5]([H:11])[H:12])([H:9])[H:10])([H:6])([H:7])[H:8]>>[C:1]([C@@:2]1([H:9])[C@:3]([N:5]([H:11])[H:12])([H:10])[O:4]1)([H:6])([H:7])[H:8]"
C       -1.70532184       0.28494069      -0.02378157
C       -0.47616410      -0.50798658       0.07510352
C        0.85977890       0.09269196       0.32266793
O        0.57718770       1.15304707       1.00350095
N        1.79240138       0.18040077      -0.76984291
H       -2.24870202       0.30866006       0.92644096
H       -1.47848674       1.31716336      -0.29058000
H       -2.36986836      -0.20170930      -0.74593877
H       -0.59623006      -1.58606902       0.18826843
H        1.09488121      -0.78465623       1.05406597
H        1.83914566      -0.66420263      -1.32558750
H        2.71137827       0.40771986      -0.41431699
12
Frame=2 idx=001897 GeodesicLength=0.15249744744310012 rxn_smarts="[C:1]([C:2]([C:3](=[O:4])[N:5]([H:11])[H:12])([H:9])[H:10])([H:6])([H:7])[H:8]>>[C:1]([C@@:2]1([H:9])[C@:3]([N:5]([H:11])[H:12])([H:10])[O:4]1)([H:6])([H:7])[H:8]"
C       -1.69773985       0.28525628      -0.02354674
C       -0.46715854      -0.50271550       0.11662558
C        0.87305881       0.09489088       0.32921100
O        0.57657180       1.15169793       1.00932270
N        1.78269440       0.18039016      -0.77634694
H       -2.27238336       0.29869496       0.90799116
H       -1.47531810       1.32086238      -0.27967374
H       -2.33162749      -0.19641023      -0.77564106
H       -0.59174043      -1.58222227       0.20700254
H        1.07901369      -0.80455284       1.06507128
H        1.81695166      -0.66076706      -1.33738564
H        2.70767741       0.41487533      -0.44263013
12
Frame=3 idx=001897 GeodesicLength=0.2289417848732791 rxn_smarts="[C:1]([C:2]([C:3](=[O:4])[N:5]([H:11])[H:12])([H:9])[H:10])([H:6])([H:7])[H:8]>>[C:1]([C@@:2]1([H:9])[C@:3]([N:5]([H:11])[H:12])([H:10])[O:4]1)([H:6])([H:7])[H:8]"
C       -1.68960128       0.28541620      -0.02331195
C       -0.45823221      -0.49675459       0.15812587
C        0.88611067       0.09674139       0.33614614
O        0.57648984       1.15067849       1.01479301
N        1.77208266       0.17984795      -0.78265274
H       -2.29545386       0.28697722       0.88801539
H       -1.47258799       1.32473420      -0.26770166
H       -2.29082518      -0.19055759      -0.80494383
H       -0.58707666      -1.57739337       0.22467720
H        1.06308267      -0.82354638       1.07712815
H        1.79330544      -0.65790220      -1.34860124
H        2.70270590       0.42175869      -0.47167434
12
Frame=4 idx=001897 GeodesicLength=0.30552738506450916 rxn_smarts="[C:1]([C:2]([C:3](=[O:4])[N:5]([H:11])[H:12])([H:9])[H:10])([H:6])([H:7])[H:8]>>[C:1]([C@@:2]1([H:9])[C@:3]([N:5]([H:11])[H:12])([H:10])[O:4]1)([H:6])([H:7])[H:8]"
C       -1.68096749       0.28541616      -0.02306247
C       -0.44937556      -0.49012600       0.19918720
C        0.89889143       0.09829880       0.34323359
O        0.57687210       1.14998457       1.01977032
N        1.76077658       0.17876591      -0.78873582
H       -2.31768167       0.27334363       0.86657174
H       -1.47051379       1.32876014      -0.25459979
H       -2.24769569      -0.18397201      -0.83360408
H       -0.58228212      -1.57151133       0.24153589
H        1.04693845      -0.84162537       1.09011915
H        1.76847115      -0.65559164      -1.35921556
H        2.69656662       0.42825712      -0.50120016
12
Frame=5 idx=001897 GeodesicLength=0.38226039204896706 rxn_smarts="[C:1]([C:2]([C:3](=[O:4])[N:5]([H:11])[H:12])([H:9])[H:10])([H:6])([H:7])[H:8]>>[C:1]([C@@:2]1([H:9])[C@:3]([N:5]([H:11])[H:12])([H:10])[O:4]1)([H:6])([H:7])[H:8]"
C       -1.67191872       0.28526359      -0.02278506
C       -0.44057005      -0.48286618       0.23938810
C        0.91136993       0.09961040       0.35025339
O        0.57763155       1.14960491       1.02411876
N        1.74900674       0.17714060      -0.79458243
H       -2.33883377       0.25767944       0.84375611
H       -1.46930465       1.33291285      -0.24033266
H       -2.20255226      -0.17646418      -0.86137986
H       -0.57742190      -1.56457053       0.25782360
H        1.03043359      -0.85878319       1.10392543
H        1.74276226      -0.65382236      -1.36921839
H        2.68939729       0.43429464      -0.53096700
12
Frame=6 idx=001897 GeodesicLength=0.45913944204513896 rxn_smarts="[C:1]([C:2]([C:3](=[O:4])[N:5]([H:11])[H:12])([H:9])[H:10])([H:6])([H:7])[H:8]>>[C:1]([C@@:2]1([H:9])[C@:3]([N:5]([H:11])[H:12])([H:10])[O:4]1)([H:6])([H:7])[H:8]"
C       -1.66254872       0.28497257      -0.02246459
C       -0.43179378      -0.47502845       0.27837183
C        0.92353332       0.10071256       0.35702596
O        0.57868423       1.14951634       1.02772115
N        1.73699269       0.17497039      -0.80018625
H       -2.35869997       0.23995483       0.81968393
H       -1.46913736       1.33713994      -0.22490607
H       -2.15576656      -0.16785127      -0.88804103
H       -0.57256646      -1.55662805       0.27370984
H        1.01345077      -0.87501465       1.11844604
H        1.71650661      -0.65259416      -1.37858735
H        2.68134521       0.43984997      -0.56077346
12
Frame=7 idx=001897 GeodesicLength=0.5361641733555476 rxn_smarts="[C:1]([C:2]([C:3](=[O:4])[N:5]([H:11])[H:12])([H:9])[H:10])([H:6])([H:7])[H:8]>>[C:1]([C@@:2]1([H:9])[C@:3]([N:5]([H:11])[H:12])([H:10])[O:4]1)([H:6])([H:7])[H:8]"
C       -1.65295107       0.28456157      -0.02208856
C       -0.42302483      -0.46667908       0.31588014
C        0.93538153       0.10163380       0.36342235
O        0.57994578       1.14969224       1.03049476
N        1.72492790       0.17226301      -0.80554415
H       -2.37709975       0.22023001       0.79447794
H       -1.47013807       1.34136679      -0.20838053
H       -2.10772951      -0.15798610      -0.91337733
H       -0.56776973      -1.54779044       0.28928104
H        0.99590551      -0.89031925       1.13360741
H        1.68999626      -0.65189423      -1.38731755
H        2.67255599       0.44492167      -0.59045551
12
Frame=8 idx=001897 GeodesicLength=0.613332954931451 rxn_smarts="[C:1]([C:2]([C:3](=[O:4])[N:5]([H:11])[H:12])([H:9])[H:10])([H:6])([H:7])[H:8]>>[C:1]([C@@:2]1([H:9])[C@:3]([N:5]([H:11])[H:12])([H:10])[O:4]1)([H:6])([H:7])[H:8]"
C       -1.64319615       0.28404253      -0.02165458
C       -0.41423868      -0.45789182       0.35176890
C        0.94692184       0.10239653       0.36936661
O        0.58135226       1.15009428       1.03240060
N        1.71294117       0.16903310      -0.81065479
H       -2.39387356       0.19862721       0.76823610
H       -1.47236431       1.34548898      -0.19084818
H       -2.05880284      -0.14674686      -0.93723822
H       -0.56306307      -1.53817922       0.30456108
H        0.97775769      -0.90469157       1.14936970
H        1.66343675      -0.65169870      -1.39541091
H        2.66312888       0.44952555      -0.61989629
12
Frame=9 idx=001897 GeodesicLength=0.6906452154948283 rxn_smarts="[C:1]([C:2]([C:3](=[O:4])[N:5]([H:11])[H:12])([H:9])[H:10])([H:6])([H:7])[H:8]>>[C:1]([C@@:2]1([H:9])[C@:3]([N:5]([H:11])[H:12])([H:10])[O:4]1)([H:6])([H:7])[H:8]"
C       -1.63335508       0.28343241      -0.02115865
C       -0.40542445      -0.44874836       0.38599919
C        0.95817499       0.10301423       0.37482398
O        0.58285164       1.15069410       1.03344164
N        1.70114758       0.16529308      -0.81552854
H       -2.40894697       0.17533153       0.74104675
H       -1.47582708       1.34941388      -0.17241397
H       -2.00931474      -0.13406703      -0.95950882
H       -0.55847136      -1.52793910       0.31951453
H        0.95898828      -0.91815015       1.16571466
H        1.63701456      -0.65200063      -1.40288257
H        2.65316263       0.45372605      -0.64904818
12
Frame=10 idx=001897 GeodesicLength=0.768124685876614 rxn_smarts="[C:1]([C:2]([C:3](=[O:4])[N:5]([H:11])[H:12])([H:9])[H:10])([H:6])([H:7])[H:8]>>[C:1]([C@@:2]1([H:9])[C@:3]([N:5]([H:11])[H:12])([H:10])[O:4]1)([H:6])([H:7])[H:8]"
C       -1.62345441       0.28273677      -0.02060954
C       -0.39656725      -0.43930748       0.41858102
C        0.96915024       0.10350973       0.37978683
O        0.58439454       1.15148327       1.03361946
N        1.68960096       0.16106274      -0.82016432
H       -2.42220558       0.15045077       0.71295248
H       -1.48050123       1.35304426      -0.15316649
H       -1.95947446      -0.11986759      -0.98014003
H       -0.55398677      -1.51719175       0.33413977
H        0.93957327      -0.93068063       1.18265661
H        1.61075386      -0.65273319      -1.40979706
H        2.64271683       0.45749311      -0.67785875
12
Frame=11 idx=001897 GeodesicLength=0.8457799961780715 rxn_smarts="[C:1]([C:2]([C:3](=[O:4])[N:5]([H:11])[H:12])([H:9])[H:10])([H:6])([H:7])[H:8]>>[C:1]([C@@:2]1([H:9])[C@:3]([N:5]([H:11])[H:12])([H:10])[O:4]1)([H:6])([H:7])[H:8]"
C       -1.61355436       0.28196951      -0.02001381
C       -0.38765803      -0.42964484       0.44958818
C        0.97988158       0.10388409       0.38426553
O        0.58594813       1.15242257       1.03297507
N        1.67836489       0.15634622      -0.82458968
H       -2.43365355       0.12418680       0.68398813
H       -1.48638015       1.35628860      -0.13318859
H       -1.90953799      -0.10408443      -0.99910581
H       -0.54959027      -1.50605331       0.34838988
H        0.91954821      -0.94231287       1.20022514
H        1.58477873      -0.65390265      -1.41617351
H        2.63185282       0.46090032      -0.70636053
12
Frame=12 idx=001897 GeodesicLength=0.9236440287675884 rxn_smarts="[C:1]([C:2]([C:3](=[O:4])[N:5]([H:11])[H:12])([H:9])[H:10])([H:6])([H:7])[H:8]>>[C:1]([C@@:2]1([H:9])[C@:3]([N:5]([H:11])[H:12])([H:10])[O:4]1)([H:6])([H:7])[H:8]"
C       -1.60363936       0.28113176      -0.01938437
C       -0.37868338      -0.41982144       0.47911143
C        0.99037339       0.10415260       0.38828047
O        0.58748822       1.15350309       1.03155172
N        1.66743129       0.15115056      -0.82880549
H       -2.44322503       0.09671921       0.65413134
H       -1.49338872       1.35906018      -0.11253196
H       -1.85962421      -0.08671109      -1.01638591
H       -0.54525567      -1.49462499       0.36221194
H        0.89890734      -0.95305781       1.21842721
H        1.55907114      -0.65549511      -1.42203391
H        2.62054500       0.46399304      -0.73457246
12
Frame=13 idx=001897 GeodesicLength=1.0016869579550287 rxn_smarts="[C:1]([C:2]([C:3](=[O:4])[N:5]([H:11])[H:12])([H:9])[H:10])([H:6])([H:7])[H:8]>>[C:1]([C@@:2]1([H:9])[C@:3]([N:5]([H:11])[H:12])([H:10])[O:4]1)([H:6])([H:7])[H:8]"
C       -1.59375087       0.28021331      -0.01873126
C       -0.36964186      -0.40987970       0.50718162
C        1.00065929       0.10431399       0.39183654
O        0.58901224       1.15465747       1.02935731
N        1.65684513       0.14549033      -0.83280629
H       -2.45086261       0.06819635       0.62344635
H       -1.50145182       1.36122075      -0.09132026
H       -1.80999729      -0.06770075      -1.03194483
H       -0.54098074      -1.48295486       0.37557905
H        0.87764078      -0.96289910       1.23726270
H        1.53368322      -0.65745910      -1.42738133
H        2.60884453       0.46680131      -0.76247960
12
Frame=14 idx=001897 GeodesicLength=1.079943446308055 rxn_smarts="[C:1]([C:2]([C:3](=[O:4])[N:5]([H:11])[H:12])([H:9])[H:10])([H:6])([H:7])[H:8]>>[C:1]([C@@:2]1([H:9])[C@:3]([N:5]([H:11])[H:12])([H:10])[O:4]1)([H:6])([H:7])[H:8]"
C       -1.58388835       0.27922533      -0.01807616
C       -0.36051766      -0.39987217       0.53390884
C        1.01075752       0.10436807       0.39497086
O        0.59049508       1.15587140       1.02645901
N        1.64660436       0.13936114      -0.83660983
H       -2.45655116       0.03879694       0.59190647
H       -1.51052399       1.36270951      -0.06960187
H       -1.76076272      -0.04704395      -1.04580940
H       -0.53671349      -1.47112818       0.38847863
H        0.85576611      -0.97187378       1.25677061
H        1.50861097      -0.65979346      -1.43226163
H        2.59672334       0.46937916      -0.79013553
12
Frame=15 idx=001897 GeodesicLength=1.1584240412651632 rxn_smarts="[C:1]([C:2]([C:3](=[O:4])[N:5]([H:11])[H:12])([H:9])[H:10])([H:6])([H:7])[H:8]>>[C:1]([C@@:2]1([H:9])[C@:3]([N:5]([H:11])[H:12])([H:10])[O:4]1)([H:6])([H:7])[H:8]"
C       -1.57405172       0.27816502      -0.01743307
C       -0.35130729      -0.38984809       0.55936925
C        1.02068173       0.10431624       0.39770505
O        0.59191410       1.15711579       1.02290802
N        1.63672623       0.13277872      -0.84022056
H       -2.46026338       0.00872397       0.55953815
H       -1.52051787       1.36344792      -0.04747524
H       -1.71207134      -0.02477973      -1.05796555
H       -0.53242634      -1.45921763       0.40089627
H        0.83326640      -0.98001518       1.27694779
H        1.48387042      -0.66246352      -1.43670525
H        2.58417905       0.47177649      -0.81756486
12
Frame=16 idx=001897 GeodesicLength=1.2370695108493013 rxn_smarts="[C:1]([C:2]([C:3](=[O:4])[N:5]([H:11])[H:12])([H:9])[H:10])([H:6])([H:7])[H:8]>>[C:1]([C@@:2]1([H:9])[C@:3]([N:5]([H:11])[H:12])([H:10])[O:4]1)([H:6])([H:7])[H:8]"
C       -1.56426684       0.27702088      -0.01681183
C       -0.34201095      -0.37986820       0.58357210
C        1.03044284       0.10416568       0.40005289
O        0.59324423       1.15833316       1.01878559
N        1.62727186       0.12581700      -0.84362499
H       -2.46194559      -0.02167184       0.52657521
H       -1.53126878       1.36334723      -0.02523285
H       -1.66428816      -0.00113998      -1.06834768
H       -0.52810188      -1.44729391       0.41273187
H        0.81010753      -0.98738218       1.29773379
H        1.45953339      -0.66535387      -1.44075922
H        2.57128234       0.47402603      -0.84467488
