12
Frame=0 idx=006759 GeodesicLength=0.0 rxn_smarts="[O:1]=[C:2]([C:3](=[O:4])[N:5]1[C:6]([H:9])([H:10])[C:7]1([H:11])[H:12])[H:8]>>[H:8][H:11].[O:1]=[C:2]=[C:3]([O-:4])[N+:5]1=[C:7]([H:12])[C:6]1([H:9])[H:10]"
O        2.57890644       0.89881758       1.32717617
C        1.79818943       0.30216133       0.74314932
C        0.99577213      -0.79204295       0.26715796
O        1.54442703      -1.85047500      -0.04363947
N       -0.27753360      -0.40594414       0.13773720
C       -1.56308214      -0.75109589      -0.42355476
C       -1.12976784       0.61598617       0.00747102
H        1.04949705       1.49366698      -0.74427044
H       -2.16933414      -1.39796908       0.20473970
H       -1.59995110      -0.95944759      -1.48753169
H        0.25126435       1.57565890      -0.78306913
H       -1.47838756       1.27068374       0.79463412
12
Frame=1 idx=006759 GeodesicLength=0.08939563987213087 rxn_smarts="[O:1]=[C:2]([C:3](=[O:4])[N:5]1[C:6]([H:9])([H:10])[C:7]1([H:11])[H:12])[H:8]>>[H:8][H:11].[O:1]=[C:2]=[C:3]([O-:4])[N+:5]1=[C:7]([H:12])[C:6]1([H:9])[H:10]"
O        2.55851502       0.90229968       1.34217966
C        1.80921331       0.30716437       0.71332528
C        0.99640873      -0.79710683       0.27570146
O        1.54091968      -1.84437908      -0.07700435
N       -0.28214917      -0.41245145       0.16714403
C       -1.55898534      -0.75026532      -0.41822443
C       -1.12336512       0.61682637       0.00780083
H        1.06067391       1.48902295      -0.73430960
H       -2.18238431      -1.38630446       0.20413699
H       -1.57887286      -0.96710332      -1.48096406
H        0.24203829       1.56371597      -0.78427222
H       -1.48201213       1.27858111       0.78448641
12
Frame=2 idx=006759 GeodesicLength=0.17901149989281476 rxn_smarts="[O:1]=[C:2]([C:3](=[O:4])[N:5]1[C:6]([H:9])([H:10])[C:7]1([H:11])[H:12])[H:8]>>[H:8][H:11].[O:1]=[C:2]=[C:3]([O-:4])[N+:5]1=[C:7]([H:12])[C:6]1([H:9])[H:10]"
O        2.53749779       0.90511765       1.35465250
C        1.81853154       0.31195986       0.68594671
C        0.99750917      -0.80138323       0.28273404
O        1.53587962      -1.83852178      -0.10731043
N       -0.28617612      -0.41849122       0.19458321
C       -1.55450716      -0.74954228      -0.41312272
C       -1.11670719       0.61741980       0.00833798
H        1.07256533       1.48455719      -0.72516331
H       -2.19375530      -1.37539796       0.20331168
H       -1.55874650      -0.97425638      -1.47441524
H        0.23260587       1.55307953      -0.78482914
H       -1.48469706       1.28545882       0.77527473
12
Frame=3 idx=006759 GeodesicLength=0.26874528533730346 rxn_smarts="[O:1]=[C:2]([C:3](=[O:4])[N:5]1[C:6]([H:9])([H:10])[C:7]1([H:11])[H:12])[H:8]>>[H:8][H:11].[O:1]=[C:2]=[C:3]([O-:4])[N+:5]1=[C:7]([H:12])[C:6]1([H:9])[H:10]"
O        2.51670133       0.90739528       1.36472616
C        1.82617170       0.31667449       0.66104635
C        0.99884568      -0.80500961       0.28873445
O        1.52972401      -1.83273760      -0.13508493
N       -0.28978754      -0.42413329       0.22030375
C       -1.54978735      -0.74892458      -0.40828456
C       -1.10997411       0.61778264       0.00902534
H        1.08523872       1.48006323      -0.71681952
H       -2.20378280      -1.36515990       0.20219525
H       -1.53946363      -0.98096503      -1.46796710
H        0.22287924       1.54359599      -0.78469984
H       -1.48676525       1.29141838       0.76682464
12
Frame=4 idx=006759 GeodesicLength=0.3584604551965916 rxn_smarts="[O:1]=[C:2]([C:3](=[O:4])[N:5]1[C:6]([H:9])([H:10])[C:7]1([H:11])[H:12])[H:8]>>[H:8][H:11].[O:1]=[C:2]=[C:3]([O-:4])[N+:5]1=[C:7]([H:12])[C:6]1([H:9])[H:10]"
O        2.49639908       0.90933769       1.37282891
C        1.83234028       0.32137316       0.63834531
C        1.00030448      -0.80811811       0.29395113
O        1.52272422      -1.82701202      -0.16064764
N       -0.29307915      -0.42945042       0.24448414
C       -1.54492079      -0.74838294      -0.40371650
C       -1.10325726       0.61794074       0.00989416
H        1.09875156       1.47533890      -0.70943758
H       -2.21270241      -1.35553476       0.20074968
H       -1.52096312      -0.98719984      -1.46167733
H        0.21277920       1.53518470      -0.78390133
H       -1.48837607       1.29652290       0.75912705
12
Frame=5 idx=006759 GeodesicLength=0.4480620181358052 rxn_smarts="[O:1]=[C:2]([C:3](=[O:4])[N:5]1[C:6]([H:9])([H:10])[C:7]1([H:11])[H:12])[H:8]>>[H:8][H:11].[O:1]=[C:2]=[C:3]([O-:4])[N+:5]1=[C:7]([H:12])[C:6]1([H:9])[H:10]"
O        2.47657622       0.91115474       1.37939554
C        1.83725677       0.32607042       0.61754497
C        1.00182339      -0.81082633       0.29855946
O        1.51511140      -1.82135465      -0.18431330
N       -0.29611929      -0.43451369       0.26728936
C       -1.53997444      -0.74788644      -0.39940505
C       -1.09660230       0.61792519       0.01099556
H        1.11317327       1.47019837      -0.70317004
H       -2.22069419      -1.34645988       0.19897335
H       -1.50319060      -0.99292713      -1.45558196
H        0.20224056       1.52777112      -0.78249493
H       -1.48960077       1.30084826       0.75220704
12
Frame=6 idx=006759 GeodesicLength=0.5374494070108372 rxn_smarts="[O:1]=[C:2]([C:3](=[O:4])[N:5]1[C:6]([H:9])([H:10])[C:7]1([H:11])[H:12])[H:8]>>[H:8][H:11].[O:1]=[C:2]=[C:3]([O-:4])[N+:5]1=[C:7]([H:12])[C:6]1([H:9])[H:10]"
O        2.45709918       0.91301824       1.38477761
C        1.84114045       0.33077037       0.59834646
C        1.00337771      -0.81321880       0.30266178
O        1.50701930      -1.81580863      -0.20624356
N       -0.29893909      -0.43937933       0.28885235
C       -1.53497895      -0.74739471      -0.39534347
C       -1.09003124       0.61776271       0.01239671
H        1.12856417       1.46446039      -0.69822227
H       -2.22786758      -1.33789767       0.19683714
H       -1.48608766      -0.99807901      -1.44971105
H        0.19119507       1.52133321      -0.78048745
H       -1.49049136       1.30443324       0.74613575
12
Frame=7 idx=006759 GeodesicLength=0.6265907912555071 rxn_smarts="[O:1]=[C:2]([C:3](=[O:4])[N:5]1[C:6]([H:9])([H:10])[C:7]1([H:11])[H:12])[H:8]>>[H:8][H:11].[O:1]=[C:2]=[C:3]([O-:4])[N+:5]1=[C:7]([H:12])[C:6]1([H:9])[H:10]"
O        2.43780142       0.91507455       1.38923660
C        1.84416617       0.33546182       0.58051601
C        1.00495408      -0.81536400       0.30635317
O        1.49858111      -1.81040625      -0.22661828
N       -0.30156639      -0.44410081       0.30931205
C       -1.52995114      -0.74687237      -0.39152262
C       -1.08356002       0.61747754       0.01415646
H        1.14500545       1.45796509      -0.69476350
H       -2.23433473      -1.32980125       0.19433044
H       -1.46957490      -1.00260380      -1.44408928
H        0.17958241       1.51584660      -0.77788397
H       -1.49110348       1.30732286       0.74097293
12
Frame=8 idx=006759 GeodesicLength=0.7155153194905636 rxn_smarts="[O:1]=[C:2]([C:3](=[O:4])[N:5]1[C:6]([H:9])([H:10])[C:7]1([H:11])[H:12])[H:8]>>[H:8][H:11].[O:1]=[C:2]=[C:3]([O-:4])[N+:5]1=[C:7]([H:12])[C:6]1([H:9])[H:10]"
O        2.41857286       0.91744295       1.39293233
C        1.84645833       0.34013994       0.56387874
C        1.00654420      -0.81730796       0.30970068
O        1.48987741      -1.80518265      -0.24553361
N       -0.30402485      -0.44871853       0.32877832
C       -1.52490044      -0.74628804      -0.38794216
C       -1.07720732       0.61709415       0.01633271
H        1.16257993       1.45056039      -0.69291797
H       -2.24015817      -1.32214847       0.19141882
H       -1.45358263      -1.00644593      -1.43874579
H        0.16732921       1.51131040      -0.77467776
H       -1.49148852       1.30954376       0.73677568
12
Frame=9 idx=006759 GeodesicLength=0.8044217303457551 rxn_smarts="[O:1]=[C:2]([C:3](=[O:4])[N:5]1[C:6]([H:9])([H:10])[C:7]1([H:11])[H:12])[H:8]>>[H:8][H:11].[O:1]=[C:2]=[C:3]([O-:4])[N+:5]1=[C:7]([H:12])[C:6]1([H:9])[H:10]"
O        2.39919801       0.92030907       1.39600402
C        1.84813532       0.34477250       0.54826655
C        1.00813811      -0.81910563       0.31276228
O        1.48099663      -1.80020538      -0.26309284
N       -0.30632975      -0.45327013       0.34733057
C       -1.51983724      -0.74561292      -0.38459981
C       -1.07097959       0.61662776       0.01899447
H        1.18143776       1.44209195      -0.69279866
H       -2.24539314      -1.31491144       0.18808795
H       -1.43806137      -1.00952976      -1.43371461
H        0.15435357       1.50772809      -0.77086737
H       -1.49165830       1.31110589       0.73362744
12
Frame=10 idx=006759 GeodesicLength=0.8933604947462518 rxn_smarts="[O:1]=[C:2]([C:3](=[O:4])[N:5]1[C:6]([H:9])([H:10])[C:7]1([H:11])[H:12])[H:8]>>[H:8][H:11].[O:1]=[C:2]=[C:3]([O-:4])[N+:5]1=[C:7]([H:12])[C:6]1([H:9])[H:10]"
O        2.37959195       0.92371380       1.39849166
C        1.84927331       0.34937033       0.53358464
C        1.00974144      -0.82077498       0.31559585
O        1.47200034      -1.79548687      -0.27938149
N       -0.30850406      -0.45779674       0.36509999
C       -1.51474793      -0.74481926      -0.38150088
C       -1.06489735       0.61609815       0.02217404
H        1.20169776       1.43243199      -0.69452725
H       -2.25010994      -1.30806547       0.18429898
H       -1.42290457      -1.01182926      -1.42900735
H        0.14057800       1.50511553      -0.76640914
H       -1.49171895       1.31204278       0.73158096
12
Frame=11 idx=006759 GeodesicLength=0.9824113974870001 rxn_smarts="[O:1]=[C:2]([C:3](=[O:4])[N:5]1[C:6]([H:9])([H:10])[C:7]1([H:11])[H:12])[H:8]>>[H:8][H:11].[O:1]=[C:2]=[C:3]([O-:4])[N+:5]1=[C:7]([H:12])[C:6]1([H:9])[H:10]"
O        2.35963585       0.92776530       1.40043790
C        1.84993937       0.35392642       0.51972353
C        1.01135057      -0.82234071       0.31823852
O        1.46292170      -1.79106357      -0.29441188
N       -0.31056029      -0.46232878       0.38214794
C       -1.50962916      -0.74388268      -0.37865463
C       -1.05897388       0.61551947       0.02593408
H        1.22349323       1.42143836      -0.69820528
H       -2.25432959      -1.30160694       0.18001261
H       -1.40806045      -1.01327581      -1.42465874
H        0.12591659       1.50350414      -0.76126580
H       -1.49170394       1.31234481       0.73070175
12
Frame=12 idx=006759 GeodesicLength=1.0716114836136452 rxn_smarts="[O:1]=[C:2]([C:3](=[O:4])[N:5]1[C:6]([H:9])([H:10])[C:7]1([H:11])[H:12])[H:8]>>[H:8][H:11].[O:1]=[C:2]=[C:3]([O-:4])[N+:5]1=[C:7]([H:12])[C:6]1([H:9])[H:10]"
O        2.33922542       0.93255908       1.40185674
C        1.85018427       0.35843803       0.50659237
C        1.01296089      -0.82382113       0.32073823
O        1.45380377      -1.78697540      -0.30822160
N       -0.31251699      -0.46689741       0.39854858
C       -1.50447188      -0.74278159      -0.37607061
C       -1.05322138       0.61490237       0.03031932
H        1.24696964       1.40897642      -0.70392694
H       -2.25808874      -1.29552370       0.17518971
H       -1.39345876      -1.01381770      -1.42069349
H        0.11028843       1.50292757      -0.75539229
H       -1.49167467       1.31201348       0.73105998
12
Frame=13 idx=006759 GeodesicLength=1.161039381041714 rxn_smarts="[O:1]=[C:2]([C:3](=[O:4])[N:5]1[C:6]([H:9])([H:10])[C:7]1([H:11])[H:12])[H:8]>>[H:8][H:11].[O:1]=[C:2]=[C:3]([O-:4])[N+:5]1=[C:7]([H:12])[C:6]1([H:9])[H:10]"
O        2.31822777       0.93819805       1.40272349
C        1.85004937       0.36289981       0.49411308
C        1.01456971      -0.82523494       0.32313065
O        1.44468528      -1.78325985      -0.32084833
N       -0.31439035      -0.47153639       0.41436911
C       -1.49926611      -0.74149247      -0.37375570
C       -1.04765216       0.61425518       0.03537604
H        1.27232090       1.39492337      -0.71174237
H       -2.26141711      -1.28979973       0.16979855
H       -1.37903711      -1.01340331      -1.41713199
H        0.09359687       1.50340605      -0.74875535
H       -1.49168706       1.31104423       0.73272281
12
Frame=14 idx=006759 GeodesicLength=1.2506492727662295 rxn_smarts="[O:1]=[C:2]([C:3](=[O:4])[N:5]1[C:6]([H:9])([H:10])[C:7]1([H:11])[H:12])[H:8]>>[H:8][H:11].[O:1]=[C:2]=[C:3]([O-:4])[N+:5]1=[C:7]([H:12])[C:6]1([H:9])[H:10]"
O        2.29655096       0.94479068       1.40300980
C        1.84956345       0.36731235       0.48220173
C        1.01617276      -0.82659281       0.32545181
O        1.43558915      -1.77996110      -0.33227718
N       -0.31619687      -0.47627621       0.42966136
C       -1.49400063      -0.73999487      -0.37172570
C       -1.04227994       0.61358703       0.04116191
H        1.29971805       1.37911877      -0.72173528
H       -2.26432932      -1.28443480       0.16378294
H       -1.36473568      -1.01196049      -1.41400685
H        0.07574265       1.50499682      -0.74129408
H       -1.49179459       1.30941463       0.73576954
12
Frame=15 idx=006759 GeodesicLength=1.340353800283757 rxn_smarts="[O:1]=[C:2]([C:3](=[O:4])[N:5]1[C:6]([H:9])([H:10])[C:7]1([H:11])[H:12])[H:8]>>[H:8][H:11].[O:1]=[C:2]=[C:3]([O-:4])[N+:5]1=[C:7]([H:12])[C:6]1([H:9])[H:10]"
O        2.27408108       0.95243995       1.40266500
C        1.84874812       0.37167620       0.47078135
C        1.01776648      -0.82790596       0.32773273
O        1.42654296      -1.77712248      -0.34251467
N       -0.31795294      -0.48114916       0.44447699
C       -1.48866334      -0.73826761      -0.36999209
C       -1.03711658       0.61290377       0.04772543
H        1.32936547       1.36143147      -0.73394715
H       -2.26684229      -1.27941918       0.15710202
H       -1.35049801      -1.00943021      -1.41134033
H        0.05662278       1.50773652      -0.73296160
H       -1.49205374       1.30710669       0.74027230
12
Frame=16 idx=006759 GeodesicLength=1.429984977702957 rxn_smarts="[O:1]=[C:2]([C:3](=[O:4])[N:5]1[C:6]([H:9])([H:10])[C:7]1([H:11])[H:12])[H:8]>>[H:8][H:11].[O:1]=[C:2]=[C:3]([O-:4])[N+:5]1=[C:7]([H:12])[C:6]1([H:9])[H:10]"
O        2.25072021       0.96125584       1.40161305
C        1.84761624       0.37599485       0.45977253
C        1.01934555      -0.82918011       0.33000807
O        1.41756470      -1.77478656      -0.35154848
N       -0.31967554      -0.48618535       0.45886053
C       -1.48324005      -0.73629081      -0.36857125
C       -1.03217532       0.61221084       0.05511936
H        1.36147205       1.34170823      -0.74840857
H       -2.26896792      -1.27474712       0.14970611
H       -1.33626488      -1.00574608      -1.40916164
H        0.03612854       1.51167428      -0.72369852
H       -1.49252357       1.30409199       0.74630880
