18
Frame=0 idx=003810 GeodesicLength=0.0 rxn_smarts="[C:1]([C@@:2]1([H:10])[C@:3]([C:4]([H:12])([H:13])[H:14])([H:11])[C@:5]1([C:6]([H:16])([H:17])[H:18])[H:15])([H:7])([H:8])[H:9]>>[C:1](/[C:2](=[C:3](\[C:4]([H:12])([H:13])[H:14])[C:5](=[C:6]([H:16])[H:18])[H:15])[H:10])([H:7])([H:8])[H:9].[H:11][H:17]"
C       -1.40036899      -1.69771130       0.42237339
C       -0.29534703      -1.16394933      -0.44362346
C       -0.03968854       0.21312057      -0.76893280
C       -0.94011586       1.22292642      -0.10863321
C        1.13605472      -0.32948938      -0.07491583
C        1.73774945       0.71750165       0.65330391
H       -2.29561879      -1.84920683      -0.18759896
H       -1.66016800      -1.02849995       1.23918981
H       -1.11821150      -2.66351059       0.84293487
H        0.13371774      -1.91822656      -1.09346050
H        0.92538963       1.29949036      -1.40633031
H       -0.49157859       2.21547664      -0.10908389
H       -1.18365320       0.95995118       0.92689467
H       -1.88024191       1.27577400      -0.66170991
H        1.83716302      -0.85572239      -0.71042322
H        1.15270056       1.35943671       1.29939313
H        1.59233016       1.59091613      -0.72367699
H        2.78988710       0.65172272       0.90429929
18
Frame=1 idx=003810 GeodesicLength=0.0684660589616761 rxn_smarts="[C:1]([C@@:2]1([H:10])[C@:3]([C:4]([H:12])([H:13])[H:14])([H:11])[C@:5]1([C:6]([H:16])([H:17])[H:18])[H:15])([H:7])([H:8])[H:9]>>[C:1](/[C:2](=[C:3](\[C:4]([H:12])([H:13])[H:14])[C:5](=[C:6]([H:16])[H:18])[H:15])[H:10])([H:7])([H:8])[H:9].[H:11][H:17]"
C       -1.40393569      -1.70155643       0.41784240
C       -0.29873742      -1.16444964      -0.44580143
C       -0.04137883       0.21254482      -0.76443832
C       -0.94295666       1.22363313      -0.10605780
C        1.13813997      -0.32550170      -0.06726850
C        1.74681562       0.72485587       0.65236557
H       -2.29664208      -1.85939122      -0.19423003
H       -1.66964299      -1.03180861       1.23242476
H       -1.12041738      -2.66540195       0.84231790
H        0.12819876      -1.91523710      -1.10130027
H        0.92378679       1.29861499      -1.42489526
H       -0.50354115       2.22025615      -0.12388640
H       -1.17000531       0.97729549       0.93699550
H       -1.89162645       1.26283233      -0.64519637
H        1.84034006      -0.85836789      -0.69696656
H        1.16108758       1.35863388       1.30634178
H        1.60456656       1.59710473      -0.73076604
H        2.79594862       0.64594314       0.91251905
18
Frame=2 idx=003810 GeodesicLength=0.13681822122942325 rxn_smarts="[C:1]([C@@:2]1([H:10])[C@:3]([C:4]([H:12])([H:13])[H:14])([H:11])[C@:5]1([C:6]([H:16])([H:17])[H:18])[H:15])([H:7])([H:8])[H:9]>>[C:1](/[C:2](=[C:3](\[C:4]([H:12])([H:13])[H:14])[C:5](=[C:6]([H:16])[H:18])[H:15])[H:10])([H:7])([H:8])[H:9].[H:11][H:17]"
C       -1.40743892      -1.70542923       0.41329984
C       -0.30215434      -1.16491665      -0.44805364
C       -0.04310160       0.21200419      -0.75989290
C       -0.94582811       1.22437015      -0.10343037
C        1.14021248      -0.32141705      -0.05960353
C        1.75589142       0.73216017       0.65149383
H       -2.29759274      -1.86960437      -0.20080240
H       -1.67900617      -1.03516268       1.22563217
H       -1.12252872      -2.66729954       0.84166762
H        0.12263724      -1.91212961      -1.10924933
H        0.92196289       1.29744162      -1.44382616
H       -0.51585686       2.22479929      -0.13888302
H       -1.15627445       0.99505165       0.94667786
H       -1.90278827       1.24999387      -0.62823032
H        1.84343725      -0.86097250      -0.68339301
H        1.16959227       1.35758836       1.31346494
H        1.61706489       1.60335759      -0.73774052
H        2.80177175       0.64016476       0.92086895
18
Frame=3 idx=003810 GeodesicLength=0.20508670996950362 rxn_smarts="[C:1]([C@@:2]1([H:10])[C@:3]([C:4]([H:12])([H:13])[H:14])([H:11])[C@:5]1([C:6]([H:16])([H:17])[H:18])[H:15])([H:7])([H:8])[H:9]>>[C:1](/[C:2](=[C:3](\[C:4]([H:12])([H:13])[H:14])[C:5](=[C:6]([H:16])[H:18])[H:15])[H:10])([H:7])([H:8])[H:9].[H:11][H:17]"
C       -1.41087987      -1.70933145       0.40874229
C       -0.30559804      -1.16534935      -0.45037981
C       -0.04485679       0.21149834      -0.75529342
C       -0.94872928       1.22513943      -0.10075127
C        1.14227322      -0.31723541      -0.05192155
C        1.76497260       0.73940468       0.65070920
H       -2.29847390      -1.87983878      -0.20731964
H       -1.68825383      -1.03857344       1.21881895
H       -1.12455012      -2.66921021       0.84097093
H        0.11703109      -1.90890101      -1.11730736
H        0.91989994       1.29594254      -1.46314443
H       -0.52853388       2.22909310      -0.15408188
H       -1.14245150       1.01324213       0.95593499
H       -1.91372306       1.23726031      -0.61080405
H        1.84645388      -0.86353213      -0.66970272
H        1.17821317       1.35630063       1.32076556
H        1.62984376       1.60968812      -0.74456513
H        2.80736260       0.63440248       0.92932933
18
Frame=4 idx=003810 GeodesicLength=0.27330753864776697 rxn_smarts="[C:1]([C@@:2]1([H:10])[C@:3]([C:4]([H:12])([H:13])[H:14])([H:11])[C@:5]1([C:6]([H:16])([H:17])[H:18])[H:15])([H:7])([H:8])[H:9]>>[C:1](/[C:2](=[C:3](\[C:4]([H:12])([H:13])[H:14])[C:5](=[C:6]([H:16])[H:18])[H:15])[H:10])([H:7])([H:8])[H:9].[H:11][H:17]"
C       -1.41425906      -1.71326424       0.40416701
C       -0.30906890      -1.16574652      -0.45278033
C       -0.04664448       0.21102698      -0.75063741
C       -0.95165885       1.22594338      -0.09802169
C        1.14432369      -0.31295626      -0.04422533
C        1.77405398       0.74657865       0.65003432
H       -2.29928847      -1.89008723      -0.21378433
H       -1.69738142      -1.04205064       1.21199218
H       -1.12648418      -2.67114021       0.84021605
H        0.11137654      -1.90554790      -1.12547558
H        0.91757591       1.29408578      -1.48287566
H       -0.54158229       2.23312330      -0.16949133
H       -1.12852702       1.03189249       0.96475488
H       -1.92442651       1.22463289      -0.59290759
H        1.84938996      -0.86604197      -0.65589765
H        1.18694734       1.35476943       1.32824855
H        1.64292405       1.61611348      -0.75119867
H        2.81272971       0.62866857       0.93788258
18
Frame=5 idx=003810 GeodesicLength=0.3415039421873802 rxn_smarts="[C:1]([C@@:2]1([H:10])[C@:3]([C:4]([H:12])([H:13])[H:14])([H:11])[C@:5]1([C:6]([H:16])([H:17])[H:18])[H:15])([H:7])([H:8])[H:9]>>[C:1](/[C:2](=[C:3](\[C:4]([H:12])([H:13])[H:14])[C:5](=[C:6]([H:16])[H:18])[H:15])[H:10])([H:7])([H:8])[H:9].[H:11][H:17]"
C       -1.41757698      -1.71722877       0.39957114
C       -0.31256710      -1.16610693      -0.45525515
C       -0.04846468       0.21058975      -0.74592260
C       -0.95461535       1.22678425      -0.09524245
C        1.14636556      -0.30857918      -0.03651783
C        1.78313058       0.75367171       0.64949193
H       -2.30003880      -1.90034341      -0.22019904
H       -1.70638567      -1.04560306       1.20515793
H       -1.12833396      -2.67309480       0.83939219
H        0.10566924      -1.90206656      -1.13375507
H        0.91496768       1.29183813      -1.50304563
H       -0.55501090       2.23687532      -0.18512131
H       -1.11449256       1.05102581       0.97312607
H       -1.93489307       1.21211388      -0.57453068
H        1.85224597      -0.86849681      -0.64198127
H        1.19578990       1.35299397       1.33591971
H        1.65632592       1.62265267      -0.75759782
H        2.81788423       0.62297402       0.94650987
18
Frame=6 idx=003810 GeodesicLength=0.40970707935148043 rxn_smarts="[C:1]([C@@:2]1([H:10])[C@:3]([C:4]([H:12])([H:13])[H:14])([H:11])[C@:5]1([C:6]([H:16])([H:17])[H:18])[H:15])([H:7])([H:8])[H:9]>>[C:1](/[C:2](=[C:3](\[C:4]([H:12])([H:13])[H:14])[C:5](=[C:6]([H:16])[H:18])[H:15])[H:10])([H:7])([H:8])[H:9].[H:11][H:17]"
C       -1.42083329      -1.72122506       0.39495270
C       -0.31609300      -1.16642890      -0.45780521
C       -0.05031726       0.21018659      -0.74114758
C       -0.95759633       1.22766529      -0.09241519
C        1.14840139      -0.30410331      -0.02880471
C        1.79219738       0.76067157       0.64910673
H       -2.30072751      -1.91060020      -0.22656563
H       -1.71526096      -1.04923781       1.19832339
H       -1.13009961      -2.67507899       0.83848928
H        0.09990522      -1.89845395      -1.14214766
H        0.91204622       1.28916062      -1.52368599
H       -0.56883413       2.24033087      -0.20098070
H       -1.10033846       1.07067283       0.98102535
H       -1.94511661       1.19970526      -0.55565677
H        1.85502231      -0.87089058      -0.62796020
H        1.20473497       1.35097011       1.34378770
H        1.67007217       1.62932998      -0.76371325
H        2.82283751       0.61732568       0.95519775
18
Frame=7 idx=003810 GeodesicLength=0.47792009457735507 rxn_smarts="[C:1]([C@@:2]1([H:10])[C@:3]([C:4]([H:12])([H:13])[H:14])([H:11])[C@:5]1([C:6]([H:16])([H:17])[H:18])[H:15])([H:7])([H:8])[H:9]>>[C:1](/[C:2](=[C:3](\[C:4]([H:12])([H:13])[H:14])[C:5](=[C:6]([H:16])[H:18])[H:15])[H:10])([H:7])([H:8])[H:9].[H:11][H:17]"
C       -1.42402803      -1.72525402       0.39030918
C       -0.31964690      -1.16671110      -0.46043113
C       -0.05220197       0.20981699      -0.73631087
C       -0.96060086       1.22858797      -0.08954174
C        1.15043283      -0.29952850      -0.02108902
C        1.80124959       0.76756929       0.64890175
H       -2.30135684      -1.92085179      -0.23288646
H       -1.72400366      -1.05296236       1.19149428
H       -1.13178277      -2.67709768       0.83749733
H        0.09408017      -1.89470634      -1.15065506
H        0.90878541       1.28601809      -1.54482582
H       -0.58306402       2.24347348      -0.21707584
H       -1.08605573       1.09086105       0.98843097
H       -1.95508893       1.18740988      -0.53626923
H        1.85771973      -0.87321812      -0.61383909
H        1.21377588       1.34869675       1.35185920
H        1.68418274       1.63616774      -0.76949979
H        2.82760335       0.61172868       0.96393135
18
Frame=8 idx=003810 GeodesicLength=0.5461784813484564 rxn_smarts="[C:1]([C@@:2]1([H:10])[C@:3]([C:4]([H:12])([H:13])[H:14])([H:11])[C@:5]1([C:6]([H:16])([H:17])[H:18])[H:15])([H:7])([H:8])[H:9]>>[C:1](/[C:2](=[C:3](\[C:4]([H:12])([H:13])[H:14])[C:5](=[C:6]([H:16])[H:18])[H:15])[H:10])([H:7])([H:8])[H:9].[H:11][H:17]"
C       -1.42715906      -1.72931473       0.38564041
C       -0.32322871      -1.16695168      -0.46313418
C       -0.05411955       0.20948104      -0.73141322
C       -0.96362603       1.22955618      -0.08662444
C        1.15246350      -0.29485287      -0.01338160
C        1.81028092       0.77435252       0.64890415
H       -2.30192876      -1.93109127      -0.23916013
H       -1.73260610      -1.05678104       1.18467889
H       -1.13338082      -2.67915398       0.83640954
H        0.08818887      -1.89082166      -1.15928031
H        0.90514715       1.28236130      -1.56650708
H       -0.59771703       2.24628176      -0.23342140
H       -1.07163324       1.11162550       0.99531032
H       -1.96480104       1.17523189      -0.51634583
H        1.86034107      -0.87546852      -0.59963541
H        1.22290077       1.34616429       1.36014830
H        1.69868371       1.64320206      -0.77489367
H        2.83219436       0.60617919       0.97270567
18
Frame=9 idx=003810 GeodesicLength=0.6146795805253638 rxn_smarts="[C:1]([C@@:2]1([H:10])[C@:3]([C:4]([H:12])([H:13])[H:14])([H:11])[C@:5]1([C:6]([H:16])([H:17])[H:18])[H:15])([H:7])([H:8])[H:9]>>[C:1](/[C:2](=[C:3](\[C:4]([H:12])([H:13])[H:14])[C:5](=[C:6]([H:16])[H:18])[H:15])[H:10])([H:7])([H:8])[H:9].[H:11][H:17]"
C       -1.43021515      -1.73340116       0.38095730
C       -0.32683952      -1.16714450      -0.46591613
C       -0.05607738       0.20918303      -0.72646085
C       -0.96666816       1.23058748      -0.08367790
C        1.15450314      -0.29006194      -0.00572365
C        1.81927572       0.78098999       0.64915834
H       -2.30243965      -1.94131490      -0.24536413
H       -1.74104619      -1.06068931       1.17789377
H       -1.13487457      -2.68124110       0.83523438
H        0.08221806      -1.88679810      -1.16802954
H        0.90104262       1.27809387      -1.58884049
H       -0.61279499       2.24874662      -0.25005950
H       -1.05703685       1.13300936       1.00161471
H       -1.97424339       1.16316320      -0.49586866
H        1.86289425      -0.87760738      -0.58541339
H        1.23207416       1.34332347       1.36869391
H        1.71362016       1.65051675      -0.77975049
H        2.83660774       0.60064461       0.98155233
18
Frame=10 idx=003810 GeodesicLength=0.6832149864733764 rxn_smarts="[C:1]([C@@:2]1([H:10])[C@:3]([C:4]([H:12])([H:13])[H:14])([H:11])[C@:5]1([C:6]([H:16])([H:17])[H:18])[H:15])([H:7])([H:8])[H:9]>>[C:1](/[C:2](=[C:3](\[C:4]([H:12])([H:13])[H:14])[C:5](=[C:6]([H:16])[H:18])[H:15])[H:10])([H:7])([H:8])[H:9].[H:11][H:17]"
C       -1.43320115      -1.73751513       0.37624990
C       -0.33047883      -1.16729038      -0.46878067
C       -0.05806759       0.20892004      -0.72145324
C       -0.96972547       1.23167186      -0.08069754
C        1.15655035      -0.28516436       0.00190152
C        1.82823775       0.78749081       0.64967434
H       -2.30289740      -1.95150896      -0.25151386
H       -1.74932459      -1.06469677       1.17114078
H       -1.13627528      -2.68337008       0.83394913
H        0.07616638      -1.88262990      -1.17690422
H        0.89647527       1.27320917      -1.61179583
H       -0.62833049       2.25083354      -0.26697607
H       -1.04227199       1.15503500       1.00732142
H       -1.98340270       1.15121828      -0.47481179
H        1.86537840      -0.87964822      -0.57114180
H        1.24130305       1.34019603       1.37748740
H        1.72899561       1.65810678      -0.78408807
H        2.84086866       0.59514229       0.99043861
18
Frame=11 idx=003810 GeodesicLength=0.7517718825086198 rxn_smarts="[C:1]([C@@:2]1([H:10])[C@:3]([C:4]([H:12])([H:13])[H:14])([H:11])[C@:5]1([C:6]([H:16])([H:17])[H:18])[H:15])([H:7])([H:8])[H:9]>>[C:1](/[C:2](=[C:3](\[C:4]([H:12])([H:13])[H:14])[C:5](=[C:6]([H:16])[H:18])[H:15])[H:10])([H:7])([H:8])[H:9].[H:11][H:17]"
C       -1.43611316      -1.74165360       0.37152054
C       -0.33414760      -1.16738573      -0.47173031
C       -0.06009110       0.20869312      -0.71639408
C       -0.97279498       1.23281421      -0.07768731
C        1.15860949      -0.28015714       0.00947903
C        1.83716119       0.79384373       0.65047783
H       -2.30330454      -1.96166439      -0.25760253
H       -1.75742888      -1.06880440       1.16443127
H       -1.13757689      -2.68554207       0.83254854
H        0.07002590      -1.87831409      -1.18590928
H        0.89140303       1.26765887      -1.63541820
H       -0.64433923       2.25252306      -0.28419084
H       -1.02732244       1.17773150       1.01239545
H       -1.99226817       1.13939788      -0.45315682
H        1.86779710      -0.88157960      -0.55684218
H        1.25057033       1.33676354       1.38654575
H        1.74483405       1.66601561      -0.78783606
H        2.84498590       0.58965952       0.99936923
18
Frame=12 idx=003810 GeodesicLength=0.820330174131613 rxn_smarts="[C:1]([C@@:2]1([H:10])[C@:3]([C:4]([H:12])([H:13])[H:14])([H:11])[C@:5]1([C:6]([H:16])([H:17])[H:18])[H:15])([H:7])([H:8])[H:9]>>[C:1](/[C:2](=[C:3](\[C:4]([H:12])([H:13])[H:14])[C:5](=[C:6]([H:16])[H:18])[H:15])[H:10])([H:7])([H:8])[H:9].[H:11][H:17]"
C       -1.43894673      -1.74581289       0.36677045
C       -0.33784645      -1.16742666      -0.47476875
C       -0.06214734       0.20850381      -0.71128898
C       -0.97587349       1.23401938      -0.07465521
C        1.16068544      -0.27503621       0.01699316
C        1.84603990       0.80004052       0.65159709
H       -2.30366325      -1.97177144      -0.26362430
H       -1.76534609      -1.07301205       1.15777525
H       -1.13877348      -2.68775713       0.83102649
H        0.06378811      -1.87384658      -1.19504870
H        0.88577476       1.26138371      -1.65975272
H       -0.66084229       2.25378926      -0.30172250
H       -1.01216840       1.20113163       1.01679489
H       -2.00082445       1.12770557      -0.43087573
H        1.87015519      -0.88338850      -0.54253721
H        1.25985765       1.33300546       1.39588839
H        1.76116213       1.67429264      -0.79092451
H        2.84896879       0.58417950       1.00835290
18
Frame=13 idx=003810 GeodesicLength=0.8888603718446554 rxn_smarts="[C:1]([C@@:2]1([H:10])[C@:3]([C:4]([H:12])([H:13])[H:14])([H:11])[C@:5]1([C:6]([H:16])([H:17])[H:18])[H:15])([H:7])([H:8])[H:9]>>[C:1](/[C:2](=[C:3](\[C:4]([H:12])([H:13])[H:14])[C:5](=[C:6]([H:16])[H:18])[H:15])[H:10])([H:7])([H:8])[H:9].[H:11][H:17]"
C       -1.44169616      -1.74998813       0.36200407
C       -0.34157593      -1.16740950      -0.47789986
C       -0.06423650       0.20835295      -0.70614587
C       -0.97895647       1.23529280      -0.07161038
C        1.16278397      -0.26979734       0.02442407
C        1.85486636       0.80606929       0.65306042
H       -2.30397559      -1.98182041      -0.26956859
H       -1.77305978      -1.07731714       1.15118604
H       -1.13985578      -2.69001407       0.82938071
H        0.05744360      -1.86922525      -1.20432758
H        0.87954063       1.25432820      -1.68484937
H       -0.67786005       2.25460796      -0.31958722
H       -0.99679144       1.22527052       1.02046818
H       -2.00905398       1.11614476      -0.40794307
H        1.87245910      -0.88505986      -0.52825757
H        1.26914206       1.32889394       1.40553690
H        1.77800267       1.68299027      -0.79327332
H        2.85282330       0.57868100       1.01740245
18
Frame=14 idx=003810 GeodesicLength=0.9573512410886597 rxn_smarts="[C:1]([C@@:2]1([H:10])[C@:3]([C:4]([H:12])([H:13])[H:14])([H:11])[C@:5]1([C:6]([H:16])([H:17])[H:18])[H:15])([H:7])([H:8])[H:9]>>[C:1](/[C:2](=[C:3](\[C:4]([H:12])([H:13])[H:14])[C:5](=[C:6]([H:16])[H:18])[H:15])[H:10])([H:7])([H:8])[H:9].[H:11][H:17]"
C       -1.44435327      -1.75417240       0.35722691
C       -0.34533623      -1.16732920      -0.48112974
C       -0.06635760       0.20824300      -0.70097579
C       -0.98203776       1.23664163      -0.06856331
C        1.16491319      -0.26443464       0.03174564
C        1.86363330       0.81191855       0.65490155
H       -2.30424411      -1.99179817      -0.27542115
H       -1.78054807      -1.08171481       1.14467943
H       -1.14081119      -2.69230990       0.82760850
H        0.05098038      -1.86444605      -1.21375290
H        0.87263304       1.24641942      -1.71076797
H       -0.69541919       2.25494756      -0.33781036
H       -0.98116964       1.25018556       1.02335306
H       -2.01693479       1.10472145      -0.38432479
H        1.87471677      -0.88657629      -0.51403886
H        1.27839676       1.32439298       1.41551878
H        1.79538631       1.69217772      -0.79478972
H        2.85655209       0.57313360       1.02654072
18
Frame=15 idx=003810 GeodesicLength=1.0257595520962632 rxn_smarts="[C:1]([C@@:2]1([H:10])[C@:3]([C:4]([H:12])([H:13])[H:14])([H:11])[C@:5]1([C:6]([H:16])([H:17])[H:18])[H:15])([H:7])([H:8])[H:9]>>[C:1](/[C:2](=[C:3](\[C:4]([H:12])([H:13])[H:14])[C:5](=[C:6]([H:16])[H:18])[H:15])[H:10])([H:7])([H:8])[H:9].[H:11][H:17]"
C       -1.44691014      -1.75835904       0.35244497
C       -0.34912784      -1.16718168      -0.48446428
C       -0.06850963       0.20817540      -0.69579163
C       -0.98511091       1.23807166      -0.06552498
C        1.16708068      -0.25894296       0.03893198
C        1.87233271       0.81757652       0.65715211
H       -2.30447185      -2.00169182      -0.28116681
H       -1.78778869      -1.08619988       1.13827177
H       -1.14162778      -2.69464153       0.82570814
H        0.04438700      -1.85950773      -1.22333092
H        0.86499334       1.23759350      -1.73756094
H       -0.71355056       2.25477465      -0.35641214
H       -0.96528134       1.27591741       1.02537544
H       -2.02443830       1.09344387      -0.35998045
H        1.87693733      -0.88792044      -0.49991943
H        1.28759270       1.31946446       1.42585913
H        1.81333807       1.70192022      -0.79538228
H        2.86015521       0.56750738       1.03579032
18
Frame=16 idx=003810 GeodesicLength=1.0940546558841093 rxn_smarts="[C:1]([C@@:2]1([H:10])[C@:3]([C:4]([H:12])([H:13])[H:14])([H:11])[C@:5]1([C:6]([H:16])([H:17])[H:18])[H:15])([H:7])([H:8])[H:9]>>[C:1](/[C:2](=[C:3](\[C:4]([H:12])([H:13])[H:14])[C:5](=[C:6]([H:16])[H:18])[H:15])[H:10])([H:7])([H:8])[H:9].[H:11][H:17]"
C       -1.44935678      -1.76253925       0.34766632
C       -0.35295140      -1.16696179      -0.48791081
C       -0.07069116       0.20815232      -0.69060930
C       -0.98816728       1.23959035      -0.06250752
C        1.16929621      -0.25331568       0.04595056
C        1.88095633       0.82302977       0.65984853
H       -2.30466238      -2.01148503      -0.28678561
H       -1.79475314      -1.09076483       1.13198350
H       -1.14229048      -2.69700505       0.82367796
H        0.03764933      -1.85440941      -1.23306982
H        0.85655074       1.22777645      -1.76528726
H       -0.73229128       2.25405042      -0.37542037
H       -0.94910017       1.30251275       1.02644624
H       -2.03153234       1.08231964      -0.33486339
H        1.87913193      -0.88907235      -0.48594528
H        1.29669637       1.31406039       1.43658804
H        1.83188696       1.71229773      -0.79494438
H        2.86362853       0.56176356       1.04518259
