16
Frame=0 idx=000011 GeodesicLength=0.0 rxn_smarts="[C:1]1([H:7])([H:8])[C@@:2]2([H:9])[C:3]([H:10])([H:11])[C@:4]1([H:12])[C:5]([H:13])([H:14])[C:6]2([H:15])[H:16]>>[C:1]1([H:7])([H:8])[C:2][C:3]([H:10])([H:11])[C:4]1([C:5]([C:6]([H:9])([H:15])[H:16])([H:13])[H:14])[H:12]"
C        1.05558403      -0.72254027      -0.70293555
C        1.06031724      -0.58730530       0.82645871
C        0.96551330       0.92537604       0.58315889
C        0.30032043       0.61918076      -0.77281416
C       -1.15992284       0.29676493      -0.46292331
C       -1.17596239      -0.63868186       0.73915798
H        0.63235087      -1.61600468      -1.16493303
H        2.09151229      -0.61027341      -1.03180835
H       -0.07901528      -0.99464446       1.26493345
H        1.98816062       1.28600273       0.44869329
H        0.45930074       1.56008118       1.31224531
H        0.43425278       1.29237859      -1.62541724
H       -1.63561411      -0.17385648      -1.32591514
H       -1.71417783       1.21263371      -0.24721756
H       -1.57729469      -1.63014261       0.53103117
H       -1.64532523      -0.21896887       1.62828550
16
Frame=1 idx=000011 GeodesicLength=0.06168560059059033 rxn_smarts="[C:1]1([H:7])([H:8])[C@@:2]2([H:9])[C:3]([H:10])([H:11])[C@:4]1([H:12])[C:5]([H:13])([H:14])[C:6]2([H:15])[H:16]>>[C:1]1([H:7])([H:8])[C:2][C:3]([H:10])([H:11])[C:4]1([C:5]([C:6]([H:9])([H:15])[H:16])([H:13])[H:14])[H:12]"
C        1.05470578      -0.72289038      -0.70598097
C        1.05444044      -0.58651360       0.82197735
C        0.96892553       0.92604047       0.58023009
C        0.29956915       0.61951504      -0.77411818
C       -1.16074823       0.29948459      -0.46147517
C       -1.17236656      -0.63881161       0.73974576
H        0.63163169      -1.61611904      -1.16867815
H        2.09073376      -0.61193908      -1.03522538
H       -0.08167972      -0.99278199       1.30425919
H        1.99238642       1.28405828       0.44468968
H        0.46585091       1.56167770       1.31075598
H        0.43345504       1.29221066      -1.62668462
H       -1.63883192      -0.16864523      -1.32457467
H       -1.71322721       1.21612114      -0.24432328
H       -1.55699965      -1.63489243       0.52119621
H       -1.66784542      -0.22651449       1.61820617
16
Frame=2 idx=000011 GeodesicLength=0.12336515045079337 rxn_smarts="[C:1]1([H:7])([H:8])[C@@:2]2([H:9])[C:3]([H:10])([H:11])[C@:4]1([H:12])[C:5]([H:13])([H:14])[C:6]2([H:15])[H:16]>>[C:1]1([H:7])([H:8])[C:2][C:3]([H:10])([H:11])[C:4]1([C:5]([C:6]([H:9])([H:15])[H:16])([H:13])[H:14])[H:12]"
C        1.05386718      -0.72317207      -0.70915799
C        1.04797816      -0.58597569       0.81748143
C        0.97239709       0.92651160       0.57728261
C        0.29876503       0.61989354      -0.77545479
C       -1.16163032       0.30215527      -0.46002531
C       -1.16872482      -0.63888848       0.74049433
H        0.63096981      -1.61606286      -1.17277232
H        2.09009722      -0.61358233      -1.03842933
H       -0.08461992      -0.98964280       1.34340889
H        1.99677774       1.28163496       0.44083669
H        0.47257373       1.56323079       1.30917993
H        0.43258158       1.29217218      -1.62791320
H       -1.64208386      -0.16364098      -1.32313903
H       -1.71232662       1.21954694      -0.24139018
H       -1.53628736      -1.63940825       0.51193405
H       -1.69033466      -0.23477182       1.60766422
16
Frame=3 idx=000011 GeodesicLength=0.18504687296472608 rxn_smarts="[C:1]1([H:7])([H:8])[C@@:2]2([H:9])[C:3]([H:10])([H:11])[C@:4]1([H:12])[C:5]([H:13])([H:14])[C:6]2([H:15])[H:16]>>[C:1]1([H:7])([H:8])[C:2][C:3]([H:10])([H:11])[C:4]1([C:5]([C:6]([H:9])([H:15])[H:16])([H:13])[H:14])[H:12]"
C        1.05307109      -0.72339136      -0.71244151
C        1.04100105      -0.58565440       0.81298499
C        0.97591600       0.92680146       0.57432630
C        0.29791189       0.62030731      -0.77681381
C       -1.16256546       0.30477682      -0.45857334
C       -1.16506835      -0.63890209       0.74140195
H        0.63036414      -1.61585129      -1.17716739
H        2.08959399      -0.61520398      -1.04143221
H       -0.08780852      -0.98534722       1.38226527
H        2.00130493       1.27878623       0.43712862
H        0.47944677       1.56473619       1.30753191
H        0.43164157       1.29224685      -1.62909868
H       -1.64536177      -0.15883657      -1.32161636
H       -1.71147424       1.22291242      -0.23842965
H       -1.51527163      -1.64364810       0.50324287
H       -1.71270146      -0.24373225       1.59669103
16
Frame=4 idx=000011 GeodesicLength=0.24673329981749387 rxn_smarts="[C:1]1([H:7])([H:8])[C@@:2]2([H:9])[C:3]([H:10])([H:11])[C@:4]1([H:12])[C:5]([H:13])([H:14])[C:6]2([H:15])[H:16]>>[C:1]1([H:7])([H:8])[C:2][C:3]([H:10])([H:11])[C:4]1([C:5]([C:6]([H:9])([H:15])[H:16])([H:13])[H:14])[H:12]"
C        1.05231833      -0.72355505      -0.71580617
C        1.03358011      -0.58551091       0.80850071
C        0.97947127       0.92692468       0.57136942
C        0.29701386       0.62074810      -0.77818632
C       -1.16354973       0.30735078      -0.45711863
C       -1.16142272      -0.63884523       0.74246419
H        0.62981157      -1.61550172      -1.18181248
H        2.08921267      -0.61680686      -1.04424763
H       -0.09121930      -0.98001879       1.42073464
H        2.00593969       1.27556710       0.43355665
H        0.48644831       1.56619138       1.30582578
H        0.43064421       1.29241775      -1.63023911
H       -1.64865858      -0.15422111      -1.32001493
H       -1.71066739       1.22622030      -0.23544969
H       -1.49406068      -1.64757695       0.49510764
H       -1.73486162      -0.25338348       1.58531593
16
Frame=5 idx=000011 GeodesicLength=0.30843261412130807 rxn_smarts="[C:1]1([H:7])([H:8])[C@@:2]2([H:9])[C:3]([H:10])([H:11])[C@:4]1([H:12])[C:5]([H:13])([H:14])[C:6]2([H:15])[H:16]>>[C:1]1([H:7])([H:8])[C:2][C:3]([H:10])([H:11])[C:4]1([C:5]([C:6]([H:9])([H:15])[H:16])([H:13])[H:14])[H:12]"
C        1.05160750      -0.72367053      -0.71922752
C        1.02578510      -0.58550696       0.80403912
C        0.98305245       0.92689767       0.56841807
C        0.29607540       0.62120865      -0.77956513
C       -1.16457897       0.30988084      -0.45566150
C       -1.15780948      -0.63871474       0.74367156
H        0.62930701      -1.61503239      -1.18665686
H        2.08893949      -0.61839553      -1.04689003
H       -0.09482911      -0.97377809       1.45875312
H        2.01065560       1.27203189       0.43010989
H        0.49355698       1.56759517       1.30407382
H        0.42959911       1.29266792      -1.63133489
H       -1.65196819      -0.14977844      -1.31834466
H       -1.70990301       1.22947499      -0.23245524
H       -1.47275438      -1.65116663       0.48750504
H       -1.75673547      -0.26371381       1.57356520
16
Frame=6 idx=000011 GeodesicLength=0.3701422873857845 rxn_smarts="[C:1]1([H:7])([H:8])[C@@:2]2([H:9])[C:3]([H:10])([H:11])[C@:4]1([H:12])[C:5]([H:13])([H:14])[C:6]2([H:15])[H:16]>>[C:1]1([H:7])([H:8])[C:2][C:3]([H:10])([H:11])[C:4]1([C:5]([C:6]([H:9])([H:15])[H:16])([H:13])[H:14])[H:12]"
C        1.05093616      -0.72374483      -0.72268359
C        1.01768031      -0.58560744       0.79960835
C        0.98665027       0.92673650       0.56547764
C        0.29510066       0.62168288      -0.78094389
C       -1.16564932       0.31237090      -0.45420218
C       -1.15424614      -0.63850866       0.74501457
H        0.62884456      -1.61446171      -1.19165195
H        2.08876043      -0.61997459      -1.04937531
H       -0.09861549      -0.96674049       1.49627665
H        2.01542851       1.26823196       0.42677679
H        0.50075329       1.56894587       1.30228824
H        0.42851487       1.29298220      -1.63238696
H       -1.65528526      -0.14549223      -1.31661502
H       -1.70917817       1.23268064      -0.22945039
H       -1.45144097      -1.65439796       0.48040572
H       -1.77825371      -0.27470304       1.56146133
16
Frame=7 idx=000011 GeodesicLength=0.43185921496256474 rxn_smarts="[C:1]1([H:7])([H:8])[C@@:2]2([H:9])[C:3]([H:10])([H:11])[C@:4]1([H:12])[C:5]([H:13])([H:14])[C:6]2([H:15])[H:16]>>[C:1]1([H:7])([H:8])[C:2][C:3]([H:10])([H:11])[C:4]1([C:5]([C:6]([H:9])([H:15])[H:16])([H:13])[H:14])[H:12]"
C        1.05030121      -0.72378447      -0.72615534
C        1.00932525      -0.58578087       0.79521375
C        0.99025645       0.92645662       0.56255206
C        0.29409378       0.62216594      -0.78231776
C       -1.16675688       0.31482528      -0.45274203
C       -1.15074609      -0.63822734       0.74648152
H        0.62841798      -1.61380647      -1.19675448
H        2.08866112      -0.62154821      -1.05171971
H       -0.10256393      -0.95901359       1.53328247
H        2.02023720       1.26421417       0.42354613
H        0.50801920       1.57024228       1.30047960
H        0.42739973       1.29334713      -1.63339709
H       -1.65860518      -0.14134556      -1.31483586
H       -1.70848991       1.23584132      -0.22643810
H       -1.43019638      -1.65725581       0.47378143
H       -1.79935356      -0.28633040       1.54902340
16
Frame=8 idx=000011 GeodesicLength=0.49358395083221457 rxn_smarts="[C:1]1([H:7])([H:8])[C@@:2]2([H:9])[C:3]([H:10])([H:11])[C@:4]1([H:12])[C:5]([H:13])([H:14])[C:6]2([H:15])[H:16]>>[C:1]1([H:7])([H:8])[C:2][C:3]([H:10])([H:11])[C:4]1([C:5]([C:6]([H:9])([H:15])[H:16])([H:13])[H:14])[H:12]"
C        1.04969860      -0.72379592      -0.72962642
C        1.00077404      -0.58599883       0.79085873
C        0.99386444       0.92607322       0.55964359
C        0.29305865       0.62265377      -0.78368322
C       -1.16789784       0.31724907      -0.45128165
C       -1.14731883      -0.63787335       0.74805983
H        0.62802036      -1.61308351      -1.20192438
H        2.08862761      -0.62312128      -1.05393927
H       -0.10666491      -0.95068903       1.56977155
H        2.02506366       1.26002156       0.42040519
H        0.51533939       1.57148380       1.29865686
H        0.42626100       1.29375024      -1.63436843
H       -1.66192465      -0.13731945      -1.31301615
H       -1.70783477       1.23896179      -0.22341871
H       -1.40908717      -1.65973418       0.46759431
H       -1.81997958      -0.29857791       1.53626816
16
Frame=9 idx=000011 GeodesicLength=0.5553007130859181 rxn_smarts="[C:1]1([H:7])([H:8])[C@@:2]2([H:9])[C:3]([H:10])([H:11])[C@:4]1([H:12])[C:5]([H:13])([H:14])[C:6]2([H:15])[H:16]>>[C:1]1([H:7])([H:8])[C:2][C:3]([H:10])([H:11])[C:4]1([C:5]([C:6]([H:9])([H:15])[H:16])([H:13])[H:14])[H:12]"
C        1.04912849      -0.72378286      -0.73308474
C        0.99207315      -0.58623947       0.78654013
C        0.99746786       0.92559975       0.55675338
C        0.29199831       0.62314300      -0.78503928
C       -1.16906867       0.31964281      -0.44982328
C       -1.14396652      -0.63745577       0.74973438
H        0.62765363      -1.61230548      -1.20713466
H        2.08865104      -0.62469397      -1.05604803
H       -0.11094961      -0.94186739       1.60573907
H        2.02989210       1.25569160       0.41734432
H        0.52269882       1.57266672       1.29682924
H        0.42510276       1.29418283      -1.63530446
H       -1.66523984      -0.13340244      -1.31116471
H       -1.70721312       1.24204406      -0.22038993
H       -1.38815208      -1.66183985       0.46181549
H       -1.84007634      -0.31138353       1.52323309
16
Frame=10 idx=000011 GeodesicLength=0.617026018978464 rxn_smarts="[C:1]1([H:7])([H:8])[C@@:2]2([H:9])[C:3]([H:10])([H:11])[C@:4]1([H:12])[C:5]([H:13])([H:14])[C:6]2([H:15])[H:16]>>[C:1]1([H:7])([H:8])[C:2][C:3]([H:10])([H:11])[C:4]1([C:5]([C:6]([H:9])([H:15])[H:16])([H:13])[H:14])[H:12]"
C        1.04858270      -0.72375206      -0.73652086
C        0.98326652      -0.58648248       0.78226115
C        1.00106298       0.92504632       0.55388344
C        0.29091595       0.62363134      -0.78638182
C       -1.17026618       0.32201285      -0.44836630
C       -1.14069757      -0.63697759       0.75149478
H        0.62730345      -1.61148699      -1.21235284
H        2.08871497      -0.62627190      -1.05806592
H       -0.11537302      -0.93259534       1.64123656
H        2.03471052       1.25125525       0.41435173
H        0.53008758       1.57378965       1.29500422
H        0.42393127       1.29463625      -1.63620599
H       -1.66854924      -0.12957361      -1.30928933
H       -1.70661936       1.24509148      -0.21735331
H       -1.36745029      -1.66357165       0.45639968
H       -1.85962027      -0.32475153       1.50990483
16
Frame=11 idx=000011 GeodesicLength=0.678755421254716 rxn_smarts="[C:1]1([H:7])([H:8])[C@@:2]2([H:9])[C:3]([H:10])([H:11])[C@:4]1([H:12])[C:5]([H:13])([H:14])[C:6]2([H:15])[H:16]>>[C:1]1([H:7])([H:8])[C:2][C:3]([H:10])([H:11])[C:4]1([C:5]([C:6]([H:9])([H:15])[H:16])([H:13])[H:14])[H:12]"
C        1.04805750      -0.72370784      -0.73992864
C        0.97438967      -0.58671299       0.77801965
C        1.00464607       0.92442154       0.55103505
C        0.28981379       0.62411687      -0.78770890
C       -1.17148762       0.32436114      -0.44691118
C       -1.13751386      -0.63644637       0.75332969
H        0.62696470      -1.61063922      -1.21755850
H        2.08880873      -0.62785716      -1.06000927
H       -0.11993350      -0.92292460       1.67630130
H        2.03950875       1.24673816       0.41141865
H        0.53749610       1.57484903       1.29318922
H        0.42274967       1.29510501      -1.63707421
H       -1.67185092      -0.12581954      -1.30739694
H       -1.70605219       1.24810558      -0.21430735
H       -1.34701589      -1.66494177       0.45130862
H       -1.87858100      -0.33864783       1.49629280
16
Frame=12 idx=000011 GeodesicLength=0.7404893401972447 rxn_smarts="[C:1]1([H:7])([H:8])[C@@:2]2([H:9])[C:3]([H:10])([H:11])[C@:4]1([H:12])[C:5]([H:13])([H:14])[C:6]2([H:15])[H:16]>>[C:1]1([H:7])([H:8])[C:2][C:3]([H:10])([H:11])[C:4]1([C:5]([C:6]([H:9])([H:15])[H:16])([H:13])[H:14])[H:12]"
C        1.04754947      -0.72365360      -0.74330473
C        0.96547324      -0.58692048       0.77381171
C        1.00821408       0.92373214       0.54820872
C        0.28869371       0.62459823      -0.78901931
C       -1.17273044       0.32668877      -0.44545849
C       -1.13441555      -0.63587141       0.75522767
H        0.62663297      -1.60977130      -1.22273610
H        2.08892317      -0.62945037      -1.06189354
H       -0.12463146      -0.91289675       1.71097901
H        2.04427832       1.24216186       0.40853723
H        0.54491622       1.57584007       1.29139100
H        0.42156024       1.29558515      -1.63791016
H       -1.67514337      -0.12212842      -1.30549384
H       -1.70551014       1.25108666      -0.21125088
H       -1.32687620      -1.66596245       0.44650602
H       -1.89693427      -0.35303809       1.48240569
16
Frame=13 idx=000011 GeodesicLength=0.8022240096929496 rxn_smarts="[C:1]1([H:7])([H:8])[C@@:2]2([H:9])[C:3]([H:10])([H:11])[C@:4]1([H:12])[C:5]([H:13])([H:14])[C:6]2([H:15])[H:16]>>[C:1]1([H:7])([H:8])[C:2][C:3]([H:10])([H:11])[C:4]1([C:5]([C:6]([H:9])([H:15])[H:16])([H:13])[H:14])[H:12]"
C        1.04705557      -0.72359207      -0.74664801
C        0.95654267      -0.58709710       0.76963255
C        1.01176496       0.92298356       0.54540459
C        0.28755738       0.62507469      -0.79031255
C       -1.17399235       0.32899688      -0.44400890
C       -1.13140124      -0.63526112       0.75717863
H        0.62630422      -1.60889045      -1.22787535
H        2.08905047      -0.63105178      -1.06373306
H       -0.12947809      -0.90254302       1.74531712
H        2.04901311       1.23754331       0.40570073
H        0.55234167       1.57675863       1.28961504
H        0.42036475       1.29607434      -1.63871482
H       -1.67842559      -0.11848989      -1.30358532
H       -1.70499193       1.25403467      -0.20818228
H       -1.30704933      -1.66665049       0.44195929
H       -1.91465627      -0.36789018       1.46825235
16
Frame=14 idx=000011 GeodesicLength=0.8639581030044443 rxn_smarts="[C:1]1([H:7])([H:8])[C@@:2]2([H:9])[C:3]([H:10])([H:11])[C@:4]1([H:12])[C:5]([H:13])([H:14])[C:6]2([H:15])[H:16]>>[C:1]1([H:7])([H:8])[C:2][C:3]([H:10])([H:11])[C:4]1([C:5]([C:6]([H:9])([H:15])[H:16])([H:13])[H:14])[H:12]"
C        1.04657307      -0.72352553      -0.74995900
C        0.94761866      -0.58723853       0.76547629
C        1.01529633       0.92217939       0.54262307
C        0.28640599       0.62554578      -0.79158835
C       -1.17527158       0.33128578      -0.44256389
C       -1.12847026      -0.63462506       0.75917133
H        0.62597526      -1.60800285      -1.23296878
H        2.08918391      -0.63266087      -1.06554172
H       -0.13448117      -0.89188519       1.77936719
H        2.05370745       1.23289628       0.40290396
H        0.55976594       1.57759896       1.28786717
H        0.41916461       1.29657141      -1.63948863
H       -1.68169662      -0.11489444      -1.30167784
H       -1.70449689       1.25694917      -0.20510099
H       -1.28755117      -1.66702225       0.43763758
H       -1.93172355      -0.38317204       1.45384260
16
Frame=15 idx=000011 GeodesicLength=0.9256893481477535 rxn_smarts="[C:1]1([H:7])([H:8])[C@@:2]2([H:9])[C:3]([H:10])([H:11])[C@:4]1([H:12])[C:5]([H:13])([H:14])[C:6]2([H:15])[H:16]>>[C:1]1([H:7])([H:8])[C:2][C:3]([H:10])([H:11])[C:4]1([C:5]([C:6]([H:9])([H:15])[H:16])([H:13])[H:14])[H:12]"
C        1.04610017      -0.72345554      -0.75324047
C        0.93872026      -0.58734239       0.76133579
C        1.01880770       0.92132228       0.53986367
C        0.28524097       0.62601139      -0.79284699
C       -1.17656581       0.33355524      -0.44112372
C       -1.12561838      -0.63397285       0.76119704
H        0.62564364      -1.60711324      -1.23801306
H        2.08931825      -0.63427631      -1.06733366
H       -0.13966247      -0.88093379       1.81318201
H        2.05835827       1.22823163       0.40014132
H        0.56718563       1.57835537       1.28615219
H        0.41796032       1.29707633      -1.64023210
H       -1.68495575      -0.11133447      -1.29977520
H       -1.70402376       1.25982898      -0.20200419
H       -1.26839174      -1.66709578       0.43351218
H       -1.94811727      -0.39885686       1.43918521
16
Frame=16 idx=000011 GeodesicLength=0.9874161843727618 rxn_smarts="[C:1]1([H:7])([H:8])[C@@:2]2([H:9])[C:3]([H:10])([H:11])[C@:4]1([H:12])[C:5]([H:13])([H:14])[C:6]2([H:15])[H:16]>>[C:1]1([H:7])([H:8])[C:2][C:3]([H:10])([H:11])[C:4]1([C:5]([C:6]([H:9])([H:15])[H:16])([H:13])[H:14])[H:12]"
C        1.04563555      -0.72338323      -0.75649676
C        0.92986322      -0.58740857       0.75720318
C        1.02229872       0.92041343       0.53712589
C        0.28406341       0.62647158      -0.79408899
C       -1.17787300       0.33580431      -0.43968875
C       -1.12284104      -0.63331516       0.76324686
H        0.62530783      -1.60622498      -1.24300843
H        2.08944939      -0.63589604      -1.06912252
H       -0.14504907      -0.86969242       1.84681481
H        2.06296321       1.22355757       0.39740827
H        0.57459773       1.57902151       1.28447460
H        0.41675182       1.29759010      -1.64094529
H       -1.68820266      -0.10780313      -1.29788115
H       -1.70357151       1.26267207      -0.19888917
H       -1.24957624      -1.66689152       0.42955580
H       -1.96381738      -0.41491551       1.42429166
