18
Frame=0 idx=008962 GeodesicLength=0.0 rxn_smarts="[C:1]([C:2]([N:3]1[C:4]([H:13])([H:14])[C@:5]1([C:6]([O:7][H:18])([H:16])[H:17])[H:15])([H:11])[H:12])([H:8])([H:9])[H:10]>>[C:1]([C:2]([N+:3]([C-:4]([H:13])[H:14])=[C:5]([C:6]([O:7][H:18])([H:16])[H:17])[H:15])([H:11])[H:12])([H:8])([H:9])[H:10]"
C       -1.80074936      -1.03908820      -0.47133313
C       -1.57414613       0.07183687       0.53877112
N       -0.17964331       0.45536586       0.62995546
C        0.59222323       0.80679326       1.69312871
C        0.68041575       0.84922257      -0.33059148
C        1.94904232       0.11597770      -0.62756005
O        1.88764745      -0.53089072      -1.89629649
H       -2.85707260      -1.30905817      -0.51360124
H       -1.22776507      -1.92936496      -0.20407497
H       -1.49875290      -0.72299644      -1.47194800
H       -2.17775724       0.94978496       0.27637740
H       -1.87452236      -0.23429326       1.54327723
H        0.84669657       1.84628433       1.84104451
H        0.78614576       0.09825654       2.49702262
H        0.33200958       1.53472931      -1.11158694
H        2.80444149       0.78886005      -0.70404489
H        2.15106688      -0.59436648       0.18301553
H        1.16071995      -1.15705314      -1.87155539
18
Frame=1 idx=008962 GeodesicLength=0.06414017302487388 rxn_smarts="[C:1]([C:2]([N:3]1[C:4]([H:13])([H:14])[C@:5]1([C:6]([O:7][H:18])([H:16])[H:17])[H:15])([H:11])[H:12])([H:8])([H:9])[H:10]>>[C:1]([C:2]([N+:3]([C-:4]([H:13])[H:14])=[C:5]([C:6]([O:7][H:18])([H:16])[H:17])[H:15])([H:11])[H:12])([H:8])([H:9])[H:10]"
C       -1.82893516      -1.03746772      -0.47115036
C       -1.57456079       0.07109438       0.53480502
N       -0.16793093       0.40554082       0.62610340
C        0.59482630       0.78236778       1.68741034
C        0.68408174       0.83726306      -0.32587196
C        1.97011590       0.14179164      -0.63537130
O        1.90585210      -0.54810025      -1.87955019
H       -2.89299871      -1.27449067      -0.51849897
H       -1.28740469      -1.94459589      -0.19533460
H       -1.51121942      -0.73631227      -1.47148710
H       -2.14820923       0.96630328       0.26426517
H       -1.88878242      -0.22076157       1.53921763
H        0.83646618       1.82346293       1.84399083
H        0.78373247       0.07786914       2.49538971
H        0.31512791       1.52213804      -1.09698687
H        2.79463708       0.84763646      -0.75235285
H        2.23185204      -0.53569316       0.18632295
H        1.18334963      -1.17804602      -1.83090085
18
Frame=2 idx=008962 GeodesicLength=0.124728818352715 rxn_smarts="[C:1]([C:2]([N:3]1[C:4]([H:13])([H:14])[C@:5]1([C:6]([O:7][H:18])([H:16])[H:17])[H:15])([H:11])[H:12])([H:8])([H:9])[H:10]>>[C:1]([C:2]([N+:3]([C-:4]([H:13])[H:14])=[C:5]([C:6]([O:7][H:18])([H:16])[H:17])[H:15])([H:11])[H:12])([H:8])([H:9])[H:10]"
C       -1.85531956      -1.03551682      -0.47065948
C       -1.57405541       0.07069997       0.53055002
N       -0.15725717       0.35853632       0.62126293
C        0.59686711       0.75783638       1.68103437
C        0.68724123       0.82604823      -0.32134385
C        1.98856932       0.16667342      -0.64256575
O        1.92494390      -0.56552642      -1.86071466
H       -2.92574171      -1.24109350      -0.52236174
H       -1.34398783      -1.95733812      -0.18639605
H       -1.52349883      -0.74962046      -1.47085027
H       -2.11891247       0.98110970       0.25203928
H       -1.90121172      -0.20662739       1.53481554
H        0.82789336       1.79966261       1.84723326
H        0.78166042       0.05586042       2.49148658
H        0.29940846       1.51039110      -1.08262480
H        2.78119475       0.90179233      -0.79900058
H        2.30599758      -0.47511938       0.18823080
H        1.20620858      -1.19776839      -1.79013559
18
Frame=3 idx=008962 GeodesicLength=0.18252098132312022 rxn_smarts="[C:1]([C:2]([N:3]1[C:4]([H:13])([H:14])[C@:5]1([C:6]([O:7][H:18])([H:16])[H:17])[H:15])([H:11])[H:12])([H:8])([H:9])[H:10]>>[C:1]([C:2]([N+:3]([C-:4]([H:13])[H:14])=[C:5]([C:6]([O:7][H:18])([H:16])[H:17])[H:15])([H:11])[H:12])([H:8])([H:9])[H:10]"
C       -1.88012571      -1.03327645      -0.46996041
C       -1.57293497       0.07063160       0.52607937
N       -0.14767622       0.31441916       0.61552761
C        0.59849683       0.73329313       1.67417383
C        0.68993784       0.81559191      -0.31705942
C        2.00477881       0.19061153      -0.64920054
O        1.94501384      -0.58316874      -1.83992176
H       -2.95573043      -1.20893613      -0.52539367
H       -1.39756877      -1.96783167      -0.17735740
H       -1.53576651      -0.76277906      -1.47017607
H       -2.09032402       0.99437816       0.23977947
H       -1.91203057      -0.19206038       1.53020933
H        0.82112793       1.77504244       1.85089701
H        0.77996631       0.03234340       2.48562136
H        0.28467432       1.49951384      -1.06862403
H        2.76473812       0.95149489      -0.84423752
H        2.37412039      -0.41290763       0.18895676
H        1.22930279      -1.21636002      -1.74931391
18
Frame=4 idx=008962 GeodesicLength=0.2382185797697205 rxn_smarts="[C:1]([C:2]([N:3]1[C:4]([H:13])([H:14])[C@:5]1([C:6]([O:7][H:18])([H:16])[H:17])[H:15])([H:11])[H:12])([H:8])([H:9])[H:10]>>[C:1]([C:2]([N+:3]([C-:4]([H:13])[H:14])=[C:5]([C:6]([O:7][H:18])([H:16])[H:17])[H:15])([H:11])[H:12])([H:8])([H:9])[H:10]"
C       -1.90351145      -1.03077222      -0.46905975
C       -1.57131104       0.07083491       0.52140712
N       -0.13913581       0.27303729       0.60891971
C        0.59981691       0.70875432       1.66679894
C        0.69223836       0.80585638      -0.31303396
C        2.01897307       0.21364187      -0.65526771
O        1.96605406      -0.60088575      -1.81712021
H       -2.98324165      -1.17799128      -0.52766585
H       -1.44835658      -1.97630885      -0.16823191
H       -1.54807488      -0.77567538      -1.46941483
H       -2.06248090       1.00625830       0.22750499
H       -1.92133870      -0.17722771       1.52538254
H        0.81613263       1.74968650       1.85486246
H        0.77858867       0.00742507       2.47786308
H        0.27087824       1.48949108      -1.05497466
H        2.74568586       0.99692828      -0.88819540
H        2.43654431      -0.34927962       0.18864465
H        1.25253889      -1.23377317      -1.70841922
18
Frame=5 idx=008962 GeodesicLength=0.29226043516788286 rxn_smarts="[C:1]([C:2]([N:3]1[C:4]([H:13])([H:14])[C@:5]1([C:6]([O:7][H:18])([H:16])[H:17])[H:15])([H:11])[H:12])([H:8])([H:9])[H:10]>>[C:1]([C:2]([N+:3]([C-:4]([H:13])[H:14])=[C:5]([C:6]([O:7][H:18])([H:16])[H:17])[H:15])([H:11])[H:12])([H:8])([H:9])[H:10]"
C       -1.92566977      -1.02800890      -0.46803213
C       -1.56934535       0.07124597       0.51660152
N       -0.13157226       0.23420389       0.60152461
C        0.60093040       0.68430064       1.65898935
C        0.69420091       0.79680488      -0.30928154
C        2.03144857       0.23579381      -0.66081661
O        1.98812744      -0.61862032      -1.79232454
H       -3.00862652      -1.14824878      -0.52925855
H       -1.49650843      -1.98298641      -0.15918887
H       -1.56054573      -0.78816379      -1.46865066
H       -2.03553362       1.01689650       0.21533965
H       -1.92930162      -0.16231045       1.52043337
H        0.81276091       1.72375381       1.85910925
H        0.77754669      -0.01866075       2.46846641
H        0.25792144       1.48029224      -1.04170709
H        2.72455089       1.03820127      -0.93108420
H        2.49372486      -0.28445606       0.18735576
H        1.27589116      -1.25003756      -1.66747575
18
Frame=6 idx=008962 GeodesicLength=0.34513094483419154 rxn_smarts="[C:1]([C:2]([N:3]1[C:4]([H:13])([H:14])[C@:5]1([C:6]([O:7][H:18])([H:16])[H:17])[H:15])([H:11])[H:12])([H:8])([H:9])[H:10]>>[C:1]([C:2]([N+:3]([C-:4]([H:13])[H:14])=[C:5]([C:6]([O:7][H:18])([H:16])[H:17])[H:15])([H:11])[H:12])([H:8])([H:9])[H:10]"
C       -1.94683552      -1.02499665      -0.46687447
C       -1.56712086       0.07181621       0.51169577
N       -0.12488730       0.19759836       0.59337417
C        0.60191373       0.65990643       1.65073379
C        0.69586562       0.78831840      -0.30582317
C        2.04246053       0.25714821      -0.66586949
O        2.01138469      -0.63622198      -1.76549770
H       -3.03224667      -1.11951430      -0.53024544
H       -1.54243622      -1.98809747      -0.15019831
H       -1.57325183      -0.80024609      -1.46785555
H       -2.00944102       1.02644540       0.20332784
H       -1.93603796      -0.14739471       1.51539908
H        0.81085103       1.69728286       1.86352610
H        0.77685345      -0.04578800       2.45754669
H        0.24571079       1.47181430      -1.02880786
H        2.70165234       1.07555935      -0.97304339
H        2.54608082      -0.21849092       0.18515078
H        1.29948440      -1.26513941      -1.62653884
18
Frame=7 idx=008962 GeodesicLength=0.39718173214092417 rxn_smarts="[C:1]([C:2]([N:3]1[C:4]([H:13])([H:14])[C@:5]1([C:6]([O:7][H:18])([H:16])[H:17])[H:15])([H:11])[H:12])([H:8])([H:9])[H:10]>>[C:1]([C:2]([N+:3]([C-:4]([H:13])[H:14])=[C:5]([C:6]([O:7][H:18])([H:16])[H:17])[H:15])([H:11])[H:12])([H:8])([H:9])[H:10]"
C       -1.96720832      -1.02173938      -0.46558004
C       -1.56471279       0.07250109       0.50672391
N       -0.11899651       0.16293904       0.58450036
C        0.60282029       0.63555963       1.64202453
C        0.69726729       0.78028574      -0.30267901
C        2.05223788       0.27776958      -0.67044628
O        2.03597574      -0.65353676      -1.73659417
H       -3.05440989      -1.09163529      -0.53066345
H       -1.58647090      -1.99181857      -0.14124524
H       -1.58627066      -0.81191996      -1.46701006
H       -1.98417934       1.03502169       0.19151389
H       -1.94166496      -0.13254912       1.51032363
H        0.81024753       1.67030435       1.86800619
H        0.77652047      -0.07381760       2.44521219
H        0.23416958       1.46395475      -1.01626867
H        2.67730229       1.10916896      -1.01416884
H        2.59395179      -0.15145596       0.18206014
H        1.32342053      -1.27903219      -1.58570907
18
Frame=8 idx=008962 GeodesicLength=0.4486166384351617 rxn_smarts="[C:1]([C:2]([N:3]1[C:4]([H:13])([H:14])[C@:5]1([C:6]([O:7][H:18])([H:16])[H:17])[H:15])([H:11])[H:12])([H:8])([H:9])[H:10]>>[C:1]([C:2]([N+:3]([C-:4]([H:13])[H:14])=[C:5]([C:6]([O:7][H:18])([H:16])[H:17])[H:15])([H:11])[H:12])([H:8])([H:9])[H:10]"
C       -1.98692100      -1.01825383      -0.46414172
C       -1.56216112       0.07328450       0.50171081
N       -0.11382192       0.12998838       0.57493543
C        0.60367864       0.61126488       1.63287694
C        0.69842661       0.77261791      -0.29986120
C        2.06095508       0.29768547      -0.67455194
O        2.06200226      -0.67042718      -1.70560392
H       -3.07532848      -1.06450168      -0.53052745
H       -1.62882382      -1.99431974      -0.13230891
H       -1.59966346      -0.82319298      -1.46611557
H       -1.95971111       1.04275862       0.17990989
H       -1.94625837      -0.11779723       1.50525163
H        0.81079294       1.64287251       1.87248475
H        0.77654514      -0.10262074       2.43158469
H        0.22322204       1.45665723      -1.00407715
H        2.65174561       1.13914164      -1.05450972
H        2.63756814      -0.08348100       0.17813535
H        1.34775282      -1.29167677      -1.54519193
18
Frame=9 idx=008962 GeodesicLength=0.4996700745737872 rxn_smarts="[C:1]([C:2]([N:3]1[C:4]([H:13])([H:14])[C@:5]1([C:6]([O:7][H:18])([H:16])[H:17])[H:15])([H:11])[H:12])([H:8])([H:9])[H:10]>>[C:1]([C:2]([N+:3]([C-:4]([H:13])[H:14])=[C:5]([C:6]([O:7][H:18])([H:16])[H:17])[H:15])([H:11])[H:12])([H:8])([H:9])[H:10]"
C       -2.00611084      -1.01453235      -0.46255549
C       -1.55950743       0.07411938       0.49667623
N       -0.10929515       0.09853383       0.56469982
C        0.60452071       0.58701188       1.62326652
C        0.69937583       0.76523331      -0.29737948
C        2.06877621       0.31695652      -0.67819305
O        2.08953241      -0.68674680      -1.67240267
H       -3.09521405      -1.03801792      -0.52983652
H       -1.66971835      -1.99569895      -0.12340875
H       -1.61350236      -0.83403093      -1.46515358
H       -1.93599825       1.04971091       0.16855295
H       -1.94990340      -0.10321122       1.50020008
H        0.81237781       1.61498977       1.87685023
H        0.77692036      -0.13207615       2.41672191
H        0.21282903       1.44983351      -0.99221656
H        2.62525063       1.16556063      -1.09414166
H        2.67716006      -0.01461150       0.17337681
H        1.37250681      -1.30302393      -1.50505681
18
Frame=10 idx=008962 GeodesicLength=0.5504584176230051 rxn_smarts="[C:1]([C:2]([N:3]1[C:4]([H:13])([H:14])[C@:5]1([C:6]([O:7][H:18])([H:16])[H:17])[H:15])([H:11])[H:12])([H:8])([H:9])[H:10]>>[C:1]([C:2]([N+:3]([C-:4]([H:13])[H:14])=[C:5]([C:6]([O:7][H:18])([H:16])[H:17])[H:15])([H:11])[H:12])([H:8])([H:9])[H:10]"
C       -2.02495431      -1.01060057      -0.46084193
C       -1.55677351       0.07499276       0.49164454
N       -0.10535177       0.06834469       0.55381602
C        0.60538326       0.56274111       1.61325450
C        0.70014602       0.75806835      -0.29526020
C        2.07586195       0.33568240      -0.68140617
O        2.11870206      -0.70242759      -1.63686208
H       -3.11429960      -1.01201307      -0.52868504
H       -1.70952328      -1.99614628      -0.11449850
H       -1.62784496      -0.84452189      -1.46418029
H       -1.91295111       1.05602272       0.15745576
H       -1.95266746      -0.08878927       1.49525037
H        0.81493041       1.58665476       1.88114908
H        0.77765806      -0.16220341       2.40076192
H        0.20295742       1.44346070      -0.98071596
H        2.59794583       1.18857574      -1.13329960
H        2.71297693       0.05530665       0.16780549
H        1.39780405      -1.31314780      -1.46538792
18
Frame=11 idx=008962 GeodesicLength=0.6014143875012019 rxn_smarts="[C:1]([C:2]([N:3]1[C:4]([H:13])([H:14])[C@:5]1([C:6]([O:7][H:18])([H:16])[H:17])[H:15])([H:11])[H:12])([H:8])([H:9])[H:10]>>[C:1]([C:2]([N+:3]([C-:4]([H:13])[H:14])=[C:5]([C:6]([O:7][H:18])([H:16])[H:17])[H:15])([H:11])[H:12])([H:8])([H:9])[H:10]"
C       -2.04345034      -1.00630256      -0.45898689
C       -1.55397591       0.07590958       0.48657044
N       -0.10196231       0.03931345       0.54218321
C        0.60628161       0.53823834       1.60265380
C        0.70069005       0.75111387      -0.29347471
C        2.08224305       0.35399292      -0.68418295
O        2.14948347      -0.71748354      -1.59842389
H       -3.13261710      -0.98631174      -0.52696045
H       -1.74816949      -1.99549539      -0.10566310
H       -1.64272758      -0.85443036      -1.46309088
H       -1.89060780       1.06169069       0.14663659
H       -1.95455233      -0.07457952       1.49026415
H        0.81832765       1.55751877       1.88526126
H        0.77884703      -0.19322448       2.38332503
H        0.19343868       1.43745388      -0.96946832
H        2.56982559       1.20808350      -1.17238305
H        2.74516730       0.12666088       0.16139843
H        1.42375844      -1.32214829      -1.42565871
18
Frame=12 idx=008962 GeodesicLength=0.6522391271066008 rxn_smarts="[C:1]([C:2]([N:3]1[C:4]([H:13])([H:14])[C@:5]1([C:6]([O:7][H:18])([H:16])[H:17])[H:15])([H:11])[H:12])([H:8])([H:9])[H:10]>>[C:1]([C:2]([N+:3]([C-:4]([H:13])[H:14])=[C:5]([C:6]([O:7][H:18])([H:16])[H:17])[H:15])([H:11])[H:12])([H:8])([H:9])[H:10]"
C       -2.06167003      -1.00180120      -0.45699251
C       -1.55111730       0.07681219       0.48153374
N       -0.09906158       0.01131160       0.52995539
C        0.60720235       0.51381417       1.59163388
C        0.70107877       0.74427127      -0.29205852
C        2.08806044       0.37172398      -0.68648284
O        2.18184264      -0.73152300      -1.55740727
H       -3.15029335      -0.96109470      -0.52467169
H       -1.78572415      -1.99405008      -0.09691510
H       -1.65822601      -0.86383921      -1.46199577
H       -1.86889471       1.06680040       0.13612185
H       -1.95562656      -0.06065584       1.48541513
H        0.82254698       1.52805348       1.88907665
H        0.78032742      -0.22457698       2.36494270
H        0.18438223       1.43180901      -0.95854838
H        2.54135823       1.22401829      -1.21085401
H        2.77364405       0.19864235       0.15414237
H        1.45017059      -1.32971572      -1.38689563
18
Frame=13 idx=008962 GeodesicLength=0.703093508999588 rxn_smarts="[C:1]([C:2]([N:3]1[C:4]([H:13])([H:14])[C@:5]1([C:6]([O:7][H:18])([H:16])[H:17])[H:15])([H:11])[H:12])([H:8])([H:9])[H:10]>>[C:1]([C:2]([N+:3]([C-:4]([H:13])[H:14])=[C:5]([C:6]([O:7][H:18])([H:16])[H:17])[H:15])([H:11])[H:12])([H:8])([H:9])[H:10]"
C       -2.07959595      -0.99707123      -0.45487476
C       -1.54820382       0.07770424       0.47651005
N       -0.09661893      -0.01570536       0.51710765
C        0.60815163       0.48939999       1.58016242
C        0.70132178       0.73761167      -0.29097318
C        2.09334931       0.38895804      -0.68832140
O        2.21557403      -0.74450450      -1.51346729
H       -3.16734725      -0.93636975      -0.52177974
H       -1.82213177      -1.99182488      -0.08831534
H       -1.67432388      -0.87265050      -1.46089491
H       -1.84780129       1.07138740       0.12589329
H       -1.95592899      -0.04703945       1.48065562
H        0.82754459       1.49813734       1.89261587
H        0.78210310      -0.25634018       2.34550591
H        0.17575368       1.42659088      -0.94787699
H        2.51271020       1.23628968      -1.24896902
H        2.79849453       0.27133642       0.14598677
H        1.47694903      -1.33590982      -1.34896495
18
Frame=14 idx=008962 GeodesicLength=0.7541055733604669 rxn_smarts="[C:1]([C:2]([N:3]1[C:4]([H:13])([H:14])[C@:5]1([C:6]([O:7][H:18])([H:16])[H:17])[H:15])([H:11])[H:12])([H:8])([H:9])[H:10]>>[C:1]([C:2]([N+:3]([C-:4]([H:13])[H:14])=[C:5]([C:6]([O:7][H:18])([H:16])[H:17])[H:15])([H:11])[H:12])([H:8])([H:9])[H:10]"
C       -2.09728023      -0.99209141      -0.45263736
C       -1.54524376       0.07857785       0.47150308
N       -0.09460190      -0.04183812       0.50363141
C        0.60914007       0.46494905       1.56822507
C        0.70141283       0.73111450      -0.29022035
C        2.09817275       0.40574621      -0.68970086
O        2.25061945      -0.75628544      -1.46630501
H       -3.18386767      -0.91205102      -0.51828501
H       -1.85747431      -1.98886539      -0.07987811
H       -1.69104347      -0.88082542      -1.45979449
H       -1.82731050       1.07550205       0.11596855
H       -1.95548769      -0.03375323       1.47599431
H        0.83330030       1.46770751       1.89584262
H        0.78418411      -0.28852645       2.32500039
H        0.16749902       1.42178473      -0.93743082
H        2.48398000       1.24479913      -1.28684425
H        2.81979801       0.34478583       0.13685857
H        1.50420297      -1.34073039      -1.31192774
18
Frame=15 idx=008962 GeodesicLength=0.8053736609545871 rxn_smarts="[C:1]([C:2]([N:3]1[C:4]([H:13])([H:14])[C@:5]1([C:6]([O:7][H:18])([H:16])[H:17])[H:15])([H:11])[H:12])([H:8])([H:9])[H:10]>>[C:1]([C:2]([N+:3]([C-:4]([H:13])[H:14])=[C:5]([C:6]([O:7][H:18])([H:16])[H:17])[H:15])([H:11])[H:12])([H:8])([H:9])[H:10]"
C       -2.11474549      -0.98685477      -0.45029218
C       -1.54224602       0.07943025       0.46651465
N       -0.09298586      -0.06714355       0.48951651
C        0.61017529       0.44043791       1.55581367
C        0.70134530       0.72480383      -0.28979705
C        2.10256752       0.42213568      -0.69063589
O        2.28679535      -0.76668805      -1.41565154
H       -3.19991245      -0.88811863      -0.51417328
H       -1.89176611      -1.98522727      -0.07164121
H       -1.70839605      -0.88830882      -1.45871615
H       -1.80741735       1.07919470       0.10636111
H       -1.95433033      -0.02082827       1.47144118
H        0.83982826       1.43672042       1.89873207
H        0.78656665      -0.32113823       2.30341152
H        0.15957842       1.41742983      -0.92718022
H        2.45532392       1.24941899      -1.32454626
H        2.83758400       0.41893224       0.12665057
H        1.53203495      -1.34419626      -1.27580750
18
Frame=16 idx=008962 GeodesicLength=0.8570908472352597 rxn_smarts="[C:1]([C:2]([N:3]1[C:4]([H:13])([H:14])[C@:5]1([C:6]([O:7][H:18])([H:16])[H:17])[H:15])([H:11])[H:12])([H:8])([H:9])[H:10]>>[C:1]([C:2]([N+:3]([C-:4]([H:13])[H:14])=[C:5]([C:6]([O:7][H:18])([H:16])[H:17])[H:15])([H:11])[H:12])([H:8])([H:9])[H:10]"
C       -2.13201835      -0.98133136      -0.44785125
C       -1.53920747       0.08025861       0.46154321
N       -0.09175756      -0.09167902       0.47472196
C        0.61126515       0.41579537       1.54288217
C        0.70110245       0.71870764      -0.28971389
C        2.10654314       0.43820425      -0.69115919
O        2.32385240      -0.77547085      -1.36119296
H       -3.21552506      -0.86450707      -0.50943252
H       -1.92505334      -1.98094437      -0.06364756
H       -1.72638986      -0.89502354      -1.45767274
H       -1.78809324       1.08251695       0.09710153
H       -1.95245837      -0.00831478       1.46699973
H        0.84716826       1.40506307       1.90123960
H        0.78925686      -0.35425626       2.28064288
H        0.15195523       1.41356937      -0.91709552
H        2.42685595       1.24999160      -1.36218260
H        2.85183166       0.49379074       0.11520200
H        1.56067214      -1.34637035      -1.24038487
