19
Frame=0 idx=009440 GeodesicLength=0.0 rxn_smarts="[C:1]([C:2]([O:3][C@@:4]1([H:13])[C:5]([H:14])([H:15])[C@:6]1([C:7]([H:17])([H:18])[H:19])[H:16])([H:11])[H:12])([H:8])([H:9])[H:10]>>[C:1]([C:2]([O:3][C:4]1([H:13])[C:5]([H:15])=[C:6]1[H:16])([H:11])[H:12])([H:8])([H:9])[H:10].[C:7]([H:14])([H:17])([H:18])[H:19]"
C        2.69438608       0.70070723       0.02359782
C        1.61650499      -0.32252911      -0.25114708
O        0.64050211      -0.23540994       0.76417787
C       -0.44075457      -1.11096421       0.56327192
C       -1.63132684      -0.98246272       1.35697128
C       -1.70499931      -0.62947372      -0.07813758
C       -1.67825670       1.19407335      -0.54145901
H        3.14140462       0.52694724       1.00308143
H        2.28036117       1.71038149       0.01511958
H        3.47879550       0.64073927      -0.73295954
H        2.04465748      -1.33452009      -0.27485195
H        1.16049744      -0.14928400      -1.23874404
H       -0.09980501      -2.06620065       0.14929406
H       -2.12723202       0.41945465       0.38930407
H       -2.22798166      -1.80362871       1.72617574
H       -2.25454860      -1.04749734      -0.91033533
H       -0.60589100       1.32845056      -0.60171103
H       -2.19797065       1.19968288      -1.49187712
H       -2.08834299       1.96153388       0.13022886
19
Frame=1 idx=009440 GeodesicLength=0.12432676649360164 rxn_smarts="[C:1]([C:2]([O:3][C@@:4]1([H:13])[C:5]([H:14])([H:15])[C@:6]1([C:7]([H:17])([H:18])[H:19])[H:16])([H:11])[H:12])([H:8])([H:9])[H:10]>>[C:1]([C:2]([O:3][C:4]1([H:13])[C:5]([H:15])=[C:6]1[H:16])([H:11])[H:12])([H:8])([H:9])[H:10].[C:7]([H:14])([H:17])([H:18])[H:19]"
C        2.69369612       0.70210715       0.03105670
C        1.62208938      -0.32632999      -0.24854357
O        0.63898459      -0.24021149       0.76009717
C       -0.43627259      -1.12085963       0.55489642
C       -1.63174736      -0.98599170       1.34455568
C       -1.70018779      -0.64143192      -0.08805338
C       -1.68783324       1.20242725      -0.54560888
H        3.13675312       0.53070456       1.01277371
H        2.27476058       1.70972362       0.02054843
H        3.48193941       0.64579702      -0.72176729
H        2.05399694      -1.33684151      -0.26638321
H        1.17113629      -0.15710999      -1.23896392
H       -0.09317175      -2.08180893       0.15733663
H       -2.12655805       0.42974882       0.41316236
H       -2.22777682      -1.79980226       1.73021938
H       -2.25167363      -1.06440905      -0.91631836
H       -0.62017421       1.33062156      -0.67458920
H       -2.25807014       1.22038917      -1.46701043
H       -2.03989086       1.98327732       0.14259178
19
Frame=2 idx=009440 GeodesicLength=0.24832274734277426 rxn_smarts="[C:1]([C:2]([O:3][C@@:4]1([H:13])[C:5]([H:14])([H:15])[C@:6]1([C:7]([H:17])([H:18])[H:19])[H:16])([H:11])[H:12])([H:8])([H:9])[H:10]>>[C:1]([C:2]([O:3][C:4]1([H:13])[C:5]([H:15])=[C:6]1[H:16])([H:11])[H:12])([H:8])([H:9])[H:10].[C:7]([H:14])([H:17])([H:18])[H:19]"
C        2.69166989       0.70411793       0.03849782
C        1.62667459      -0.32975927      -0.24606196
O        0.63738210      -0.24623694       0.75683002
C       -0.43201598      -1.13171755       0.54711390
C       -1.63275917      -0.98966525       1.33198571
C       -1.69513376      -0.65410299      -0.09822098
C       -1.69502317       1.21042458      -0.54965766
H        3.13161980       0.53437133       1.02191540
H        2.26722635       1.70940903       0.02716648
H        3.48314600       0.65259050      -0.71125054
H        2.06265636      -1.33858339      -0.25936348
H        1.18003945      -0.16370289      -1.23877735
H       -0.08676037      -2.09815776       0.16622690
H       -2.12360742       0.44114332       0.43817228
H       -2.22863063      -1.79532870       1.73420506
H       -2.24828617      -1.08158646      -0.92289210
H       -0.63656800       1.33145475      -0.74811295
H       -2.31457087       1.24124983      -1.43890480
H       -1.98705900       2.00407993       0.15112827
19
Frame=3 idx=009440 GeodesicLength=0.3720673949364297 rxn_smarts="[C:1]([C:2]([O:3][C@@:4]1([H:13])[C:5]([H:14])([H:15])[C@:6]1([C:7]([H:17])([H:18])[H:19])[H:16])([H:11])[H:12])([H:8])([H:9])[H:10]>>[C:1]([C:2]([O:3][C:4]1([H:13])[C:5]([H:15])=[C:6]1[H:16])([H:11])[H:12])([H:8])([H:9])[H:10].[C:7]([H:14])([H:17])([H:18])[H:19]"
C        2.68832737       0.70669055       0.04593884
C        1.63024189      -0.33279834      -0.24372056
O        0.63576113      -0.25354346       0.75446406
C       -0.42795956      -1.14352786       0.53997049
C       -1.63435765      -0.99339661       1.31921483
C       -1.68977037      -0.66755244      -0.10870769
C       -1.69984836       1.21805047      -0.55366360
H        3.12608432       0.53782362       1.03050082
H        2.25779664       1.70938874       0.03507304
H        3.48238748       0.66109469      -0.70143240
H        2.07060915      -1.33974142      -0.25394797
H        1.18709446      -0.16890876      -1.23816283
H       -0.08055173      -2.11525385       0.17607952
H       -2.11818372       0.45369469       0.46437517
H       -2.23053830      -1.79006633       1.73812442
H       -2.24431697      -1.09914608      -0.93011083
H       -0.65530566       1.33111635      -0.82192375
H       -2.36718465       1.26236656      -1.40768511
H       -1.93028546       2.02370949       0.15561356
19
Frame=4 idx=009440 GeodesicLength=0.49569349560591924 rxn_smarts="[C:1]([C:2]([O:3][C@@:4]1([H:13])[C:5]([H:14])([H:15])[C@:6]1([C:7]([H:17])([H:18])[H:19])[H:16])([H:11])[H:12])([H:8])([H:9])[H:10]>>[C:1]([C:2]([O:3][C:4]1([H:13])[C:5]([H:15])=[C:6]1[H:16])([H:11])[H:12])([H:8])([H:9])[H:10].[C:7]([H:14])([H:17])([H:18])[H:19]"
C        2.68375730       0.70975152       0.05340620
C        1.63279242      -0.33541818      -0.24155476
O        0.63419873      -0.26216120       0.75307164
C       -0.42408078      -1.15626412       0.53351104
C       -1.63654669      -0.99707726       1.30619886
C       -1.68403502      -0.68185541      -0.11958642
C       -1.70240937       1.22528262      -0.55769531
H        3.12028966       0.54087012       1.03852309
H        2.24662085       1.70960859       0.04441562
H        3.47970618       0.67125413      -0.69233592
H        2.07781290      -1.34031830      -0.25034358
H        1.19221180      -0.17252761      -1.23710677
H       -0.07453122      -2.13310072       0.18702168
H       -2.11010476       0.46746604       0.49182868
H       -2.23350382      -1.78385199       1.74198706
H       -2.23968989      -1.11725466      -0.93802373
H       -0.67661518       1.32989305      -0.89556617
H       -2.41564884       1.28372440      -1.37358030
H       -1.87022426       2.04197897       0.15582910
19
Frame=5 idx=009440 GeodesicLength=0.6192533903417721 rxn_smarts="[C:1]([C:2]([O:3][C@@:4]1([H:13])[C:5]([H:14])([H:15])[C@:6]1([C:7]([H:17])([H:18])[H:19])[H:16])([H:11])[H:12])([H:8])([H:9])[H:10]>>[C:1]([C:2]([O:3][C:4]1([H:13])[C:5]([H:15])=[C:6]1[H:16])([H:11])[H:12])([H:8])([H:9])[H:10].[C:7]([H:14])([H:17])([H:18])[H:19]"
C        2.67806038       0.71319019       0.06093730
C        1.63433353      -0.33759362      -0.23959281
O        0.63277409      -0.27208048       0.75267589
C       -0.42033191      -1.16986249       0.52776281
C       -1.63929134      -1.00056526       1.29283392
C       -1.67784864      -0.69708350      -0.13094709
C       -1.70289073       1.23207511      -0.56181239
H        3.11436834       0.54330997       1.04599311
H        2.23388453       1.70996502       0.05530290
H        3.47516098       0.68293239      -0.68392697
H        2.08421864      -1.34030682      -0.24871138
H        1.19531819      -0.17438321      -1.23559205
H       -0.06865143      -2.15164548       0.19921639
H       -2.09921169       0.48248231       0.52057106
H       -2.23746548      -1.77646343       1.74575602
H       -2.23429995      -1.13607177      -0.94668607
H       -0.70076088       1.32813521      -0.96860651
H       -2.45980765       1.30528102      -1.33684721
H       -1.80755899       2.05868486       0.15167308
19
Frame=6 idx=009440 GeodesicLength=0.7428503512564162 rxn_smarts="[C:1]([C:2]([O:3][C@@:4]1([H:13])[C:5]([H:14])([H:15])[C@:6]1([C:7]([H:17])([H:18])[H:19])[H:16])([H:11])[H:12])([H:8])([H:9])[H:10]>>[C:1]([C:2]([O:3][C:4]1([H:13])[C:5]([H:15])=[C:6]1[H:16])([H:11])[H:12])([H:8])([H:9])[H:10].[C:7]([H:14])([H:17])([H:18])[H:19]"
C        2.67135328       0.71692075       0.06858243
C        1.63490410      -0.33932188      -0.23784803
O        0.63156046      -0.28329892       0.75329485
C       -0.41668503      -1.18428020       0.52273550
C       -1.64257604      -1.00372392       1.27902898
C       -1.67112716      -0.71330813      -0.14290751
C       -1.70147867       1.23841210      -0.56607221
H        3.10845182       0.54498117       1.05293921
H        2.21977361       1.71038616       0.06785715
H        3.46884600       0.69604207      -0.67616212
H        2.08980741      -1.33972941      -0.24915995
H        1.19640644      -0.17436206      -1.23359596
H       -0.06290997      -2.17087079       0.21275762
H       -2.08523769       0.49882731       0.55067503
H       -2.24240774      -1.76769526       1.74937786
H       -2.22804492      -1.15577196      -0.95618521
H       -0.72798650       1.32607072      -1.04073789
H       -2.49970971       1.32696073      -1.29761044
H       -1.74293968       2.07376151       0.14303069
19
Frame=7 idx=009440 GeodesicLength=0.8665295454311304 rxn_smarts="[C:1]([C:2]([O:3][C@@:4]1([H:13])[C:5]([H:14])([H:15])[C@:6]1([C:7]([H:17])([H:18])[H:19])[H:16])([H:11])[H:12])([H:8])([H:9])[H:10]>>[C:1]([C:2]([O:3][C:4]1([H:13])[C:5]([H:15])=[C:6]1[H:16])([H:11])[H:12])([H:8])([H:9])[H:10].[C:7]([H:14])([H:17])([H:18])[H:19]"
C        2.66376621       0.72083729       0.07639658
C        1.63454807      -0.34060009      -0.23632985
O        0.63062758      -0.29577849       0.75490174
C       -0.41310089      -1.19944989       0.51842644
C       -1.64637159      -1.00638250       1.26463600
C       -1.66377801      -0.73061369      -0.15561031
C       -1.69842052       1.24425355      -0.57051446
H        3.10266666       0.54572754       1.05939703
H        2.20450592       1.71076921       0.08216874
H        3.46087569       0.71044393      -0.66895717
H        2.09455328      -1.33859503      -0.25176089
H        1.19548523      -0.17237445      -1.23109137
H       -0.05728717      -2.19072230       0.22778393
H       -2.06792743       0.51654793       0.58218796
H       -2.24828810      -1.75727608       1.75276112
H       -2.22080543      -1.17653579      -0.96663128
H       -0.75859264       1.32396137      -1.11166123
H       -2.53546150       1.34866544      -1.25597539
H       -1.67699537       2.08712206       0.12987241
19
Frame=8 idx=009440 GeodesicLength=0.9903452221934346 rxn_smarts="[C:1]([C:2]([O:3][C@@:4]1([H:13])[C:5]([H:14])([H:15])[C@:6]1([C:7]([H:17])([H:18])[H:19])[H:16])([H:11])[H:12])([H:8])([H:9])[H:10]>>[C:1]([C:2]([O:3][C:4]1([H:13])[C:5]([H:15])=[C:6]1[H:16])([H:11])[H:12])([H:8])([H:9])[H:10].[C:7]([H:14])([H:17])([H:18])[H:19]"
C        2.65545648       0.72482132       0.08443258
C        1.63332516      -0.34143481      -0.23504604
O        0.63003933      -0.30945517       0.75744030
C       -0.40953777      -1.21529448       0.51482843
C       -1.65064833      -1.00834536       1.24947428
C       -1.65569146      -0.74909908      -0.16922101
C       -1.69401592       1.24956643      -0.57515950
H        3.09713976       0.54539720       1.06541009
H        2.18834486       1.71100830       0.09829437
H        3.45140916       0.72595841      -0.66220964
H        2.09842880      -1.33692717      -0.25655204
H        1.19260082      -0.16835965      -1.22805335
H       -0.05176356      -2.21113613       0.24445458
H       -2.04701943       0.53568120       0.61515374
H       -2.25506255      -1.74489653       1.75578247
H       -2.21243321      -1.19856333      -0.97815997
H       -0.79291020       1.32209715      -1.18105049
H       -2.56722741       1.37025930      -1.21202582
H       -1.61043453       2.09872242       0.11220702
19
Frame=9 idx=009440 GeodesicLength=1.114315702032163 rxn_smarts="[C:1]([C:2]([O:3][C@@:4]1([H:13])[C:5]([H:14])([H:15])[C@:6]1([C:7]([H:17])([H:18])[H:19])[H:16])([H:11])[H:12])([H:8])([H:9])[H:10]>>[C:1]([C:2]([O:3][C:4]1([H:13])[C:5]([H:15])=[C:6]1[H:16])([H:11])[H:12])([H:8])([H:9])[H:10].[C:7]([H:14])([H:17])([H:18])[H:19]"
C        2.64661384       0.72873187       0.09274032
C        1.63131262      -0.34183707      -0.23400023
O        0.62985747      -0.32422904       0.76081573
C       -0.40594840      -1.23171341       0.51192517
C       -1.65536835      -1.00938642       1.23331362
C       -1.64674413      -0.76887468      -0.18392754
C       -1.68862945       1.25431091      -0.57999865
H        3.09200176       0.54383649       1.07102461
H        2.17160935       1.71097612       0.11624845
H        3.44065596       0.74234878      -0.65579006
H        2.10140386      -1.33474791      -0.26353006
H        1.18783837      -0.16228404      -1.22444978
H       -0.04631888      -2.23201225       0.26295640
H       -2.02225990       0.55624658       0.64960420
H       -2.26267376      -1.73019792       1.75826858
H       -2.20275973      -1.22206456      -0.99092484
H       -0.83131238       1.32079960      -1.24852648
H       -2.59523140       1.39154479      -1.16583140
H       -1.54404686       2.10855217       0.09008196
19
Frame=10 idx=009440 GeodesicLength=1.2384542772233305 rxn_smarts="[C:1]([C:2]([O:3][C@@:4]1([H:13])[C:5]([H:14])([H:15])[C@:6]1([C:7]([H:17])([H:18])[H:19])[H:16])([H:11])[H:12])([H:8])([H:9])[H:10]>>[C:1]([C:2]([O:3][C:4]1([H:13])[C:5]([H:15])=[C:6]1[H:16])([H:11])[H:12])([H:8])([H:9])[H:10].[C:7]([H:14])([H:17])([H:18])[H:19]"
C        2.63746376       0.73241423       0.10136661
C        1.62860789      -0.34183081      -0.23318597
O        0.63014225      -0.33997664       0.76492245
C       -0.40228793      -1.24859118       0.50969847
C       -1.66048641      -1.00923693       1.21588524
C       -1.63678076      -0.79006418      -0.19995141
C       -1.68267819       1.25846326      -0.58500292
H        3.08741387       0.54086965       1.07627628
H        2.15466871       1.71054249       0.13604888
H        3.42886218       0.75936492      -0.64957800
H        2.10344317      -1.33210075      -0.27265411
H        1.18132892      -0.15414737      -1.22023575
H       -0.04095511      -2.25323957       0.28349411
H       -1.99336317       0.57827321       0.68556124
H       -2.27107143      -1.71276269       1.75998187
H       -2.19157658      -1.24727434      -1.00511347
H       -0.87418691       1.32034642      -1.31366401
H       -2.61978614       1.41225665      -1.11741797
H       -1.47875811       2.11669362       0.06356845
19
Frame=11 idx=009440 GeodesicLength=1.362733290830746 rxn_smarts="[C:1]([C:2]([O:3][C@@:4]1([H:13])[C:5]([H:14])([H:15])[C@:6]1([C:7]([H:17])([H:18])[H:19])[H:16])([H:11])[H:12])([H:8])([H:9])[H:10]>>[C:1]([C:2]([O:3][C:4]1([H:13])[C:5]([H:15])=[C:6]1[H:16])([H:11])[H:12])([H:8])([H:9])[H:10].[C:7]([H:14])([H:17])([H:18])[H:19]"
C        2.62827968       0.73569823       0.11035147
C        1.62533825      -0.34144848      -0.23258982
O        0.63095146      -0.35653098       0.76962868
C       -0.39851236      -1.26578511       0.50812640
C       -1.66595459      -1.00759015       1.19686626
C       -1.62563079      -0.81281019      -0.21753831
C       -1.67664940       1.26200182      -0.59010239
H        3.08356035       0.53632840       1.08120528
H        2.13795815       1.70956988       0.15766931
H        3.41634275       0.77670612      -0.64344176
H        2.10452288      -1.32904088      -0.28382941
H        1.17325955      -0.14399197      -1.21536849
H       -0.03569297      -2.27466436       0.30630955
H       -1.96008946       0.60175383       0.72300694
H       -2.28020167      -1.69211789       1.76062173
H       -2.17866340      -1.27444174      -1.02094136
H       -0.92197768       1.32100315      -1.37599370
H       -2.64127078       1.43209241      -1.06678783
H       -1.41556998       2.12326793       0.03280745
19
Frame=12 idx=009440 GeodesicLength=1.487113362234247 rxn_smarts="[C:1]([C:2]([O:3][C@@:4]1([H:13])[C:5]([H:14])([H:15])[C@:6]1([C:7]([H:17])([H:18])[H:19])[H:16])([H:11])[H:12])([H:8])([H:9])[H:10]>>[C:1]([C:2]([O:3][C:4]1([H:13])[C:5]([H:15])=[C:6]1[H:16])([H:11])[H:12])([H:8])([H:9])[H:10].[C:7]([H:14])([H:17])([H:18])[H:19]"
C        2.61935998       0.73839461       0.11970505
C        1.62166068      -0.34074671      -0.23218813
O        0.63232109      -0.37367260       0.77476349
C       -0.39457255      -1.28311963       0.50717702
C       -1.67170815      -1.00410422       1.17585055
C       -1.61308685      -0.83726618      -0.23694317
C       -1.67109487       1.26491499      -0.59517725
H        3.08059359       0.53008767       1.08585410
H        2.12194876       1.70791433       0.18095299
H        3.40348233       0.79398341      -0.63723857
H        2.10464155      -1.32565229      -0.29685739
H        1.16389588      -0.13194710      -1.20981491
H       -0.03055449      -2.29607523       0.33169291
H       -1.92230605       0.62662630       0.76188889
H       -2.29000105      -1.66773526       1.75977248
H       -2.16374715      -1.30381073      -1.03862879
H       -0.97514941       1.32304963      -1.43495915
H       -2.66012188       1.45073116      -1.01391904
H       -1.35556141       2.12842785      -0.00193108
19
Frame=13 idx=009440 GeodesicLength=1.6115196328428711 rxn_smarts="[C:1]([C:2]([O:3][C@@:4]1([H:13])[C:5]([H:14])([H:15])[C@:6]1([C:7]([H:17])([H:18])[H:19])[H:16])([H:11])[H:12])([H:8])([H:9])[H:10]>>[C:1]([C:2]([O:3][C:4]1([H:13])[C:5]([H:15])=[C:6]1[H:16])([H:11])[H:12])([H:8])([H:9])[H:10].[C:7]([H:14])([H:17])([H:18])[H:19]"
C        2.61109471       0.74029148       0.12943220
C        1.61778103      -0.33979033      -0.23194752
O        0.63430041      -0.39112763       0.78016297
C       -0.39042656      -1.30038040       0.50682174
C       -1.67765689      -0.99841444       1.15241340
C       -1.59894301      -0.86358699      -0.25841571
C       -1.66664882       1.26722306      -0.60007697
H        3.07875280       0.52197852       1.09026348
H        2.10723459       1.70543561       0.20574719
H        3.39076287       0.81076719      -0.63085207
H        2.10380989      -1.32205195      -0.31149947
H        1.15357897      -0.11816582      -1.20354889
H       -0.02562084      -2.31720669       0.35993595
H       -1.88000141       0.65281044       0.80208451
H       -2.30037197      -1.63908955       1.75696319
H       -2.14658505      -1.33563018      -1.05839494
H       -1.03415903       1.32670817      -1.48991623
H       -2.67686270       1.46776691      -0.95885891
H       -1.30003900       2.13246261      -0.04031393
19
Frame=14 idx=009440 GeodesicLength=1.7358907595297401 rxn_smarts="[C:1]([C:2]([O:3][C@@:4]1([H:13])[C:5]([H:14])([H:15])[C@:6]1([C:7]([H:17])([H:18])[H:19])[H:16])([H:11])[H:12])([H:8])([H:9])[H:10]>>[C:1]([C:2]([O:3][C:4]1([H:13])[C:5]([H:15])=[C:6]1[H:16])([H:11])[H:12])([H:8])([H:9])[H:10].[C:7]([H:14])([H:17])([H:18])[H:19]"
C        2.60384338       0.74118067       0.13946619
C        1.61392851      -0.33868936      -0.23181620
O        0.63688226      -0.40855638       0.78562553
C       -0.38603176      -1.31731074       0.50701425
C       -1.68366681      -0.99015935       1.12604597
C       -1.58294849      -0.89190206      -0.28214825
C       -1.66394483       1.26896564      -0.60459319
H        3.07816655       0.51196699       1.09446441
H        2.09435434       1.70201049       0.23164943
H        3.37870445       0.82652678      -0.62418466
H        2.10209427      -1.31840686      -0.32733570
H        1.14274549      -0.10297533      -1.19657559
H       -0.02098144      -2.33770158       0.39135259
H       -1.83343868       0.68011171       0.84343138
H       -2.31120714      -1.60566464       1.75153042
H       -2.12685910      -1.37007946      -1.08039843
H       -1.09937498       1.33216296      -1.54012660
H       -2.69201909       1.48287685      -0.90164210
H       -1.25024692       2.13564368      -0.08175945
19
Frame=15 idx=009440 GeodesicLength=1.8601629320094748 rxn_smarts="[C:1]([C:2]([O:3][C@@:4]1([H:13])[C:5]([H:14])([H:15])[C@:6]1([C:7]([H:17])([H:18])[H:19])[H:16])([H:11])[H:12])([H:8])([H:9])[H:10]>>[C:1]([C:2]([O:3][C:4]1([H:13])[C:5]([H:15])=[C:6]1[H:16])([H:11])[H:12])([H:8])([H:9])[H:10].[C:7]([H:14])([H:17])([H:18])[H:19]"
C        2.59799169       0.74087891       0.14971914
C        1.61036293      -0.33755864      -0.23173701
O        0.64004251      -0.42557365       0.79096697
C       -0.38136785      -1.33362903       0.50769958
C       -1.68955741      -0.97904578       1.09629280
C       -1.56491030      -0.92229908      -0.30821899
C       -1.66358249       1.27022071      -0.60852016
H        3.07898180       0.50005576       1.09849115
H        2.08386356       1.69756126       0.25822174
H        3.36786875       0.84074401      -0.61718699
H        2.09960010      -1.31491074      -0.34388890
H        1.13189113      -0.08675567      -1.18894017
H       -0.01680607      -2.35713349       0.42617596
H       -1.78320497       0.70824355       0.88566500
H       -2.32233765      -1.56709516       1.74279813
H       -2.10435817      -1.40726593      -1.10469445
H       -1.17102925       1.33946407      -1.58485324
H       -2.70608958       1.49581642      -0.84241309
H       -1.20735871       2.13828247      -0.12557745
19
Frame=16 idx=009440 GeodesicLength=1.984329882005136 rxn_smarts="[C:1]([C:2]([O:3][C@@:4]1([H:13])[C:5]([H:14])([H:15])[C@:6]1([C:7]([H:17])([H:18])[H:19])[H:16])([H:11])[H:12])([H:8])([H:9])[H:10]>>[C:1]([C:2]([O:3][C:4]1([H:13])[C:5]([H:15])=[C:6]1[H:16])([H:11])[H:12])([H:8])([H:9])[H:10].[C:7]([H:14])([H:17])([H:18])[H:19]"
C        2.59387096       0.73926166       0.16006423
C        1.60733856      -0.33651927      -0.23165054
O        0.64371233      -0.44177307       0.79602137
C       -0.37643955      -1.34905519       0.50880445
C       -1.69508312      -0.96493268       1.06280574
C       -1.54472728      -0.95478471      -0.33650952
C       -1.66602506       1.27111696      -0.61169846
H        3.08127788       0.48635670       1.10238190
H        2.07622108       1.69207932       0.28493100
H        3.35878541       0.85294384      -0.60986216
H        2.09647593      -1.31177502      -0.36060957
H        1.12152756      -0.06996410      -1.18074303
H       -0.01332405      -2.37502307       0.46449641
H       -1.73029554       0.73679397       0.92845535
H       -2.33351780      -1.52329590       1.73010111
H       -2.07900305      -1.44716254      -1.13115015
H       -1.24908883       1.34852500      -1.62342322
H       -2.71944938       1.50653301      -0.78145371
H       -1.17225604       2.14067509      -0.17096120
