11
Frame=0 idx=010255 GeodesicLength=0.0 rxn_smarts="[C:1](#[C:2][c:3]1[c:4]([H:9])[n:5]([H:10])[n:6][c:7]1[H:11])[H:8]>>[C:1]1([H:8])=[C:2]=[C:3]=[C:4]([H:9])[N:5]([H:10])[N:6]=[C:7]1[H:11]"
C        2.24106194      -0.06357313      -0.34165656
C        1.17164265      -0.19753523       0.27372883
C        0.17741540      -0.81353750       1.10651486
C       -1.02758354      -1.03504998       0.53273503
N       -1.51444474      -0.17235375      -0.40808749
N       -0.91274133       1.00725493      -0.52334441
C        0.23705984       1.06354371       0.04103417
H        3.05143905       0.23755549      -0.96420947
H       -1.69205485      -1.83672117       0.82995770
H       -2.47293143      -0.19758911      -0.71128204
H        0.74113696       2.00800578       0.16460942
11
Frame=1 idx=010255 GeodesicLength=0.0889641155126787 rxn_smarts="[C:1](#[C:2][c:3]1[c:4]([H:9])[n:5]([H:10])[n:6][c:7]1[H:11])[H:8]>>[C:1]1([H:8])=[C:2]=[C:3]=[C:4]([H:9])[N:5]([H:10])[N:6]=[C:7]1[H:11]"
C        2.21838439      -0.08073381      -0.37599882
C        1.18115520      -0.22255919       0.29039533
C        0.16398711      -0.77742276       1.12570792
C       -1.02833720      -1.03108065       0.53609121
N       -1.52000539      -0.16672526      -0.39887089
N       -0.91914332       1.01606298      -0.51696224
C        0.24007616       1.06648901       0.03125805
H        3.06695868       0.24117636      -0.93392335
H       -1.66527131      -1.86804893       0.79329255
H       -2.48126390      -0.19069319      -0.69346460
H        0.74345956       2.01353544       0.14247485
11
Frame=2 idx=010255 GeodesicLength=0.17804059915491427 rxn_smarts="[C:1](#[C:2][c:3]1[c:4]([H:9])[n:5]([H:10])[n:6][c:7]1[H:11])[H:8]>>[C:1]1([H:8])=[C:2]=[C:3]=[C:4]([H:9])[N:5]([H:10])[N:6]=[C:7]1[H:11]"
C        2.19540824      -0.09322384      -0.41065242
C        1.19104720      -0.24773734       0.30224255
C        0.15384593      -0.74346345       1.13807032
C       -1.02767942      -1.02769625       0.53788384
N       -1.52671467      -0.16118705      -0.38935583
N       -0.92708100       1.02488215      -0.51119796
C        0.24167598       1.06975897       0.01986121
H        3.08479640       0.23783920      -0.89587756
H       -1.63622200      -1.89531629       0.75935339
H       -2.49149783      -0.18373188      -0.67241231
H        0.74242118       2.01987577       0.12208477
11
Frame=3 idx=010255 GeodesicLength=0.2672559116090603 rxn_smarts="[C:1](#[C:2][c:3]1[c:4]([H:9])[n:5]([H:10])[n:6][c:7]1[H:11])[H:8]>>[C:1]1([H:8])=[C:2]=[C:3]=[C:4]([H:9])[N:5]([H:10])[N:6]=[C:7]1[H:11]"
C        2.17548905      -0.09866256      -0.43541500
C        1.20179425      -0.27140616       0.31577051
C        0.14511572      -0.71041404       1.14757426
C       -1.02540155      -1.02482992       0.53794695
N       -1.53208506      -0.15638202      -0.38161063
N       -0.93445795       1.03346735      -0.50690976
C        0.24219556       1.07444566       0.00988111
H        3.09568492       0.22265150      -0.86760504
H       -1.60543667      -1.91935540       0.72611618
H       -2.50026458      -0.17812627      -0.65310400
H        0.73736632       2.02861185       0.10735542
11
Frame=4 idx=010255 GeodesicLength=0.3567572650174965 rxn_smarts="[C:1](#[C:2][c:3]1[c:4]([H:9])[n:5]([H:10])[n:6][c:7]1[H:11])[H:8]>>[C:1]1([H:8])=[C:2]=[C:3]=[C:4]([H:9])[N:5]([H:10])[N:6]=[C:7]1[H:11]"
C        2.15767106      -0.10020928      -0.45565402
C        1.21269915      -0.29578036       0.32787929
C        0.13802450      -0.67878662       1.15352501
C       -1.02270488      -1.02200223       0.53753809
N       -1.53784878      -0.15181105      -0.37406687
N       -0.94202820       1.04155778      -0.50421211
C        0.24199351       1.07947139      -0.00072998
H        3.10508603       0.20269067      -0.84025935
H       -1.57339802      -1.94087574       0.69375457
H       -2.50969097      -0.17255788      -0.63253307
H        0.73019661       2.03830331       0.09475844
11
Frame=5 idx=010255 GeodesicLength=0.4460958384954895 rxn_smarts="[C:1](#[C:2][c:3]1[c:4]([H:9])[n:5]([H:10])[n:6][c:7]1[H:11])[H:8]>>[C:1]1([H:8])=[C:2]=[C:3]=[C:4]([H:9])[N:5]([H:10])[N:6]=[C:7]1[H:11]"
C        2.14242294      -0.09878359      -0.46881728
C        1.22398230      -0.32094939       0.34023763
C        0.13211575      -0.64896866       1.15647636
C       -1.01910184      -1.01967236       0.53571925
N       -1.54275719      -0.14784821      -0.36769794
N       -0.94879904       1.04892886      -0.50297625
C        0.24131203       1.08464395      -0.01071173
H        3.11080016       0.18022975      -0.81881391
H       -1.54262573      -1.95841955       0.66411116
H       -2.51810433      -0.16753743      -0.61271794
H        0.72075495       2.04837662       0.08519065
11
Frame=6 idx=010255 GeodesicLength=0.5355297381462116 rxn_smarts="[C:1](#[C:2][c:3]1[c:4]([H:9])[n:5]([H:10])[n:6][c:7]1[H:11])[H:8]>>[C:1]1([H:8])=[C:2]=[C:3]=[C:4]([H:9])[N:5]([H:10])[N:6]=[C:7]1[H:11]"
C        2.12921154      -0.09512900      -0.47737688
C        1.23545336      -0.34759328       0.35176266
C        0.12759769      -0.62091624       1.15659692
C       -1.01524700      -1.01761631       0.53334613
N       -1.54772191      -0.14421942      -0.36175556
N       -0.95520005       1.05573294      -0.50316583
C        0.24040504       1.08991716      -0.02093937
H        3.11501360       0.15695699      -0.79946570
H       -1.51290568      -1.97340639       0.63639909
H       -2.52667902      -0.16255940      -0.59240169
H        0.71007244       2.05883295       0.07700022
11
Frame=7 idx=010255 GeodesicLength=0.6249499047678121 rxn_smarts="[C:1](#[C:2][c:3]1[c:4]([H:9])[n:5]([H:10])[n:6][c:7]1[H:11])[H:8]>>[C:1]1([H:8])=[C:2]=[C:3]=[C:4]([H:9])[N:5]([H:10])[N:6]=[C:7]1[H:11]"
C        2.11786413      -0.08982793      -0.48184447
C        1.24696947      -0.37576825       0.36256188
C        0.12442321      -0.59446710       1.15413059
C       -1.01122944      -1.01567407       0.53060947
N       -1.55267331      -0.14085395      -0.35610568
N       -0.96142437       1.06204872      -0.50448813
C        0.23921699       1.09534100      -0.03133951
H        3.11795073       0.13337435      -0.78200522
H       -1.48429172      -1.98608599       0.61041195
H       -2.53514681      -0.15769445      -0.57178826
H        0.69834112       2.06960768       0.06985737
11
Frame=8 idx=010255 GeodesicLength=0.7144153540437427 rxn_smarts="[C:1](#[C:2][c:3]1[c:4]([H:9])[n:5]([H:10])[n:6][c:7]1[H:11])[H:8]>>[C:1]1([H:8])=[C:2]=[C:3]=[C:4]([H:9])[N:5]([H:10])[N:6]=[C:7]1[H:11]"
C        2.10816775      -0.08312581      -0.48249470
C        1.25836767      -0.40557137       0.37272993
C        0.12256665      -0.56950675       1.14923850
C       -1.00706857      -1.01376964       0.52763169
N       -1.55755992      -0.13767710      -0.35062406
N       -0.96759131       1.06792757      -0.50677855
C        0.23769838       1.10097406      -0.04193473
H        3.11982112       0.10964518      -0.76623997
H       -1.45670494      -1.99674975       0.58590771
H       -2.54333505      -0.15288694      -0.55089120
H        0.68563822       2.08074053       0.06345537
11
Frame=9 idx=010255 GeodesicLength=0.8038007487523411 rxn_smarts="[C:1](#[C:2][c:3]1[c:4]([H:9])[n:5]([H:10])[n:6][c:7]1[H:11])[H:8]>>[C:1]1([H:8])=[C:2]=[C:3]=[C:4]([H:9])[N:5]([H:10])[N:6]=[C:7]1[H:11]"
C        2.10002483      -0.07538204      -0.47927272
C        1.26985775      -0.43716976       0.38185277
C        0.12227273      -0.54620690       1.14174689
C       -1.00263375      -1.01206826       0.52413028
N       -1.56243146      -0.13469294      -0.34532699
N       -0.97351676       1.07341496      -0.51004674
C        0.23605287       1.10678818      -0.05286841
H        3.12070788       0.08680590      -0.75157596
H       -1.43096561      -2.00549640       0.56330645
H       -2.55145383      -0.14801569      -0.52937396
H        0.67208534       2.09202295       0.05742839
11
Frame=10 idx=010255 GeodesicLength=0.8931521957000776 rxn_smarts="[C:1](#[C:2][c:3]1[c:4]([H:9])[n:5]([H:10])[n:6][c:7]1[H:11])[H:8]>>[C:1]1([H:8])=[C:2]=[C:3]=[C:4]([H:9])[N:5]([H:10])[N:6]=[C:7]1[H:11]"
C        2.09328282      -0.06668520      -0.47230155
C        1.28136567      -0.47055428       0.39000799
C        0.12356120      -0.52448963       1.13178483
C       -0.99794730      -1.01051298       0.52021050
N       -1.56723718      -0.13185934      -0.34015015
N       -0.97931588       1.07857265      -0.51411245
C        0.23425253       1.11288958      -0.06412298
H        3.12065383       0.06478371      -0.73799944
H       -1.40703864      -2.01260799       0.54245993
H       -2.55934719      -0.14312085      -0.50739640
H        0.65777013       2.10358433       0.05161971
11
Frame=11 idx=010255 GeodesicLength=0.9824585617976709 rxn_smarts="[C:1](#[C:2][c:3]1[c:4]([H:9])[n:5]([H:10])[n:6][c:7]1[H:11])[H:8]>>[C:1]1([H:8])=[C:2]=[C:3]=[C:4]([H:9])[N:5]([H:10])[N:6]=[C:7]1[H:11]"
C        2.08783314      -0.05724099      -0.46149410
C        1.29279614      -0.50554433       0.39748070
C        0.12635148      -0.50421000       1.11951366
C       -0.99298988      -1.00906602       0.51590213
N       -1.57195628      -0.12911174      -0.33500373
N       -0.98511646       1.08346529      -0.51887683
C        0.23223074       1.11939513      -0.07569765
H        3.11964234       0.04334122      -0.72565094
H       -1.38460162      -2.01840390       0.52291859
H       -2.56692140      -0.13816851      -0.48489000
H        0.64273180       2.11554383       0.04579817
11
Frame=12 idx=010255 GeodesicLength=1.0717129667341954 rxn_smarts="[C:1](#[C:2][c:3]1[c:4]([H:9])[n:5]([H:10])[n:6][c:7]1[H:11])[H:8]>>[C:1]1([H:8])=[C:2]=[C:3]=[C:4]([H:9])[N:5]([H:10])[N:6]=[C:7]1[H:11]"
C        2.08346833      -0.04724503      -0.44666660
C        1.30417696      -0.54189652       0.40455677
C        0.13061978      -0.48529534       1.10506303
C       -0.98768036      -1.00772631       0.51116253
N       -1.57644969      -0.12644511      -0.32993398
N       -0.99093422       1.08821784      -0.52413989
C        0.22999912       1.12643830      -0.08749379
H        3.11735279       0.02233026      -0.71490357
H       -1.36360898      -2.02308065       0.50457410
H       -2.57398393      -0.13328106      -0.46210215
H        0.62704020       2.12798363       0.03988354
11
Frame=13 idx=010255 GeodesicLength=1.160929770164556 rxn_smarts="[C:1](#[C:2][c:3]1[c:4]([H:9])[n:5]([H:10])[n:6][c:7]1[H:11])[H:8]>>[C:1]1([H:8])=[C:2]=[C:3]=[C:4]([H:9])[N:5]([H:10])[N:6]=[C:7]1[H:11]"
C        2.07996213      -0.03688392      -0.42751564
C        1.31560427      -0.57917805       0.41182939
C        0.13625912      -0.46758687       1.08869819
C       -0.98191919      -1.00649792       0.50593661
N       -1.58058496      -0.12385804      -0.32500833
N       -0.99676108       1.09294340      -0.52969828
C        0.22758402       1.13416592      -0.09937339
H        3.11324466       0.00133021      -0.70639829
H       -1.34376537      -2.02688664       0.48703787
H       -2.58039468      -0.12858043      -0.43927638
H        0.61077109       2.14103233       0.03376826
11
Frame=14 idx=010255 GeodesicLength=1.2501112114512152 rxn_smarts="[C:1](#[C:2][c:3]1[c:4]([H:9])[n:5]([H:10])[n:6][c:7]1[H:11])[H:8]>>[C:1]1([H:8])=[C:2]=[C:3]=[C:4]([H:9])[N:5]([H:10])[N:6]=[C:7]1[H:11]"
C        2.07709143      -0.02646988      -0.40377571
C        1.32712542      -0.61682128       0.42017988
C        0.14304965      -0.45088555       1.07079232
C       -0.97560666      -1.00538019       0.50018024
N       -1.58417740      -0.12134693      -0.32031345
N       -1.00258884       1.09777684      -0.53532972
C        0.22500948       1.14270633      -0.11115349
H        3.10653885      -0.02010276      -0.70100119
H       -1.32459157      -2.03006017       0.46979771
H       -2.58592666      -0.12421530      -0.41674560
H        0.59407630       2.15479889       0.02736900
11
Frame=15 idx=010255 GeodesicLength=1.3392810942970432 rxn_smarts="[C:1](#[C:2][c:3]1[c:4]([H:9])[n:5]([H:10])[n:6][c:7]1[H:11])[H:8]>>[C:1]1([H:8])=[C:2]=[C:3]=[C:4]([H:9])[N:5]([H:10])[N:6]=[C:7]1[H:11]"
C        2.07458635      -0.01641851      -0.37533799
C        1.33884049      -0.65417959       0.43074288
C        0.15072385      -0.43497598       1.05182414
C       -0.96864013      -1.00438314       0.49384329
N       -1.58702459      -0.11891644      -0.31596367
N       -1.00834753       1.10284475      -0.54076398
C        0.22237107       1.15212197      -0.12262279
H        3.09616139      -0.04226147      -0.69962373
H       -1.30554351      -2.03281149       0.45225055
H       -2.59037168      -0.12034177      -0.39490835
H        0.57724429       2.16932168       0.02055966
11
Frame=16 idx=010255 GeodesicLength=1.4284603891534677 rxn_smarts="[C:1](#[C:2][c:3]1[c:4]([H:9])[n:5]([H:10])[n:6][c:7]1[H:11])[H:8]>>[C:1]1([H:8])=[C:2]=[C:3]=[C:4]([H:9])[N:5]([H:10])[N:6]=[C:7]1[H:11]"
C        2.07225512      -0.00697029      -0.34193236
C        1.35086919      -0.69037072       0.44496412
C        0.15895806      -0.41955882       1.03239948
C       -0.96082763      -1.00353227       0.48681194
N       -1.58880838      -0.11661557      -0.31218064
N       -1.01388385       1.10830059      -0.54574101
C        0.21978696       1.16252483      -0.13347062
H        3.08047480      -0.06590412      -0.70364407
H       -1.28593296      -2.03534886       0.43373381
H       -2.59340380      -0.11722974      -0.37434137
H        0.56051247       2.18470496       0.01340072
