12
Frame=0 idx=000973 GeodesicLength=0.0 rxn_smarts="[C:1]([c:2]1[c:3]([H:10])[o:4][c:5]([H:11])[c:6]1[H:12])([H:7])([H:8])[H:9]>>[C:1]([C:2]1=[C:3]([H:10])[C@:6]1([C:5](=[O:4])[H:11])[H:12])([H:7])([H:8])[H:9]"
C       -1.85643792      -0.22836904       0.11052540
C       -0.46447288       0.28559369      -0.07980606
C       -0.10052521       1.49706987      -0.54717844
O        2.50490151       0.91567251       0.14356300
C        2.01102622      -0.19600398       0.14821187
C        0.65145805      -0.56436910      -0.15537322
H       -2.59420912       0.48236106      -0.25688154
H       -2.02768033      -0.39845350       1.17536192
H       -1.98452652      -1.18413162      -0.40050941
H        0.75703499       2.05233720      -0.15745795
H        2.62479259      -1.06320476       0.46067656
H        0.47863866      -1.59850235      -0.44113209
12
Frame=1 idx=000973 GeodesicLength=0.09090923262815032 rxn_smarts="[C:1]([c:2]1[c:3]([H:10])[o:4][c:5]([H:11])[c:6]1[H:12])([H:7])([H:8])[H:9]>>[C:1]([C:2]1=[C:3]([H:10])[C@:6]1([C:5](=[O:4])[H:11])[H:12])([H:7])([H:8])[H:9]"
C       -1.85684407      -0.22092266       0.11395603
C       -0.45963461       0.27388158      -0.07752143
C       -0.05849343       1.45572229      -0.58099911
O        2.47317059       0.92535291       0.14041551
C        2.00336500      -0.20050642       0.17647101
C        0.65770938      -0.57857022      -0.16693452
H       -2.58497482       0.50420541      -0.24485004
H       -2.02528221      -0.39599581       1.17849133
H       -2.00341951      -1.17084478      -0.40315625
H        0.71853463       2.08051169      -0.13610733
H        2.64559227      -1.05865884       0.44969488
H        0.49027680      -1.61417515      -0.44946007
12
Frame=2 idx=000973 GeodesicLength=0.1824318233939497 rxn_smarts="[C:1]([c:2]1[c:3]([H:10])[o:4][c:5]([H:11])[c:6]1[H:12])([H:7])([H:8])[H:9]>>[C:1]([C:2]1=[C:3]([H:10])[C@:6]1([C:5](=[O:4])[H:11])[H:12])([H:7])([H:8])[H:9]"
C       -1.85668969      -0.21321935       0.11811135
C       -0.45466682       0.26225125      -0.07587128
C       -0.01757171       1.41556311      -0.60744350
O        2.43908911       0.93422515       0.15071099
C        1.99549124      -0.20615342       0.20535899
C        0.66431274      -0.59263372      -0.17695800
H       -2.57499733       0.52681826      -0.23025183
H       -2.02165968      -0.39497850       1.18206978
H       -2.02224108      -1.15603000      -0.40633889
H        0.67955515       2.10629990      -0.13260792
H        2.66657887      -1.05370341       0.43421227
H        0.50279921      -1.62843927      -0.46099197
12
Frame=3 idx=000973 GeodesicLength=0.2740637498671722 rxn_smarts="[C:1]([c:2]1[c:3]([H:10])[o:4][c:5]([H:11])[c:6]1[H:12])([H:7])([H:8])[H:9]>>[C:1]([C:2]1=[C:3]([H:10])[C@:6]1([C:5](=[O:4])[H:11])[H:12])([H:7])([H:8])[H:9]"
C       -1.85590857      -0.20545030       0.12307503
C       -0.44948881       0.25061619      -0.07505862
C        0.02216733       1.37689764      -0.62790463
O        2.40344868       0.94214045       0.17081330
C        1.98810202      -0.21316835       0.23124641
C        0.67125039      -0.60657457      -0.18726434
H       -2.56427808       0.55003544      -0.21256986
H       -2.01639355      -0.39588479       1.18621580
H       -2.04123154      -1.13971296      -0.41007395
H        0.64043257       2.13018603      -0.14258484
H        2.68612980      -1.04743190       0.42024429
H        0.51576977      -1.64165288      -0.47613859
12
Frame=4 idx=000973 GeodesicLength=0.36593795586497335 rxn_smarts="[C:1]([c:2]1[c:3]([H:10])[o:4][c:5]([H:11])[c:6]1[H:12])([H:7])([H:8])[H:9]>>[C:1]([C:2]1=[C:3]([H:10])[C@:6]1([C:5](=[O:4])[H:11])[H:12])([H:7])([H:8])[H:9]"
C       -1.85455961      -0.19762267       0.12865677
C       -0.44420153       0.23900557      -0.07488229
C        0.06063214       1.33997356      -0.64287486
O        2.36634793       0.94896044       0.19729673
C        1.98106494      -0.22136275       0.25447920
C        0.67846143      -0.62030825      -0.19792748
H       -2.55280110       0.57367971      -0.19229517
H       -2.00985161      -0.39854442       1.19064948
H       -2.06021318      -1.12195307      -0.41437019
H        0.60137532       2.15204321      -0.16311688
H        2.70446919      -1.03997079       0.40871518
H        0.52927607      -1.65390054      -0.49433047
12
Frame=5 idx=000973 GeodesicLength=0.45840073257429825 rxn_smarts="[C:1]([c:2]1[c:3]([H:10])[o:4][c:5]([H:11])[c:6]1[H:12])([H:7])([H:8])[H:9]>>[C:1]([C:2]1=[C:3]([H:10])[C@:6]1([C:5](=[O:4])[H:11])[H:12])([H:7])([H:8])[H:9]"
C       -1.85288456      -0.18967576       0.13470962
C       -0.43896641       0.22743785      -0.07502095
C        0.09788771       1.30487477      -0.65289464
O        2.32735578       0.95490317       0.22917409
C        1.97406128      -0.23067028       0.27649162
C        0.68589587      -0.63395456      -0.20840708
H       -2.54065934       0.59788969      -0.16982548
H       -2.00280652      -0.40291422       1.19527797
H       -2.07913374      -1.10273138      -0.41942108
H        0.56311451       2.17154326      -0.19316888
H        2.72261157      -1.03116760       0.39775936
H        0.54352386      -1.66553492      -0.51467454
12
Frame=6 idx=000973 GeodesicLength=0.5503649518414987 rxn_smarts="[C:1]([c:2]1[c:3]([H:10])[o:4][c:5]([H:11])[c:6]1[H:12])([H:7])([H:8])[H:9]>>[C:1]([C:2]1=[C:3]([H:10])[C@:6]1([C:5](=[O:4])[H:11])[H:12])([H:7])([H:8])[H:9]"
C       -1.85090236      -0.18190870       0.14128988
C       -0.43388370       0.21599567      -0.07567513
C        0.13378162       1.27193510      -0.65826977
O        2.28817893       0.95924265       0.26427644
C        1.96712571      -0.24052154       0.29700575
C        0.69347539      -0.64686842      -0.21945236
H       -2.52796540       0.62186389      -0.14499774
H       -1.99496403      -0.40914953       1.19990298
H       -2.09819060      -1.08225229      -0.42482898
H        0.52574030       2.18843850      -0.23130447
H        2.73939045      -1.02114376       0.38985418
H        0.55821369      -1.67563156      -0.53780078
12
Frame=7 idx=000973 GeodesicLength=0.6421741233029822 rxn_smarts="[C:1]([c:2]1[c:3]([H:10])[o:4][c:5]([H:11])[c:6]1[H:12])([H:7])([H:8])[H:9]>>[C:1]([C:2]1=[C:3]([H:10])[C@:6]1([C:5](=[O:4])[H:11])[H:12])([H:7])([H:8])[H:9]"
C       -1.84875914      -0.17426814       0.14832199
C       -0.42906277       0.20469614      -0.07676802
C        0.16843479       1.24109392      -0.65930643
O        2.24830002       0.96188772       0.30228738
C        1.96004229      -0.25079946       0.31678214
C        0.70119404      -0.65900149      -0.23077136
H       -2.51477314       0.64557922      -0.11799210
H       -1.98675387      -0.41708682       1.20439649
H       -2.11737561      -1.06047659      -0.43056762
H        0.48990449       2.20209320      -0.27692444
H        2.75532088      -1.00954195       0.38369283
H        0.57352802      -1.68417576      -0.56315086
12
Frame=8 idx=000973 GeodesicLength=0.7342494643840379 rxn_smarts="[C:1]([c:2]1[c:3]([H:10])[o:4][c:5]([H:11])[c:6]1[H:12])([H:7])([H:8])[H:9]>>[C:1]([C:2]1=[C:3]([H:10])[C@:6]1([C:5](=[O:4])[H:11])[H:12])([H:7])([H:8])[H:9]"
C       -1.84621491      -0.16665003       0.15578660
C       -0.42454895       0.19368489      -0.07842383
C        0.20128271       1.21260246      -0.65610533
O        2.20741963       0.96225164       0.34086216
C        1.95271368      -0.26146784       0.33575040
C        0.70920709      -0.66997745      -0.24286201
H       -2.50118530       0.66894738      -0.08865856
H       -1.97751967      -0.42672679       1.20855255
H       -2.13628732      -1.03703275      -0.43654386
H        0.45521487       2.21191631      -0.32872497
H        2.77000883      -0.99693724       0.38126358
H        0.58990935      -1.69061058      -0.59089673
12
Frame=9 idx=000973 GeodesicLength=0.8260963811921023 rxn_smarts="[C:1]([c:2]1[c:3]([H:10])[o:4][c:5]([H:11])[c:6]1[H:12])([H:7])([H:8])[H:9]>>[C:1]([C:2]1=[C:3]([H:10])[C@:6]1([C:5](=[O:4])[H:11])[H:12])([H:7])([H:8])[H:9]"
C       -1.84379250      -0.15930230       0.16391412
C       -0.42050484       0.18302374      -0.08038396
C        0.23288936       1.18695394      -0.64912721
O        2.16586385       0.96193262       0.38179546
C        1.94493853      -0.27254001       0.35464032
C        0.71741254      -0.68012297      -0.25545091
H       -2.48741494       0.69201927      -0.05694075
H       -1.96857569      -0.43839436       1.21298539
H       -2.15532420      -1.01267821      -0.44267712
H        0.42344335       2.21814784      -0.38790204
H        2.78373602      -0.98340117       0.38064092
H        0.60732852      -1.69563839      -0.62149421
12
Frame=10 idx=000973 GeodesicLength=0.9178852352461677 rxn_smarts="[C:1]([c:2]1[c:3]([H:10])[o:4][c:5]([H:11])[c:6]1[H:12])([H:7])([H:8])[H:9]>>[C:1]([C:2]1=[C:3]([H:10])[C@:6]1([C:5](=[O:4])[H:11])[H:12])([H:7])([H:8])[H:9]"
C       -1.84087385      -0.15215648       0.17254108
C       -0.41690121       0.17281978      -0.08317093
C        0.26248326       1.16376486      -0.63816878
O        2.12420260       0.95910848       0.42247507
C        1.93657866      -0.28359180       0.37281587
C        0.72580162      -0.68822316      -0.26947247
H       -2.47328783       0.71375572      -0.02303374
H       -1.95811963      -0.45133305       1.21684922
H       -2.17410771      -0.98688996      -0.44819199
H        0.39338457       2.21914563      -0.45243148
H        2.79525821      -0.96921966       0.38471200
H        0.62558133      -1.69718034      -0.65492385
12
Frame=11 idx=000973 GeodesicLength=1.0094257946231313 rxn_smarts="[C:1]([c:2]1[c:3]([H:10])[o:4][c:5]([H:11])[c:6]1[H:12])([H:7])([H:8])[H:9]>>[C:1]([C:2]1=[C:3]([H:10])[C@:6]1([C:5](=[O:4])[H:11])[H:12])([H:7])([H:8])[H:9]"
C       -1.83800402      -0.14537185       0.18194006
C       -0.41389548       0.16323941      -0.08648109
C        0.29053890       1.14366444      -0.62338576
O        2.08206800       0.95511341       0.46469991
C        1.92749366      -0.29478036       0.39077970
C        0.73442408      -0.69454597      -0.28463830
H       -2.45920755       0.73438805       0.01315781
H       -1.94755136      -0.46586416       1.22079577
H       -2.19285826      -0.96037813      -0.45296654
H        0.36684805       2.21493249      -0.52379896
H        2.80512367      -0.95461689       0.39164383
H        0.64502031      -1.69578045      -0.69174644
12
Frame=12 idx=000973 GeodesicLength=1.1009499848971966 rxn_smarts="[C:1]([c:2]1[c:3]([H:10])[o:4][c:5]([H:11])[c:6]1[H:12])([H:7])([H:8])[H:9]>>[C:1]([C:2]1=[C:3]([H:10])[C@:6]1([C:5](=[O:4])[H:11])[H:12])([H:7])([H:8])[H:9]"
C       -1.83480647      -0.13891430       0.19206449
C       -0.41150717       0.15448294      -0.09041932
C        0.31647800       1.12654207      -0.60459185
O        2.03959885       0.94929999       0.50758940
C        1.91750900      -0.30586631       0.40837665
C        0.74320112      -0.69825608      -0.30129470
H       -2.44502121       0.75342406       0.05187797
H       -1.93575665      -0.48195068       1.22433327
H       -2.21140881      -0.93267472      -0.45684827
H        0.34359886       2.20389172      -0.60174258
H        2.81264758      -0.93989850       0.40258166
H        0.66546690      -1.69008019      -0.73192671
12
Frame=13 idx=000973 GeodesicLength=1.1922019235901875 rxn_smarts="[C:1]([c:2]1[c:3]([H:10])[o:4][c:5]([H:11])[c:6]1[H:12])([H:7])([H:8])[H:9]>>[C:1]([C:2]1=[C:3]([H:10])[C@:6]1([C:5](=[O:4])[H:11])[H:12])([H:7])([H:8])[H:9]"
C       -1.83160703      -0.13287841       0.20314504
C       -0.40987504       0.14690909      -0.09473951
C        0.34031754       1.11312000      -0.58152715
O        1.99654149       0.94223593       0.55198018
C        1.90650623      -0.31688168       0.42566250
C        0.75222284      -0.69900236      -0.31954547
H       -2.43125587       0.77076512       0.09297963
H       -1.92348381      -0.49953650       1.22792349
H       -2.22968754      -0.90441952      -0.45941479
H        0.32509890       2.18481604      -0.68713273
H        2.81794057      -0.92551094       0.41681865
H        0.68728173      -1.67961676      -0.77614984
12
Frame=14 idx=000973 GeodesicLength=1.28318447774682 rxn_smarts="[C:1]([c:2]1[c:3]([H:10])[o:4][c:5]([H:11])[c:6]1[H:12])([H:7])([H:8])[H:9]>>[C:1]([C:2]1=[C:3]([H:10])[C@:6]1([C:5](=[O:4])[H:11])[H:12])([H:7])([H:8])[H:9]"
C       -1.82823226      -0.12730792       0.21518389
C       -0.40904698       0.14092919      -0.09932792
C        0.36164542       1.10371358      -0.55392180
O        1.95298103       0.93383648       0.59778181
C        1.89424674      -0.32753148       0.44247043
C        0.76131994      -0.69585601      -0.33964259
H       -2.41796290       0.78593331       0.13630732
H       -1.91023629      -0.51839055       1.23143384
H       -2.24750095      -0.87579241      -0.46042132
H        0.31222838       2.15515564      -0.77975073
H        2.82043677      -0.91158658       0.43437016
H        0.71012109      -1.66310325      -0.82448307
12
Frame=15 idx=000973 GeodesicLength=1.3736421363263616 rxn_smarts="[C:1]([c:2]1[c:3]([H:10])[o:4][c:5]([H:11])[c:6]1[H:12])([H:7])([H:8])[H:9]>>[C:1]([C:2]1=[C:3]([H:10])[C@:6]1([C:5](=[O:4])[H:11])[H:12])([H:7])([H:8])[H:9]"
C       -1.82498643      -0.12215518       0.22824198
C       -0.40914586       0.13709359      -0.10385154
C        0.38019374       1.09890313      -0.52211816
O        1.90842804       0.92440487       0.64534563
C        1.88071469      -0.33769780       0.45845159
C        0.77047024      -0.68831253      -0.36152168
H       -2.40594566       0.79881938       0.18078505
H       -1.89666305      -0.53765841       1.23537558
H       -2.26452853      -0.84777660      -0.45924518
H        0.30690199       2.11224135      -0.87821373
H        2.82039191      -0.89808961       0.45389901
H        0.73416892      -1.63977219      -0.87714855
12
Frame=16 idx=000973 GeodesicLength=1.4639034521166494 rxn_smarts="[C:1]([c:2]1[c:3]([H:10])[o:4][c:5]([H:11])[c:6]1[H:12])([H:7])([H:8])[H:9]>>[C:1]([C:2]1=[C:3]([H:10])[C@:6]1([C:5](=[O:4])[H:11])[H:12])([H:7])([H:8])[H:9]"
C       -1.82171203      -0.11717002       0.24194123
C       -0.41009560       0.13555091      -0.10874533
C        0.39573623       1.09781500      -0.48903451
O        1.86238872       0.91445329       0.69310956
C        1.86592186      -0.34674428       0.47310773
C        0.77946343      -0.67655757      -0.38467071
H       -2.39485170       0.80978324       0.22638489
H       -1.88233047      -0.55714058       1.23925667
H       -2.28100326      -0.81989203      -0.45635841
H        0.30947205       2.05415433      -0.97741665
H        2.81789549      -0.88423903       0.47488693
H        0.75911527      -1.61001325      -0.93246139
