16
Frame=0 idx=011122 GeodesicLength=0.0 rxn_smarts="[C:1]([C:2]1([C:6]#[N:7])[C:3]([H:11])([H:12])[C:4]([H:13])([H:14])[C:5]1([H:15])[H:16])([H:8])([H:9])[H:10]>>[C:1]([C:2]1([N+:7]#[C-:6])[C:3]([H:11])([H:12])[C:4]([H:13])([H:14])[C:5]1([H:15])[H:16])([H:8])([H:9])[H:10]"
C        1.14699068       1.19031436       0.15960209
C        0.52236931      -0.15733739      -0.10433581
C       -0.45522220      -0.63154394       0.98629256
C       -1.60244921      -0.07636102       0.11481097
C       -0.65012406      -0.17132083      -1.09669441
C        1.83200717      -1.07280349      -0.93809815
N        1.87090407      -1.50013033       0.16113308
H        1.65775318       1.56712142      -0.72558791
H        1.86195232       1.12499259       0.97906675
H        0.36397038       1.89975766       0.44056880
H       -0.29277083      -0.22310612       1.98329322
H       -0.49759204      -1.71641895       1.04339523
H       -2.51356807      -0.66965271       0.06892701
H       -1.86370871       0.95172112       0.36465264
H       -0.73974420      -1.13594433      -1.59148687
H       -0.64076781       0.62071196      -1.84553919
16
Frame=1 idx=011122 GeodesicLength=0.028425952400168184 rxn_smarts="[C:1]([C:2]1([C:6]#[N:7])[C:3]([H:11])([H:12])[C:4]([H:13])([H:14])[C:5]1([H:15])[H:16])([H:8])([H:9])[H:10]>>[C:1]([C:2]1([N+:7]#[C-:6])[C:3]([H:11])([H:12])[C:4]([H:13])([H:14])[C:5]1([H:15])[H:16])([H:8])([H:9])[H:10]"
C        1.14682452       1.18960019       0.15961073
C        0.52529871      -0.16119329      -0.10408939
C       -0.45569554      -0.63076650       0.98726008
C       -1.60295705      -0.07774831       0.11487917
C       -0.64971453      -0.16917923      -1.09588350
C        1.83468289      -1.08589224      -0.94304849
N        1.87814870      -1.49856513       0.15894867
H        1.65978373       1.56669684      -0.72429395
H        1.85924206       1.12912156       0.98175405
H        0.36366200       1.90020668       0.43675925
H       -0.29617364      -0.21880963       1.98334654
H       -0.49884521      -1.71557182       1.04798749
H       -2.51305401      -0.67252091       0.06782581
H       -1.86668966       0.94955533       0.36532650
H       -0.74178467      -1.13129289      -1.59531072
H       -0.64272830       0.62635936      -1.84107224
16
Frame=2 idx=011122 GeodesicLength=0.05682998204780964 rxn_smarts="[C:1]([C:2]1([C:6]#[N:7])[C:3]([H:11])([H:12])[C:4]([H:13])([H:14])[C:5]1([H:15])[H:16])([H:8])([H:9])[H:10]>>[C:1]([C:2]1([N+:7]#[C-:6])[C:3]([H:11])([H:12])[C:4]([H:13])([H:14])[C:5]1([H:15])[H:16])([H:8])([H:9])[H:10]"
C        1.14665094       1.18890109       0.15963973
C        0.52822879      -0.16503412      -0.10383311
C       -0.45615977      -0.62997426       0.98822714
C       -1.60346092      -0.07914147       0.11494164
C       -0.64928611      -0.16702852      -1.09505989
C        1.83724809      -1.09916856      -0.94798736
N        1.88544041      -1.49692713       0.15665729
H        1.66182595       1.56627486      -0.72296717
H        1.85648335       1.13328132       0.98445422
H        0.36335586       1.90066620       0.43295458
H       -0.29957008      -0.21450458       1.98338086
H       -0.50008923      -1.71469662       1.05259675
H       -2.51251800      -0.67541374       0.06670926
H       -1.86969160       0.94737206       0.36598819
H       -0.74379834      -1.12659756      -1.59912423
H       -0.64465932       0.63199103      -1.83657791
16
Frame=3 idx=011122 GeodesicLength=0.08520490363930253 rxn_smarts="[C:1]([C:2]1([C:6]#[N:7])[C:3]([H:11])([H:12])[C:4]([H:13])([H:14])[C:5]1([H:15])[H:16])([H:8])([H:9])[H:10]>>[C:1]([C:2]1([N+:7]#[C-:6])[C:3]([H:11])([H:12])[C:4]([H:13])([H:14])[C:5]1([H:15])[H:16])([H:8])([H:9])[H:10]"
C        1.14646803       1.18821883       0.15969111
C        0.53115959      -0.16885796      -0.10356568
C       -0.45661589      -0.62916784       0.98919307
C       -1.60395964      -0.08053760       0.11499774
C       -0.64883754      -0.16487239      -1.09422337
C        1.83970228      -1.11263022      -0.95291045
N        1.89277590      -1.49521560       0.15425160
H        1.66387007       1.56586226      -0.72160756
H        1.85368023       1.13747051       0.98716300
H        0.36305048       1.90113494       0.42916473
H       -0.30295872      -0.21019603       1.98339643
H       -0.50132591      -1.71379358       1.05721899
H       -2.51196171      -0.67832334       0.06557823
H       -1.87270897       0.94517539       0.36663464
H       -0.74578187      -1.12186488      -1.60292079
H       -0.64655632       0.63759751      -1.83206169
16
Frame=4 idx=011122 GeodesicLength=0.11356299377395937 rxn_smarts="[C:1]([C:2]1([C:6]#[N:7])[C:3]([H:11])([H:12])[C:4]([H:13])([H:14])[C:5]1([H:15])[H:16])([H:8])([H:9])[H:10]>>[C:1]([C:2]1([N+:7]#[C-:6])[C:3]([H:11])([H:12])[C:4]([H:13])([H:14])[C:5]1([H:15])[H:16])([H:8])([H:9])[H:10]"
C        1.14627885       1.18755638       0.15976397
C        0.53409192      -0.17266454      -0.10328763
C       -0.45706339      -0.62834652       0.99016054
C       -1.60445429      -0.08194201       0.11504736
C       -0.64836808      -0.16270683      -1.09337605
C        1.84203817      -1.12629147      -0.95781575
N        1.90015639      -1.49343130       0.15172763
H        1.66592832       1.56545730      -0.72021523
H        1.85083161       1.14169276       0.98988396
H        0.36274800       1.90161832       0.42538347
H       -0.30634537      -0.20587669       1.98339678
H       -0.50255134      -1.71286397       1.06186170
H       -2.51138252      -0.68126250       0.06443075
H       -1.87574900       0.94295972       0.36726974
H       -0.74773547      -1.11708929      -1.60671013
H       -0.64842380       0.64319063      -1.82752110
16
Frame=5 idx=011122 GeodesicLength=0.14189856957847943 rxn_smarts="[C:1]([C:2]1([C:6]#[N:7])[C:3]([H:11])([H:12])[C:4]([H:13])([H:14])[C:5]1([H:15])[H:16])([H:8])([H:9])[H:10]>>[C:1]([C:2]1([N+:7]#[C-:6])[C:3]([H:11])([H:12])[C:4]([H:13])([H:14])[C:5]1([H:15])[H:16])([H:8])([H:9])[H:10]"
C        1.14608508       1.18690940       0.15985733
C        0.53702654      -0.17645270      -0.10299797
C       -0.45750036      -0.62750561       0.99112734
C       -1.60494528      -0.08335826       0.11508914
C       -0.64787741      -0.16052757      -1.09251399
C        1.84424907      -1.14015602      -0.96269248
N        1.90758193      -1.49157147       0.14907781
H        1.66800418       1.56505129      -0.71878703
H        1.84793877       1.14594315       0.99261353
H        0.36244977       1.90211085       0.42160574
H       -0.30973429      -0.20153622       1.98337424
H       -0.50376035      -1.71189859       1.06652741
H       -2.51077468      -0.68424091       0.06326263
H       -1.87881947       0.94071464       0.36789180
H       -0.74965567      -1.11225984      -1.61049259
H       -0.65026785       0.64877788      -1.82294293
16
Frame=6 idx=011122 GeodesicLength=0.17019031583841962 rxn_smarts="[C:1]([C:2]1([C:6]#[N:7])[C:3]([H:11])([H:12])[C:4]([H:13])([H:14])[C:5]1([H:15])[H:16])([H:8])([H:9])[H:10]>>[C:1]([C:2]1([N+:7]#[C-:6])[C:3]([H:11])([H:12])[C:4]([H:13])([H:14])[C:5]1([H:15])[H:16])([H:8])([H:9])[H:10]"
C        1.14587737       1.18628194       0.15997603
C        0.53996143      -0.18021895      -0.10269506
C       -0.45792719      -0.62665175       0.99209036
C       -1.60542749      -0.08477375       0.11512246
C       -0.64736663      -0.15834512      -1.09163842
C        1.84633813      -1.15421784      -0.96753614
N        1.91504996      -1.48962655       0.14630249
H        1.67007471       1.56465746      -0.71732143
H        1.84499996       1.15022180       0.99535055
H        0.36214804       1.90261270       0.41784720
H       -0.31310547      -0.19720277       1.98333101
H       -0.50495900      -1.71090511       1.07119626
H       -2.51014438      -0.68722563       0.06207677
H       -1.88189664       0.93845965       0.36849541
H       -0.75154115      -1.10739721      -1.61424892
H       -0.65208164       0.65433113      -1.81834857
16
Frame=7 idx=011122 GeodesicLength=0.19846002865304102 rxn_smarts="[C:1]([C:2]1([C:6]#[N:7])[C:3]([H:11])([H:12])[C:4]([H:13])([H:14])[C:5]1([H:15])[H:16])([H:8])([H:9])[H:10]>>[C:1]([C:2]1([N+:7]#[C-:6])[C:3]([H:11])([H:12])[C:4]([H:13])([H:14])[C:5]1([H:15])[H:16])([H:8])([H:9])[H:10]"
C        1.14566136       1.18567970       0.16011876
C        0.54289837      -0.18396340      -0.10238007
C       -0.45834621      -0.62578549       0.99305367
C       -1.60590355      -0.08619365       0.11514907
C       -0.64683325      -0.15615756      -1.09075288
C        1.84830007      -1.16848817      -0.97234113
N        1.92256074      -1.48760434       0.14339110
H        1.67214814       1.56428237      -0.71582326
H        1.84202000       1.15453585       0.99809532
H        0.36184780       1.90313215       0.41410733
H       -0.31646890      -0.19286992       1.98327407
H       -0.50615049      -1.70988741       1.07587779
H       -2.50949210      -0.69023136       0.06087307
H       -1.88498868       0.93619061       0.36908596
H       -0.75339002      -1.10250047      -1.61799166
H       -0.65386329       0.65986109      -1.81373715
16
Frame=8 idx=011122 GeodesicLength=0.2267050605481874 rxn_smarts="[C:1]([C:2]1([C:6]#[N:7])[C:3]([H:11])([H:12])[C:4]([H:13])([H:14])[C:5]1([H:15])[H:16])([H:8])([H:9])[H:10]>>[C:1]([C:2]1([N+:7]#[C-:6])[C:3]([H:11])([H:12])[C:4]([H:13])([H:14])[C:5]1([H:15])[H:16])([H:8])([H:9])[H:10]"
C        1.14543737       1.18509939       0.16028561
C        0.54583800      -0.18768566      -0.10205284
C       -0.45875459      -0.62490408       0.99401612
C       -1.60637263      -0.08762120       0.11516799
C       -0.64627729      -0.15396080      -1.08985505
C        1.85012667      -1.18297793      -0.97710242
N        1.93011733      -1.48549718       0.14033850
H        1.67422859       1.56391843      -0.71428907
H        1.83899517       1.15888198       1.00084968
H        0.36154847       1.90366558       0.41037985
H       -0.31982880      -0.18852915       1.98319847
H       -0.50732712      -1.70884029       1.08057311
H       -2.50881273      -0.69326454       0.05965098
H       -1.88810064       0.93390051       0.36966118
H       -0.75520229      -1.09756012      -1.62172191
H       -0.65561550       0.66537507      -1.80910020
16
Frame=9 idx=011122 GeodesicLength=0.25492971768851924 rxn_smarts="[C:1]([C:2]1([C:6]#[N:7])[C:3]([H:11])([H:12])[C:4]([H:13])([H:14])[C:5]1([H:15])[H:16])([H:8])([H:9])[H:10]>>[C:1]([C:2]1([N+:7]#[C-:6])[C:3]([H:11])([H:12])[C:4]([H:13])([H:14])[C:5]1([H:15])[H:16])([H:8])([H:9])[H:10]"
C        1.14520641       1.18454235       0.16047604
C        0.54878119      -0.19138491      -0.10171351
C       -0.45915029      -0.62400714       0.99497811
C       -1.60683467      -0.08906060       0.11517897
C       -0.64569866      -0.15175137      -1.08894520
C        1.85180731      -1.19770183      -0.98181335
N        1.93772376      -1.48330006       0.13714050
H        1.67632729       1.56355936      -0.71271644
H        1.83592211       1.16326365       1.00361681
H        0.36125058       1.90421702       0.40665477
H       -0.32318829      -0.18417619       1.98310392
H       -0.50848516      -1.70776346       1.08528427
H       -2.50810271      -0.69633437       0.05840883
H       -1.89123716       0.93158316       0.37022362
H       -0.75697826      -1.09256904      -1.62544646
H       -0.65734346       0.67088344      -1.80443089
16
Frame=10 idx=011122 GeodesicLength=0.2831296553077072 rxn_smarts="[C:1]([C:2]1([C:6]#[N:7])[C:3]([H:11])([H:12])[C:4]([H:13])([H:14])[C:5]1([H:15])[H:16])([H:8])([H:9])[H:10]>>[C:1]([C:2]1([N+:7]#[C-:6])[C:3]([H:11])([H:12])[C:4]([H:13])([H:14])[C:5]1([H:15])[H:16])([H:8])([H:9])[H:10]"
C        1.14496695       1.18401069       0.16069202
C        0.55172821      -0.19505931      -0.10136060
C       -0.45953443      -0.62309545       0.99593934
C       -1.60728852      -0.09050822       0.11518156
C       -0.64509612      -0.14953317      -1.08802327
C        1.85334312      -1.21265688      -0.98646689
N        1.94537534      -1.48101443       0.13378574
H        1.67843275       1.56321448      -0.71110604
H        1.83280458       1.16767939       1.00639363
H        0.36095290       1.90478560       0.40294288
H       -0.32654492      -0.17981706       1.98299161
H       -0.50962668      -1.70665778       1.09000767
H       -2.50736401      -0.69943220       0.05714741
H       -1.89439282       0.92924393       0.37076950
H       -0.75871415      -1.08753534      -1.62915804
H       -0.65904220       0.67637576      -1.79973651
16
Frame=11 idx=011122 GeodesicLength=0.31129874797063467 rxn_smarts="[C:1]([C:2]1([C:6]#[N:7])[C:3]([H:11])([H:12])[C:4]([H:13])([H:14])[C:5]1([H:15])[H:16])([H:8])([H:9])[H:10]>>[C:1]([C:2]1([N+:7]#[C-:6])[C:3]([H:11])([H:12])[C:4]([H:13])([H:14])[C:5]1([H:15])[H:16])([H:8])([H:9])[H:10]"
C        1.14471754       1.18350649       0.16093560
C        0.55467948      -0.19870702      -0.10099270
C       -0.45990805      -0.62216992       0.99689935
C       -1.60773295      -0.09196046       0.11517524
C       -0.64446854      -0.14731003      -1.08708941
C        1.85473473      -1.22784043      -0.99105634
N        1.95306737      -1.47864136       0.13026402
H        1.68053359       1.56289335      -0.70945866
H        1.82964670       1.17212781       1.00917732
H        0.36065403       1.90537035       0.39925495
H       -0.32989594      -0.17545799       1.98286276
H       -0.51075378      -1.70552420       1.09473931
H       -2.50659868      -0.70254924       0.05586744
H       -1.89756203       0.92688806       0.37129519
H       -0.76040628      -1.08246721      -1.63284942
H       -0.66070720       0.68184179      -1.79502465
16
Frame=12 idx=011122 GeodesicLength=0.3394413929147557 rxn_smarts="[C:1]([C:2]1([C:6]#[N:7])[C:3]([H:11])([H:12])[C:4]([H:13])([H:14])[C:5]1([H:15])[H:16])([H:8])([H:9])[H:10]>>[C:1]([C:2]1([N+:7]#[C-:6])[C:3]([H:11])([H:12])[C:4]([H:13])([H:14])[C:5]1([H:15])[H:16])([H:8])([H:9])[H:10]"
C        1.14446016       1.18303065       0.16120587
C        0.55763522      -0.20232655      -0.10061139
C       -0.46026900      -0.62122994       0.99785789
C       -1.60816816      -0.09342225       0.11515950
C       -0.64381654      -0.14507625      -1.08614473
C        1.85596663      -1.24327347      -0.99557012
N        1.96080666      -1.47617145       0.12657367
H        1.68264005       1.56258996      -0.70777289
H        1.82644661       1.17661105       1.01197003
H        0.36035525       1.90597334       0.39558370
H       -0.33324397      -0.17109301       1.98271576
H       -0.51185986      -1.70436216       1.09948087
H       -2.50580224      -0.70569721       0.05456589
H       -1.90075078       0.92450787       0.37180416
H       -0.76205537      -1.07735466      -1.63652916
H       -0.66234467       0.68729408      -1.79028905
16
Frame=13 idx=011122 GeodesicLength=0.3675726770884274 rxn_smarts="[C:1]([C:2]1([C:6]#[N:7])[C:3]([H:11])([H:12])[C:4]([H:13])([H:14])[C:5]1([H:15])[H:16])([H:8])([H:9])[H:10]>>[C:1]([C:2]1([N+:7]#[C-:6])[C:3]([H:11])([H:12])[C:4]([H:13])([H:14])[C:5]1([H:15])[H:16])([H:8])([H:9])[H:10]"
C        1.14420321       1.18259316       0.16150286
C        0.56059603      -0.20591588      -0.10021896
C       -0.46061700      -0.62027921       0.99882096
C       -1.60859663      -0.09490159       0.11513388
C       -0.64314282      -0.14282707      -1.08519759
C        1.85701931      -1.25898370      -1.00000224
N        1.96859843      -1.47359709       0.12271539
H        1.68477359       1.56230806      -0.70605171
H        1.82320636       1.18114303       1.01478395
H        0.36006567       1.90660821       0.39192237
H       -0.33658924      -0.16671990       1.98256226
H       -0.51294544      -1.70318164       1.10423945
H       -2.50497538      -0.70889678       0.05323911
H       -1.90396521       0.92209653       0.37230216
H       -0.76366848      -1.07219389      -1.64021568
H       -0.66396241       0.69274778      -1.78553622
16
Frame=14 idx=011122 GeodesicLength=0.39568189180091784 rxn_smarts="[C:1]([C:2]1([C:6]#[N:7])[C:3]([H:11])([H:12])[C:4]([H:13])([H:14])[C:5]1([H:15])[H:16])([H:8])([H:9])[H:10]>>[C:1]([C:2]1([N+:7]#[C-:6])[C:3]([H:11])([H:12])[C:4]([H:13])([H:14])[C:5]1([H:15])[H:16])([H:8])([H:9])[H:10]"
C        1.14393919       1.18217757       0.16182627
C        0.56356361      -0.20947537      -0.09981105
C       -0.46094804      -0.61930273       0.99978105
C       -1.60901419      -0.09639628       0.11509782
C       -0.64244009      -0.14056075      -1.08423201
C        1.85790613      -1.27495108      -1.00433890
N        1.97642720      -1.47093194       0.11865384
H        1.68691949       1.56203139      -0.70428483
H        1.81991851       1.18570149       1.01760529
H        0.35977412       1.90725348       0.38826886
H       -0.33994186      -0.16231878       1.98237909
H       -0.51399934      -1.70195451       1.10901619
H       -2.50410124      -0.71214501       0.05188542
H       -1.90721650       0.91964589       0.37278078
H       -0.76522750      -1.06697198      -1.64388982
H       -0.66555949       0.69819861      -1.78073801
16
Frame=15 idx=011122 GeodesicLength=0.4237423017658566 rxn_smarts="[C:1]([C:2]1([C:6]#[N:7])[C:3]([H:11])([H:12])[C:4]([H:13])([H:14])[C:5]1([H:15])[H:16])([H:8])([H:9])[H:10]>>[C:1]([C:2]1([N+:7]#[C-:6])[C:3]([H:11])([H:12])[C:4]([H:13])([H:14])[C:5]1([H:15])[H:16])([H:8])([H:9])[H:10]"
C        1.14365321       1.18178377       0.16217571
C        0.56653608      -0.21300035      -0.09939175
C       -0.46125960      -0.61831050       1.00072390
C       -1.60941397      -0.09789363       0.11505298
C       -0.64170856      -0.13827765      -1.08324527
C        1.85860494      -1.29121022      -1.00855320
N        1.98432245      -1.46813299       0.11440892
H        1.68905407       1.56175470      -0.70247207
H        1.81657293       1.19028579       1.02042170
H        0.35946567       1.90790607       0.38463081
H       -0.34328526      -0.15792355       1.98215528
H       -0.51501601      -1.70069061       1.11377293
H       -2.50318276      -0.71540341       0.05050823
H       -1.91048161       0.91717080       0.37324406
H       -0.76672840      -1.06169339      -1.64753445
H       -0.66713318       0.70363517      -1.77589776
16
Frame=16 idx=011122 GeodesicLength=0.4517877144458594 rxn_smarts="[C:1]([C:2]1([C:6]#[N:7])[C:3]([H:11])([H:12])[C:4]([H:13])([H:14])[C:5]1([H:15])[H:16])([H:8])([H:9])[H:10]>>[C:1]([C:2]1([N+:7]#[C-:6])[C:3]([H:11])([H:12])[C:4]([H:13])([H:14])[C:5]1([H:15])[H:16])([H:8])([H:9])[H:10]"
C        1.14336840       1.18143615       0.16255752
C        0.56951624      -0.21648983      -0.09895634
C       -0.46155955      -0.61730758       1.00167515
C       -1.60980567      -0.09940900       0.11499620
C       -0.64095171      -0.13598521      -1.08225760
C        1.85912279      -1.30774346      -1.01265769
N        1.99224848      -1.46524396       0.10995224
H        1.69119700       1.56152343      -0.70062586
H        1.81320408       1.19491746       1.02325402
H        0.35916712       1.90859411       0.38101990
H       -0.34662520      -0.15352328       1.98193127
H       -0.51601629      -1.69940837       1.11855210
H       -2.50223676      -0.71870996       0.04910213
H       -1.91376821       0.91466601       0.37368698
H       -0.76818081      -1.05637886      -1.65118042
H       -0.66867991       0.70906235      -1.77104959
