14
Frame=0 idx=007889 GeodesicLength=0.0 rxn_smarts="[C:1](/[C:2](=[N:3]\[O:4][H:11])[C@@:5]1([H:12])[C:6]([H:13])([H:14])[O:7]1)([H:8])([H:9])[H:10]>>[C:1](=[C:2]([N:3]([O:4][H:11])[H:10])[C@@:5]1([H:12])[C:6]([H:13])([H:14])[O:7]1)([H:8])[H:9]"
C       -1.36864537      -0.72327018      -0.89851309
C       -0.41106791      -0.21571583      -0.00380656
N       -0.64995120       0.66113978       1.03729596
O       -1.99496043       0.97949632       1.00102092
C        1.04399065      -0.44236685      -0.30540189
C        2.01745326       0.63792201      -0.17795472
O        1.95562094      -0.41602801       0.76746717
H       -2.41089552      -0.46640490      -0.80495187
H       -1.05932875      -1.46200209      -1.62320603
H       -0.77052444      -0.96255180       0.81830873
H       -2.14425233       1.39930657       1.85211546
H        1.21935514      -1.22860209      -1.03516657
H        2.89618462       0.63857944      -0.81594941
H        1.67702133       1.60049765       0.18874185
14
Frame=1 idx=007889 GeodesicLength=0.10901208511763195 rxn_smarts="[C:1](/[C:2](=[N:3]\[O:4][H:11])[C@@:5]1([H:12])[C:6]([H:13])([H:14])[O:7]1)([H:8])([H:9])[H:10]>>[C:1](=[C:2]([N:3]([O:4][H:11])[H:10])[C@@:5]1([H:12])[C:6]([H:13])([H:14])[O:7]1)([H:8])[H:9]"
C       -1.38298032      -0.77728439      -0.86320643
C       -0.41213988      -0.20659412      -0.02285092
N       -0.65920602       0.67300336       1.00955814
O       -2.00701242       0.98114595       0.98882775
C        1.03833529      -0.41156115      -0.35005887
C        2.03210741       0.63762257      -0.14572353
O        1.95779369      -0.48632732       0.71420641
H       -2.42046514      -0.49267287      -0.80013169
H       -1.07901503      -1.54794403      -1.55632949
H       -0.77503827      -0.94705590       0.84404012
H       -2.13538047       1.46255857       1.81004312
H        1.21468354      -1.13440332      -1.14328041
H        2.90859454       0.67402736      -0.78588970
H        1.71972308       1.57548528       0.30079550
14
Frame=2 idx=007889 GeodesicLength=0.2170807078088579 rxn_smarts="[C:1](/[C:2](=[N:3]\[O:4][H:11])[C@@:5]1([H:12])[C:6]([H:13])([H:14])[O:7]1)([H:8])([H:9])[H:10]>>[C:1](=[C:2]([N:3]([O:4][H:11])[H:10])[C@@:5]1([H:12])[C:6]([H:13])([H:14])[O:7]1)([H:8])[H:9]"
C       -1.39385582      -0.83191499      -0.82238569
C       -0.41400684      -0.19660301      -0.04102853
N       -0.66885049       0.68755623       0.98123654
O       -2.01926477       0.98560886       0.97454365
C        1.03124395      -0.37745895      -0.39502753
C        2.04635182       0.63248098      -0.11351916
O        1.95864882      -0.55811691       0.64984333
H       -2.42699704      -0.52584865      -0.79271998
H       -1.08918991      -1.62781905      -1.48622230
H       -0.77856270      -0.92793748       0.87404616
H       -2.13067733       1.52378585       1.76219586
H        1.20356526      -1.02719679      -1.25069293
H        2.91963647       0.70737875      -0.75485081
H        1.76195859       1.53608515       0.41458139
14
Frame=3 idx=007889 GeodesicLength=0.3252073127484144 rxn_smarts="[C:1](/[C:2](=[N:3]\[O:4][H:11])[C@@:5]1([H:12])[C:6]([H:13])([H:14])[O:7]1)([H:8])([H:9])[H:10]>>[C:1](=[C:2]([N:3]([O:4][H:11])[H:10])[C@@:5]1([H:12])[C:6]([H:13])([H:14])[O:7]1)([H:8])[H:9]"
C       -1.40041750      -0.88717973      -0.77592117
C       -0.41685920      -0.18521435      -0.05876518
N       -0.67955376       0.70534830       0.95159894
O       -2.03298619       0.99140267       0.95813492
C        1.02242343      -0.33881814      -0.44032097
C        2.06013447       0.62201821      -0.08140381
O        1.95807450      -0.63127694       0.57174424
H       -2.43097417      -0.56995093      -0.77927205
H       -1.08891721      -1.70112777      -1.41447046
H       -0.78052854      -0.90428288       0.90815034
H       -2.12979915       1.58639071       1.70566374
H        1.18396770      -0.90510338      -1.35592215
H        2.92901277       0.73910070      -0.72250763
H        1.80642285       1.47869351       0.53329123
14
Frame=4 idx=007889 GeodesicLength=0.43233370797617166 rxn_smarts="[C:1](/[C:2](=[N:3]\[O:4][H:11])[C@@:5]1([H:12])[C:6]([H:13])([H:14])[O:7]1)([H:8])([H:9])[H:10]>>[C:1](=[C:2]([N:3]([O:4][H:11])[H:10])[C@@:5]1([H:12])[C:6]([H:13])([H:14])[O:7]1)([H:8])[H:9]"
C       -1.40148640      -0.93858313      -0.72682501
C       -0.41988532      -0.17260044      -0.07536184
N       -0.69044999       0.72388575       0.92339786
O       -2.04634456       0.99948513       0.94064117
C        1.01307026      -0.29968049      -0.48227387
C        2.07268368       0.60621533      -0.05202431
O        1.95562811      -0.69915738       0.48618047
H       -2.43063732      -0.61734592      -0.76302628
H       -1.07889995      -1.76382335      -1.34532955
H       -0.78337402      -0.87775296       0.94441955
H       -2.13344567       1.64301483       1.64792179
H        1.16086381      -0.77804935      -1.44929904
H        2.93680039       0.76637805      -0.69028131
H        1.84547696       1.40801394       0.64186036
14
Frame=5 idx=007889 GeodesicLength=0.5400488442348734 rxn_smarts="[C:1](/[C:2](=[N:3]\[O:4][H:11])[C@@:5]1([H:12])[C:6]([H:13])([H:14])[O:7]1)([H:8])([H:9])[H:10]>>[C:1](=[C:2]([N:3]([O:4][H:11])[H:10])[C@@:5]1([H:12])[C:6]([H:13])([H:14])[O:7]1)([H:8])[H:9]"
C       -1.39727697      -0.98771866      -0.67432119
C       -0.42356738      -0.15889701      -0.09117695
N       -0.70236086       0.74260560       0.89656109
O       -2.06108978       1.00609856       0.92411718
C        1.00277180      -0.25809591      -0.52165226
C        2.08397659       0.58561385      -0.02472601
O        1.95138597      -0.76237771       0.39063945
H       -2.42704513      -0.67156226      -0.74067327
H       -1.06023501      -1.81692223      -1.28006581
H       -0.78565326      -0.84898395       0.98291020
H       -2.13974920       1.70130031       1.58154672
H        1.13237482      -0.64354174      -1.53207919
H        2.94300493       0.79076898      -0.65697830
H        1.88346348       1.32171217       0.74589834
14
Frame=6 idx=007889 GeodesicLength=0.6481956361806545 rxn_smarts="[C:1](/[C:2](=[N:3]\[O:4][H:11])[C@@:5]1([H:12])[C:6]([H:13])([H:14])[O:7]1)([H:8])([H:9])[H:10]>>[C:1](=[C:2]([N:3]([O:4][H:11])[H:10])[C@@:5]1([H:12])[C:6]([H:13])([H:14])[O:7]1)([H:8])[H:9]"
C       -1.38793477      -1.03180935      -0.62116412
C       -0.42739376      -0.14373334      -0.10698246
N       -0.71438091       0.76096035       0.87145051
O       -2.07554090       1.01392932       0.90716190
C        0.99254027      -0.21675408      -0.55759083
C        2.09377293       0.56069772      -0.00056924
O        1.94545484      -0.81802621       0.28943588
H       -2.41997110      -0.72785551      -0.71392870
H       -1.03551323      -1.86191296      -1.21732125
H       -0.78903541      -0.81827207       1.02185021
H       -2.14930717       1.75474818       1.51315702
H        1.10308575      -0.50733972      -1.60161857
H        2.94807655       0.81143545      -0.62268948
H        1.91614691       1.22393222       0.83880915
14
Frame=7 idx=007889 GeodesicLength=0.7569950045326406 rxn_smarts="[C:1](/[C:2](=[N:3]\[O:4][H:11])[C@@:5]1([H:12])[C:6]([H:13])([H:14])[O:7]1)([H:8])([H:9])[H:10]>>[C:1](=[C:2]([N:3]([O:4][H:11])[H:10])[C@@:5]1([H:12])[C:6]([H:13])([H:14])[O:7]1)([H:8])[H:9]"
C       -1.37412965      -1.07106539      -0.56770663
C       -0.43164710      -0.12748413      -0.12276724
N       -0.72670690       0.77760479       0.84907793
O       -2.09018449       1.02068195       0.89203975
C        0.98235354      -0.17533628      -0.58992673
C        2.10204375       0.53248127       0.02025465
O        1.93758503      -0.86498448       0.18437989
H       -2.40953713      -0.78470160      -0.68376203
H       -1.00624311      -1.89930043      -1.15765979
H       -0.79345302      -0.78726602       1.06094702
H       -2.16077398       1.80524690       1.44045872
H        1.07358536      -0.37118315      -1.65771977
H        2.95236300       0.82796788      -0.58749876
H        1.94474469       1.11733870       0.91988299
14
Frame=8 idx=007889 GeodesicLength=0.866411788415587 rxn_smarts="[C:1](/[C:2](=[N:3]\[O:4][H:11])[C@@:5]1([H:12])[C:6]([H:13])([H:14])[O:7]1)([H:8])([H:9])[H:10]>>[C:1](=[C:2]([N:3]([O:4][H:11])[H:10])[C@@:5]1([H:12])[C:6]([H:13])([H:14])[O:7]1)([H:8])[H:9]"
C       -1.35645799      -1.10521522      -0.51463342
C       -0.43631743      -0.11012172      -0.13920862
N       -0.73898664       0.79269361       0.82887704
O       -2.10448111       1.02729003       0.87812134
C        0.97247467      -0.13449266      -0.61920548
C        2.10867802       0.50138669       0.03775340
O        1.92790833      -0.90311155       0.07695665
H       -2.39603549      -0.84087811      -0.65062450
H       -0.97376120      -1.93082876      -1.09944255
H       -0.79931914      -0.75593001       1.09984103
H       -2.17386628       1.85119080       1.36544090
H        1.04587421      -0.23630014      -1.70143589
H        2.95606522       0.84042000      -0.55102878
H        1.96822482       1.00389704       0.98858890
14
Frame=9 idx=007889 GeodesicLength=0.9764908297753657 rxn_smarts="[C:1](/[C:2](=[N:3]\[O:4][H:11])[C@@:5]1([H:12])[C:6]([H:13])([H:14])[O:7]1)([H:8])([H:9])[H:10]>>[C:1](=[C:2]([N:3]([O:4][H:11])[H:10])[C@@:5]1([H:12])[C:6]([H:13])([H:14])[O:7]1)([H:8])[H:9]"
C       -1.33533378      -1.13476439      -0.46166545
C       -0.44158432      -0.09191363      -0.15639140
N       -0.75125520       0.80617876       0.81066754
O       -2.11851237       1.03377330       0.86527486
C        0.96281576      -0.09396167      -0.64578410
C        2.11367510       0.46773294       0.05203236
O        1.91647852      -0.93255184      -0.03241615
H       -2.37944974      -0.89597759      -0.61505119
H       -0.93855558      -1.95754323      -1.04173838
H       -0.80681894      -0.72439832       1.13890492
H       -2.18817940       1.89265393       1.28766278
H        1.02025628      -0.10233786      -1.73375387
H        2.95927870       0.84863746      -0.51319487
H        1.98718497       0.88447214       1.04545294
14
Frame=10 idx=007889 GeodesicLength=1.0872440696599226 rxn_smarts="[C:1](/[C:2](=[N:3]\[O:4][H:11])[C@@:5]1([H:12])[C:6]([H:13])([H:14])[O:7]1)([H:8])([H:9])[H:10]>>[C:1](=[C:2]([N:3]([O:4][H:11])[H:10])[C@@:5]1([H:12])[C:6]([H:13])([H:14])[O:7]1)([H:8])[H:9]"
C       -1.31095390      -1.16002496      -0.40855278
C       -0.44758412      -0.07297813      -0.17456931
N       -0.76355066       0.81833998       0.79389277
O       -2.13233744       1.04049187       0.85289836
C        0.95332437      -0.05351860      -0.67007997
C        2.11701232       0.43158107       0.06316144
O        1.90327289      -0.95349515      -0.14354604
H       -2.35969602      -0.94996301      -0.57723532
H       -0.90068873      -1.98031556      -0.98345087
H       -0.81621919      -0.69232797       1.17842730
H       -2.20356560       1.92926311       1.20758215
H        0.99717960       0.03114199      -1.75544592
H        2.96210827       0.85228748      -0.47383626
H        2.00169821       0.75951788       1.09075444
14
Frame=11 idx=007889 GeodesicLength=1.198722666470431 rxn_smarts="[C:1](/[C:2](=[N:3]\[O:4][H:11])[C@@:5]1([H:12])[C:6]([H:13])([H:14])[O:7]1)([H:8])([H:9])[H:10]>>[C:1](=[C:2]([N:3]([O:4][H:11])[H:10])[C@@:5]1([H:12])[C:6]([H:13])([H:14])[O:7]1)([H:8])[H:9]"
C       -1.28331843      -1.18122121      -0.35499933
C       -0.45443603      -0.05342050      -0.19411654
N       -0.77594880       0.82957173       0.77775378
O       -2.14605338       1.04789375       0.84005739
C        0.94396284      -0.01297686      -0.69255102
C        2.11855592       0.39281625       0.07114998
O        1.88830149      -0.96606005      -0.25651353
H       -2.33656100      -1.00307411      -0.53713803
H       -0.85982166      -1.99985461      -0.92335559
H       -0.82784023      -0.65908954       1.21861388
H       -2.21991877       1.96075041       1.12621069
H        0.97710892       0.16463298      -1.76704412
H        2.96452546       0.85103335      -0.43267345
H        2.01144368       0.62899841       1.12460588
14
Frame=12 idx=007889 GeodesicLength=1.311044347095756 rxn_smarts="[C:1](/[C:2](=[N:3]\[O:4][H:11])[C@@:5]1([H:12])[C:6]([H:13])([H:14])[O:7]1)([H:8])([H:9])[H:10]>>[C:1](=[C:2]([N:3]([O:4][H:11])[H:10])[C@@:5]1([H:12])[C:6]([H:13])([H:14])[O:7]1)([H:8])[H:9]"
C       -1.25227411      -1.19847273      -0.30069238
C       -0.46228831      -0.03339550      -0.21517646
N       -0.78865325       0.83998828       0.76185937
O       -2.15992241       1.05604966       0.82610897
C        0.93462666       0.02809182      -0.71337238
C        2.11821768       0.35125019       0.07587329
O        1.87138092      -0.97015281      -0.37137546
H       -2.30961934      -1.05555623      -0.49484040
H       -0.81522073      -2.01642873      -0.86044201
H       -0.84212665      -0.62429758       1.25969137
H       -2.23716086       1.98724020       1.04390640
H        0.96018429       0.29864169      -1.76855873
H        2.96656968       0.84407844      -0.38973580
H        2.01628644       0.49296328       1.14675423
14
Frame=13 idx=007889 GeodesicLength=1.4244939112491435 rxn_smarts="[C:1](/[C:2](=[N:3]\[O:4][H:11])[C@@:5]1([H:12])[C:6]([H:13])([H:14])[O:7]1)([H:8])([H:9])[H:10]>>[C:1](=[C:2]([N:3]([O:4][H:11])[H:10])[C@@:5]1([H:12])[C:6]([H:13])([H:14])[O:7]1)([H:8])[H:9]"
C       -1.21749339      -1.21178342      -0.24527658
C       -0.47127530      -0.01307071      -0.23799292
N       -0.80189322       0.84978308       0.74563595
O       -2.17422350       1.06509637       0.81009843
C        0.92523357       0.06999974      -0.73269981
C        2.11576470       0.30656913       0.07710005
O        1.85241197      -0.96551840      -0.48836514
H       -2.27826494      -1.10782754      -0.45020597
H       -0.76577399      -2.03011516      -0.79347405
H       -0.85961284      -0.58734215       1.30176564
H       -2.25527050       2.00899226       0.96138660
H        0.94658410       0.43361507      -1.75968857
H        2.96808363       0.83065608      -0.34497643
H        2.01572972       0.35094566       1.15669280
14
Frame=14 idx=007889 GeodesicLength=1.539448342727606 rxn_smarts="[C:1](/[C:2](=[N:3]\[O:4][H:11])[C@@:5]1([H:12])[C:6]([H:13])([H:14])[O:7]1)([H:8])([H:9])[H:10]>>[C:1](=[C:2]([N:3]([O:4][H:11])[H:10])[C@@:5]1([H:12])[C:6]([H:13])([H:14])[O:7]1)([H:8])[H:9]"
C       -1.17870214      -1.22089070      -0.18866709
C       -0.48152340       0.00737098      -0.26257857
N       -0.81594370       0.85878871       0.72904119
O       -2.18928554       1.07474994       0.79169753
C        0.91571284       0.11313605      -0.75030239
C        2.11106051       0.25856837       0.07442714
O        1.83100747      -0.95180260      -0.60695084
H       -2.24181821      -1.15997994      -0.40343263
H       -0.71021160      -2.04038524      -0.72161331
H       -0.88098559      -0.54812562       1.34479122
H       -2.27420259       2.02631645       0.87883925
H        0.93645061       0.56924924      -1.73975991
H        2.96909859       0.80945412      -0.29897757
H        2.00934275       0.20355024       1.15348596
14
Frame=15 idx=007889 GeodesicLength=1.6565458882406612 rxn_smarts="[C:1](/[C:2](=[N:3]\[O:4][H:11])[C@@:5]1([H:12])[C:6]([H:13])([H:14])[O:7]1)([H:8])([H:9])[H:10]>>[C:1](=[C:2]([N:3]([O:4][H:11])[H:10])[C@@:5]1([H:12])[C:6]([H:13])([H:14])[O:7]1)([H:8])[H:9]"
C       -1.13575734      -1.22538292      -0.13097608
C       -0.49309616       0.02768837      -0.28885508
N       -0.83105008       0.86672101       0.71216210
O       -2.20537828       1.08466234       0.77071321
C        0.90606268       0.15765434      -0.76572687
C        2.10396014       0.20723623       0.06736432
O        1.80679599      -0.92879912      -0.72598932
H       -2.19959213      -1.21190608      -0.35501131
H       -0.64722119      -2.04628743      -0.64418254
H       -0.90707102      -0.50679546       1.38851218
H       -2.29383665       2.03948202       0.79665168
H        0.92994496       0.70449913      -1.70805590
H        2.96960883       0.77918714      -0.25280162
H        1.99663025       0.05204042       1.13619523
14
Frame=16 idx=007889 GeodesicLength=1.7769218429367828 rxn_smarts="[C:1](/[C:2](=[N:3]\[O:4][H:11])[C@@:5]1([H:12])[C:6]([H:13])([H:14])[O:7]1)([H:8])([H:9])[H:10]>>[C:1](=[C:2]([N:3]([O:4][H:11])[H:10])[C@@:5]1([H:12])[C:6]([H:13])([H:14])[O:7]1)([H:8])[H:9]"
C       -1.08865974      -1.22486434      -0.07232431
C       -0.50595168       0.04751013      -0.31646417
N       -0.84747086       0.87323333       0.69525930
O       -2.22276017       1.09452861       0.74678367
C        0.89634264       0.20349599      -0.77818576
C        2.09441452       0.15275666       0.05543354
O        1.77949673      -0.89651463      -0.84402823
H       -2.15090817      -1.26348863      -0.30548420
H       -0.57562867      -2.04640722      -0.56084937
H       -0.93892058      -0.46372263       1.43254034
H       -2.31400884       2.04885559       0.71495997
H        0.92692102       0.83795059      -1.66371900
H        2.96957876       0.73882919      -0.20800613
H        1.97755503      -0.10216265       1.10408435
