14
Frame=0 idx=007289 GeodesicLength=0.0 rxn_smarts="[O:1]([C@@:2]1([H:9])[C:3]([H:10])([H:11])[N:4]([H:12])[C:5]([H:13])([H:14])[C:6]1=[O:7])[H:8]>>[O:1]([C@@:2]1([H:9])[C:3]([H:10])([H:11])[N:4]2[C:5]([H:13])([H:14])[C@:6]12[O:7][H:12])[H:8]"
O        2.14847924      -0.14026179       0.41915896
C        0.81491317       0.02993219       0.77584231
C        0.12332663       1.25488787       0.15054047
N       -0.75691453       0.46757693      -0.78290675
C       -1.52165346      -0.53565860       0.01958594
C       -0.10613862      -0.83660861      -0.10270679
O        0.37593951      -1.49024208      -1.15618082
H        2.14766774      -0.72943007      -0.35119083
H        0.69673580      -0.09980264       1.85299577
H       -0.46252307       1.88216458       0.82474453
H        0.81239324       1.86742444      -0.42590251
H       -0.14022264      -0.38382980      -1.58304838
H       -2.19271481      -1.12663739      -0.58953463
H       -1.93928817      -0.15951505       0.94860278
14
Frame=1 idx=007289 GeodesicLength=0.08939287496043596 rxn_smarts="[O:1]([C@@:2]1([H:9])[C:3]([H:10])([H:11])[N:4]([H:12])[C:5]([H:13])([H:14])[C:6]1=[O:7])[H:8]>>[O:1]([C@@:2]1([H:9])[C:3]([H:10])([H:11])[N:4]2[C:5]([H:13])([H:14])[C@:6]12[O:7][H:12])[H:8]"
O        2.15009649      -0.12663960       0.41613772
C        0.81398763       0.03169826       0.77005145
C        0.12155710       1.25705926       0.14886499
N       -0.76860703       0.47666029      -0.77763936
C       -1.52110180      -0.53553099       0.02096233
C       -0.10491533      -0.84049793      -0.10283303
O        0.37168278      -1.49121429      -1.15769064
H        2.16561283      -0.75463013      -0.32174179
H        0.69484056      -0.09863175       1.84734283
H       -0.45289989       1.88966100       0.82759997
H        0.81042686       1.86469083      -0.43388318
H       -0.14887857      -0.36755357      -1.60310076
H       -2.19043440      -1.12798629      -0.58970482
H       -1.94136724      -0.17708510       0.95563429
14
Frame=2 idx=007289 GeodesicLength=0.17873761347946687 rxn_smarts="[O:1]([C@@:2]1([H:9])[C:3]([H:10])([H:11])[N:4]([H:12])[C:5]([H:13])([H:14])[C:6]1=[O:7])[H:8]>>[O:1]([C@@:2]1([H:9])[C:3]([H:10])([H:11])[N:4]2[C:5]([H:13])([H:14])[C@:6]12[O:7][H:12])[H:8]"
O        2.15154123      -0.11363170       0.41220285
C        0.81318503       0.03349860       0.76403697
C        0.11978050       1.25923234       0.14709425
N       -0.78051501       0.48579685      -0.77209834
C       -1.52048516      -0.53549091       0.02240020
C       -0.10364230      -0.84448996      -0.10295698
O        0.36756670      -1.49192799      -1.15938708
H        2.18344396      -0.77961549      -0.29003486
H        0.69337504      -0.09738134       1.84150035
H       -0.44295363       1.89719175       0.83034094
H        0.80828565       1.86186128      -0.44215224
H       -0.15824005      -0.35061698      -1.62357016
H       -2.18806579      -1.12935113      -0.58990652
H       -1.94327618      -0.19507532       0.96253062
14
Frame=3 idx=007289 GeodesicLength=0.26802476547147736 rxn_smarts="[O:1]([C@@:2]1([H:9])[C:3]([H:10])([H:11])[N:4]([H:12])[C:5]([H:13])([H:14])[C:6]1=[O:7])[H:8]>>[O:1]([C@@:2]1([H:9])[C:3]([H:10])([H:11])[N:4]2[C:5]([H:13])([H:14])[C@:6]12[O:7][H:12])[H:8]"
O        2.15281713      -0.10140055       0.40744305
C        0.81249021       0.03528325       0.75783690
C        0.11803916       1.26136833       0.14522812
N       -0.79259708       0.49495754      -0.76627314
C       -1.51980921      -0.53553001       0.02389517
C       -0.10233103      -0.84862677      -0.10304230
O        0.36356797      -1.49247070      -1.16120668
H        2.20111509      -0.80391630      -0.25627973
H        0.69228533      -0.09607262       1.83550670
H       -0.43262844       1.90474840       0.83293237
H        0.80604053       1.85886227      -0.45070189
H       -0.16833492      -0.33304881      -1.64444201
H       -2.18562146      -1.13070542      -0.59015388
H       -1.94503328      -0.21344861       0.96925730
14
Frame=4 idx=007289 GeodesicLength=0.35725232572112514 rxn_smarts="[O:1]([C@@:2]1([H:9])[C:3]([H:10])([H:11])[N:4]([H:12])[C:5]([H:13])([H:14])[C:6]1=[O:7])[H:8]>>[O:1]([C@@:2]1([H:9])[C:3]([H:10])([H:11])[N:4]2[C:5]([H:13])([H:14])[C@:6]12[O:7][H:12])[H:8]"
O        2.15393585      -0.09006095       0.40197060
C        0.81188683       0.03700140       0.75149074
C        0.11637412       1.26342964       0.14326816
N       -0.80481257       0.50411660      -0.76015361
C       -1.51908021      -0.53564034       0.02544278
C       -0.10099303      -0.85294981      -0.10305272
O        0.35965010      -1.49293384      -1.16308971
H        2.21860425      -0.82712045      -0.22071150
H        0.69151092      -0.09472888       1.82940174
H       -0.42187154       1.91232159       0.83534088
H        0.80375813       1.85562346      -0.45952392
H       -0.17918559      -0.31486746      -1.66570295
H       -2.18311646      -1.13202051      -0.59046239
H       -1.94666080      -0.23217045       0.97578190
14
Frame=5 idx=007289 GeodesicLength=0.44642154654558985 rxn_smarts="[O:1]([C@@:2]1([H:9])[C:3]([H:10])([H:11])[N:4]([H:12])[C:5]([H:13])([H:14])[C:6]1=[O:7])[H:8]>>[O:1]([C@@:2]1([H:9])[C:3]([H:10])([H:11])[N:4]2[C:5]([H:13])([H:14])[C@:6]12[O:7][H:12])[H:8]"
O        2.15491215      -0.07968689       0.39591922
C        0.81135630       0.03860082       0.74503859
C        0.11482376       1.26537904       0.14121650
N       -0.81712360       0.51325148      -0.75372844
C       -1.51830392      -0.53581534       0.02703964
C       -0.09963929      -0.85749965      -0.10295301
O        0.35576925      -1.49340797      -1.16498053
H        2.23591719      -0.84887046      -0.18358423
H        0.69098459      -0.09337596       1.82322509
H       -0.41063073       1.91990151       0.83753424
H        0.80149873       1.85207457      -0.46861236
H       -0.19081263      -0.29607922      -1.68734014
H       -2.18056642      -1.13326728      -0.59084616
H       -1.94818539      -0.25120467       0.98207158
14
Frame=6 idx=007289 GeodesicLength=0.5355347060942379 rxn_smarts="[O:1]([C@@:2]1([H:9])[C:3]([H:10])([H:11])[N:4]([H:12])[C:5]([H:13])([H:14])[C:6]1=[O:7])[H:8]>>[O:1]([C@@:2]1([H:9])[C:3]([H:10])([H:11])[N:4]2[C:5]([H:13])([H:14])[C@:6]12[O:7][H:12])[H:8]"
O        2.15576630      -0.07030207       0.38940124
C        0.81088541       0.04003910       0.73850937
C        0.11341829       1.26718628       0.13907505
N       -0.82950166       0.52234699      -0.74698484
C       -1.51748451      -0.53605145       0.02868264
C       -0.09827732      -0.86230848      -0.10271691
O        0.35187967      -1.49396737      -1.16683944
H        2.25307715      -0.86892908      -0.14508838
H        0.69065286      -0.09203553       1.81700513
H       -0.39886481       1.92747607       0.83948504
H        0.79930457       1.84816029      -0.47796397
H       -0.20324050      -0.27666506      -1.70934620
H       -2.17798530      -1.13442065      -0.59131873
H       -1.94963014      -0.27052903       0.98810002
14
Frame=7 idx=007289 GeodesicLength=0.6245914931284934 rxn_smarts="[O:1]([C@@:2]1([H:9])[C:3]([H:10])([H:11])[N:4]([H:12])[C:5]([H:13])([H:14])[C:6]1=[O:7])[H:8]>>[O:1]([C@@:2]1([H:9])[C:3]([H:10])([H:11])[N:4]2[C:5]([H:13])([H:14])[C@:6]12[O:7][H:12])[H:8]"
O        2.15651852      -0.06190459       0.38251636
C        0.81046379       0.04127859       0.73192498
C        0.11218212       1.26882385       0.13684460
N       -0.84192524       0.53139220      -0.73990803
C       -1.51662389      -0.53634713       0.03036877
C       -0.09691211      -0.86740341      -0.10232382
O        0.34793773      -1.49467398      -1.16863521
H        2.27012088      -0.88712714      -0.10537194
H        0.69047132      -0.09072775       1.81076207
H       -0.38653702       1.93503081       0.84116731
H        0.79720484       1.84383057      -0.48757881
H       -0.21650118      -0.25658753      -1.73171569
H       -2.17538423      -1.13545789      -0.59189243
H       -1.95101552      -0.29012659       0.99384183
14
Frame=8 idx=007289 GeodesicLength=0.7136104492926789 rxn_smarts="[O:1]([C@@:2]1([H:9])[C:3]([H:10])([H:11])[N:4]([H:12])[C:5]([H:13])([H:14])[C:6]1=[O:7])[H:8]>>[O:1]([C@@:2]1([H:9])[C:3]([H:10])([H:11])[N:4]2[C:5]([H:13])([H:14])[C@:6]12[O:7][H:12])[H:8]"
O        2.15719322      -0.05447668       0.37535565
C        0.81008049       0.04228456       0.72530572
C        0.11114069       1.27027333       0.13452782
N       -0.85437451       0.54037918      -0.73248082
C       -1.51573243      -0.53670912       0.03209888
C       -0.09555115      -0.87281675      -0.10175744
O        0.34390714      -1.49559484      -1.17034914
H        2.28710596      -0.90333066      -0.06457240
H        0.69038992      -0.08947093       1.80451845
H       -0.37360780       1.94256491       0.84256445
H        0.79523460       1.83904747      -0.49746189
H       -0.23062191      -0.23579899      -1.75445031
H       -2.17278328      -1.13637063      -0.59257762
H       -1.95238092      -0.30998085       0.99927865
14
Frame=9 idx=007289 GeodesicLength=0.802549466246211 rxn_smarts="[O:1]([C@@:2]1([H:9])[C:3]([H:10])([H:11])[N:4]([H:12])[C:5]([H:13])([H:14])[C:6]1=[O:7])[H:8]>>[O:1]([C@@:2]1([H:9])[C:3]([H:10])([H:11])[N:4]2[C:5]([H:13])([H:14])[C@:6]12[O:7][H:12])[H:8]"
O        2.15779067      -0.04799822       0.36795807
C        0.80973821       0.04303335       0.71864923
C        0.11029580       1.27150151       0.13211319
N       -0.86684565       0.54930749      -0.72468839
C       -1.51477947      -0.53712763       0.03386333
C       -0.09418321      -0.87854705      -0.10100886
O        0.33974824      -1.49673374      -1.17195643
H        2.30403464      -0.91751507      -0.02265574
H        0.69041710      -0.08828235       1.79826398
H       -0.36006003       1.95002999       0.84363336
H        0.79336164       1.83375999      -0.50762358
H       -0.24568158      -0.21420638      -1.77754197
H       -2.17015154      -1.13711892      -0.59338811
H       -1.95368482      -0.33010296       1.00438192
14
Frame=10 idx=007289 GeodesicLength=0.8914656858850599 rxn_smarts="[O:1]([C@@:2]1([H:9])[C:3]([H:10])([H:11])[N:4]([H:12])[C:5]([H:13])([H:14])[C:6]1=[O:7])[H:8]>>[O:1]([C@@:2]1([H:9])[C:3]([H:10])([H:11])[N:4]2[C:5]([H:13])([H:14])[C@:6]12[O:7][H:12])[H:8]"
O        2.15834570      -0.04244900       0.36042265
C        0.80942532       0.04348788       0.71198399
C        0.10968030       1.27250136       0.12960902
N       -0.87931420       0.55816952      -0.71651365
C       -1.51379388      -0.53761949       0.03566545
C       -0.09282299      -0.88464356      -0.10006037
O        0.33543748      -1.49818736      -1.17344393
H        2.32099743      -0.92953458       0.02020178
H        0.69048935      -0.08717926       1.79203684
H       -0.34584888       1.95744810       0.84437104
H        0.79164251       1.82794375      -0.51806905
H       -0.26170126      -0.19176018      -1.80100411
H       -2.16753055      -1.13771440      -0.59433736
H       -1.95500634      -0.35046278       1.00913770
14
Frame=11 idx=007289 GeodesicLength=0.9803393030997576 rxn_smarts="[O:1]([C@@:2]1([H:9])[C:3]([H:10])([H:11])[N:4]([H:12])[C:5]([H:13])([H:14])[C:6]1=[O:7])[H:8]>>[O:1]([C@@:2]1([H:9])[C:3]([H:10])([H:11])[N:4]2[C:5]([H:13])([H:14])[C@:6]12[O:7][H:12])[H:8]"
O        2.15886652      -0.03781021       0.35277410
C        0.80914389       0.04362563       0.70530659
C        0.10930392       1.27324840       0.12700590
N       -0.89177544       0.56696446      -0.70793488
C       -1.51276235      -0.53818738       0.03749965
C       -0.09146565      -0.89111621      -0.09890738
O        0.33095105      -1.49997362      -1.17479729
H        2.33802290      -0.93935914       0.06404294
H        0.69060399      -0.08617548       1.78582914
H       -0.33094568       1.96478953       0.84474351
H        0.79006627       1.82155485      -0.52881468
H       -0.27876100      -0.16835174      -1.82483197
H       -2.16490866      -1.13813737      -0.59543885
H       -1.95633976      -0.37107173       1.01352321
14
Frame=12 idx=007289 GeodesicLength=1.069173248216524 rxn_smarts="[O:1]([C@@:2]1([H:9])[C:3]([H:10])([H:11])[N:4]([H:12])[C:5]([H:13])([H:14])[C:6]1=[O:7])[H:8]>>[O:1]([C@@:2]1([H:9])[C:3]([H:10])([H:11])[N:4]2[C:5]([H:13])([H:14])[C@:6]12[O:7][H:12])[H:8]"
O        2.15936658      -0.03407325       0.34504321
C        0.80889506       0.04342037       0.69862004
C        0.10918229       1.27372273       0.12429732
N       -0.90421907       0.57569011      -0.69893082
C       -1.51168105      -0.53883954       0.03936124
C       -0.09011063      -0.89798667      -0.09754242
O        0.32627151      -1.50213279      -1.17600169
H        2.35514929      -0.94692492       0.10887984
H        0.69074907      -0.08528606       1.77964410
H       -0.31531588       1.97203697       0.84472318
H        0.78863664       1.81455405      -0.53987681
H       -0.29693821      -0.14387171      -1.84902430
H       -2.16228442      -1.13837858      -0.59670926
H       -1.95770118      -0.39193070       1.01751637
14
Frame=13 idx=007289 GeodesicLength=1.1579712733881127 rxn_smarts="[O:1]([C@@:2]1([H:9])[C:3]([H:10])([H:11])[N:4]([H:12])[C:5]([H:13])([H:14])[C:6]1=[O:7])[H:8]>>[O:1]([C@@:2]1([H:9])[C:3]([H:10])([H:11])[N:4]2[C:5]([H:13])([H:14])[C@:6]12[O:7][H:12])[H:8]"
O        2.15985792      -0.03124000       0.33725655
C        0.80868096       0.04284382       0.69192766
C        0.10933249       1.27390236       0.12147538
N       -0.91663281       0.58434325      -0.68947966
C       -1.51054591      -0.53958481       0.04124391
C       -0.08875788      -0.90527891      -0.09595662
O        0.32138533      -1.50470989      -1.17703800
H        2.37241173      -0.95215103       0.15473201
H        0.69091472      -0.08452715       1.77348546
H       -0.29892154       1.97917103       0.84427963
H        0.78735789       1.80689775      -0.55127369
H       -0.31631966      -0.11819812      -1.87357648
H       -2.15965474      -1.13842864      -0.59816853
H       -1.95910851      -0.41303966       1.02109238
14
Frame=14 idx=007289 GeodesicLength=1.2467365883618777 rxn_smarts="[O:1]([C@@:2]1([H:9])[C:3]([H:10])([H:11])[N:4]([H:12])[C:5]([H:13])([H:14])[C:6]1=[O:7])[H:8]>>[O:1]([C@@:2]1([H:9])[C:3]([H:10])([H:11])[N:4]2[C:5]([H:13])([H:14])[C@:6]12[O:7][H:12])[H:8]"
O        2.16035214      -0.02932444       0.32943301
C        0.80850528       0.04186625       0.68523162
C        0.10977358       1.27376319       0.11853040
N       -0.92900183       0.59291980      -0.67955839
C       -1.50935243      -0.54043290       0.04313966
C       -0.08740754      -0.91301875      -0.09414016
O        0.31628308      -1.50775460      -1.17788302
H        2.38983960      -0.95493934       0.20163246
H        0.69109375      -0.08391534       1.76735568
H       -0.28172217       1.98616918       0.84337875
H        0.78623566       1.79853824      -0.56302521
H       -0.33700329      -0.09119337      -1.89847889
H       -2.15701430      -1.13827817      -0.59983968
H       -1.96058153      -0.43439976       1.02422379
14
Frame=15 idx=007289 GeodesicLength=1.3354700644319604 rxn_smarts="[O:1]([C@@:2]1([H:9])[C:3]([H:10])([H:11])[N:4]([H:12])[C:5]([H:13])([H:14])[C:6]1=[O:7])[H:8]>>[O:1]([C@@:2]1([H:9])[C:3]([H:10])([H:11])[N:4]2[C:5]([H:13])([H:14])[C@:6]12[O:7][H:12])[H:8]"
O        2.16086085      -0.02835340       0.32158934
C        0.80837299       0.04045459       0.67853429
C        0.11052802       1.27327675       0.11545075
N       -0.94130821       0.60141349      -0.66914268
C       -1.50809673      -0.54139412       0.04503787
C       -0.08606107      -0.92123458      -0.09208091
O        0.31095791      -1.51132332      -1.17850595
H        2.40745885      -0.95516305       0.24961876
H        0.69128038      -0.08346895       1.76125600
H       -0.26367201       1.99300398       0.84198096
H        0.78527879       1.78941974      -0.57515259
H       -0.35909910      -0.06270264      -1.92371344
H       -2.15435725      -1.13791645      -0.60175003
H       -1.96214341      -0.45601204       1.02687763
14
Frame=16 idx=007289 GeodesicLength=1.4241714994076895 rxn_smarts="[O:1]([C@@:2]1([H:9])[C:3]([H:10])([H:11])[N:4]([H:12])[C:5]([H:13])([H:14])[C:6]1=[O:7])[H:8]>>[O:1]([C@@:2]1([H:9])[C:3]([H:10])([H:11])[N:4]2[C:5]([H:13])([H:14])[C@:6]12[O:7][H:12])[H:8]"
O        2.16138889      -0.02836462       0.31374909
C        0.80828500       0.03856808       0.67184330
C        0.11162072       1.27240667       0.11222408
N       -0.95352551       0.60981406      -0.65820934
C       -1.50677414      -0.54247755       0.04692628
C       -0.08472277      -0.92996015      -0.08975964
O        0.30540674      -1.51548657      -1.17886378
H        2.42529644      -0.95265412       0.29870082
H        0.69146134      -0.08321144       1.75519390
H       -0.24471968       1.99964156       0.84004305
H        0.78449861       1.77947324      -0.58767888
H       -0.38271884      -0.03255520      -1.94925389
H       -2.15167259      -1.13732803      -0.60393157
H       -1.96382420      -0.47786593       1.02901659
