10
Frame=0 idx=000409 GeodesicLength=0.0 rxn_smarts="[C:1]([n:2]1[c:3]([H:10])[n:4][n:5][n:6]1)([H:7])([H:8])[H:9]>>[C:1]([N:2]=[C:3]([N:4]=[N+:5]=[N-:6])[H:10])([H:7])([H:8])[H:9]"
C       -1.46703340      -0.04180013       0.22721422
N       -0.05593138      -0.21942155       0.00842039
C        0.78940641       0.70803982      -0.11127788
N        2.13567862       0.41738175      -0.32621366
N        2.15665849      -0.87537900      -0.34814556
N        1.39737971      -1.72652558      -0.24194239
H       -1.75483870      -0.52066343       1.16406410
H       -2.02251685      -0.52663038      -0.57655856
H       -1.75498033       1.01329106       0.26802869
H        0.57617743       1.77170742      -0.06358935
10
Frame=1 idx=000409 GeodesicLength=0.023240936253160677 rxn_smarts="[C:1]([n:2]1[c:3]([H:10])[n:4][n:5][n:6]1)([H:7])([H:8])[H:9]>>[C:1]([N:2]=[C:3]([N:4]=[N+:5]=[N-:6])[H:10])([H:7])([H:8])[H:9]"
C       -1.46409586      -0.04346531       0.22725906
N       -0.05233832      -0.22425552       0.01103378
C        0.78890901       0.70967448      -0.11362670
N        2.13293890       0.41722307      -0.32453113
N        2.15843941      -0.87536801      -0.34906098
N        1.39268812      -1.72455351      -0.24191214
H       -1.75646453      -0.51925329       1.16412257
H       -2.02170571      -0.52439659      -0.57728100
H       -1.75075671       1.01199913       0.26782444
H        0.57238569       1.77239555      -0.06382791
10
Frame=2 idx=000409 GeodesicLength=0.04661621236239385 rxn_smarts="[C:1]([n:2]1[c:3]([H:10])[n:4][n:5][n:6]1)([H:7])([H:8])[H:9]>>[C:1]([N:2]=[C:3]([N:4]=[N+:5]=[N-:6])[H:10])([H:7])([H:8])[H:9]"
C       -1.46128255      -0.04511209       0.22666766
N       -0.04933296      -0.22901464       0.00995539
C        0.78813797       0.71131245      -0.11765408
N        2.12973295       0.41711410      -0.32576847
N        2.16001105      -0.87534372      -0.35156643
N        1.38935850      -1.72272594      -0.23361268
H       -1.75686995      -0.52108508       1.16229224
H       -2.02261321      -0.51887429      -0.57943849
H       -1.74602460       1.01072396       0.27134053
H        0.56888279       1.77300526      -0.06221565
10
Frame=3 idx=000409 GeodesicLength=0.0698751210777284 rxn_smarts="[C:1]([n:2]1[c:3]([H:10])[n:4][n:5][n:6]1)([H:7])([H:8])[H:9]>>[C:1]([N:2]=[C:3]([N:4]=[N+:5]=[N-:6])[H:10])([H:7])([H:8])[H:9]"
C       -1.45847862      -0.04675133       0.22609672
N       -0.04713828      -0.23372399       0.00382031
C        0.78677432       0.71294835      -0.12544928
N        2.12734686       0.41685270      -0.32132218
N        2.16151188      -0.87528998      -0.35386773
N        1.38669064      -1.72084444      -0.22232400
H       -1.75469841      -0.52642930       1.15948267
H       -2.02625474      -0.50975835      -0.58164029
H       -1.74048825       1.00940119       0.27995359
H        0.56473459       1.77359515      -0.06474982
10
Frame=4 idx=000409 GeodesicLength=0.09323621979818558 rxn_smarts="[C:1]([n:2]1[c:3]([H:10])[n:4][n:5][n:6]1)([H:7])([H:8])[H:9]>>[C:1]([N:2]=[C:3]([N:4]=[N+:5]=[N-:6])[H:10])([H:7])([H:8])[H:9]"
C       -1.45566971      -0.04839800       0.22553524
N       -0.04484311      -0.23841525      -0.00160907
C        0.78559127       0.71455340      -0.13211889
N        2.12466195       0.41662064      -0.31853319
N        2.16318747      -0.87527215      -0.35504429
N        1.38387627      -1.71890387      -0.21193402
H       -1.75297784      -0.53158731       1.15662414
H       -2.02944858      -0.50075874      -0.58389171
H       -1.73495481       1.00800651       0.28823979
H        0.56057708       1.77415477      -0.06726799
10
Frame=5 idx=000409 GeodesicLength=0.11648364534576733 rxn_smarts="[C:1]([n:2]1[c:3]([H:10])[n:4][n:5][n:6]1)([H:7])([H:8])[H:9]>>[C:1]([N:2]=[C:3]([N:4]=[N+:5]=[N-:6])[H:10])([H:7])([H:8])[H:9]"
C       -1.45284918      -0.05003891       0.22521193
N       -0.04186531      -0.24311413      -0.00253173
C        0.78484618       0.71611347      -0.13582152
N        2.12197796       0.41635886      -0.31575181
N        2.16451211      -0.87521506      -0.35834949
N        1.38051608      -1.71696257      -0.20571656
H       -1.75326951      -0.53315925       1.15520069
H       -2.03029438      -0.49533645      -0.58542838
H       -1.73020337       1.00665339       0.29181396
H        0.55662943       1.77470066      -0.06862709
10
Frame=6 idx=000409 GeodesicLength=0.13974967799287968 rxn_smarts="[C:1]([n:2]1[c:3]([H:10])[n:4][n:5][n:6]1)([H:7])([H:8])[H:9]>>[C:1]([N:2]=[C:3]([N:4]=[N+:5]=[N-:6])[H:10])([H:7])([H:8])[H:9]"
C       -1.45006210      -0.05167151       0.22483590
N       -0.03867543      -0.24778326      -0.00198191
C        0.78423173       0.71765751      -0.13857250
N        2.11905465       0.41609066      -0.31459738
N        2.16576161      -0.87515021      -0.36205413
N        1.37712030      -1.71504326      -0.20027927
H       -1.75429166      -0.53339779       1.15417278
H       -2.03031465      -0.49123562      -0.58683110
H       -1.72580533       1.00532568       0.29351509
H        0.55298088       1.77520780      -0.06820749
10
Frame=7 idx=000409 GeodesicLength=0.16297229240633207 rxn_smarts="[C:1]([n:2]1[c:3]([H:10])[n:4][n:5][n:6]1)([H:7])([H:8])[H:9]>>[C:1]([N:2]=[C:3]([N:4]=[N+:5]=[N-:6])[H:10])([H:7])([H:8])[H:9]"
C       -1.44729267      -0.05330051       0.22444921
N       -0.03551573      -0.25241604      -0.00151855
C        0.78358818       0.71919079      -0.14144853
N        2.11610520       0.41581206      -0.31358784
N        2.16705577      -0.87509579      -0.36535075
N        1.37373433      -1.71312701      -0.19516763
H       -1.75523416      -0.53349224       1.15322425
H       -2.03036502      -0.48726469      -0.58811860
H       -1.72146209       1.00399918       0.29506066
H        0.54938619       1.77569425      -0.06754221
10
Frame=8 idx=000409 GeodesicLength=0.18618129441919665 rxn_smarts="[C:1]([n:2]1[c:3]([H:10])[n:4][n:5][n:6]1)([H:7])([H:8])[H:9]>>[C:1]([N:2]=[C:3]([N:4]=[N+:5]=[N-:6])[H:10])([H:7])([H:8])[H:9]"
C       -1.44455175      -0.05493146       0.22387611
N       -0.03283126      -0.25701246      -0.00402469
C        0.78271256       0.72072413      -0.14583375
N        2.11303204       0.41554998      -0.31324210
N        2.16865797      -0.87508515      -0.36653228
N        1.37072371      -1.71113977      -0.18770257
H       -1.75492586      -0.53593891       1.15128580
H       -2.03188067      -0.48084748      -0.58979208
H       -1.71658425       1.00257938       0.29968988
H        0.54564750       1.77610176      -0.06772432
10
Frame=9 idx=000409 GeodesicLength=0.2093849739976957 rxn_smarts="[C:1]([n:2]1[c:3]([H:10])[n:4][n:5][n:6]1)([H:7])([H:8])[H:9]>>[C:1]([N:2]=[C:3]([N:4]=[N+:5]=[N-:6])[H:10])([H:7])([H:8])[H:9]"
C       -1.44180838      -0.05655301       0.22348155
N       -0.02983740      -0.26158802      -0.00442904
C        0.78202402       0.72222577      -0.14890601
N        2.11006384       0.41525927      -0.31220205
N        2.17011507      -0.87503322      -0.36872784
N        1.36742676      -1.70922548      -0.18262186
H       -1.75547293      -0.53665631       1.15011956
H       -2.03233417      -0.47616781      -0.59105338
H       -1.71212125       1.00120958       0.30213905
H        0.54194443       1.77652922      -0.06779997
10
Frame=10 idx=000409 GeodesicLength=0.23259448311756062 rxn_smarts="[C:1]([n:2]1[c:3]([H:10])[n:4][n:5][n:6]1)([H:7])([H:8])[H:9]>>[C:1]([N:2]=[C:3]([N:4]=[N+:5]=[N-:6])[H:10])([H:7])([H:8])[H:9]"
C       -1.43906462      -0.05816660       0.22320572
N       -0.02674076      -0.26613330      -0.00407256
C        0.78141327       0.72370996      -0.15143614
N        2.10715926       0.41495040      -0.31064019
N        2.17159533      -0.87495360      -0.37089782
N        1.36396601      -1.70737657      -0.17894808
H       -1.75628777      -0.53676349       1.14928024
H       -2.03241611      -0.47209401      -0.59209506
H       -1.70781055       0.99986279       0.30388813
H        0.53818593       1.77696441      -0.06828424
10
Frame=11 idx=000409 GeodesicLength=0.2557895160738996 rxn_smarts="[C:1]([n:2]1[c:3]([H:10])[n:4][n:5][n:6]1)([H:7])([H:8])[H:9]>>[C:1]([N:2]=[C:3]([N:4]=[N+:5]=[N-:6])[H:10])([H:7])([H:8])[H:9]"
C       -1.43632627      -0.05977350       0.22301061
N       -0.02356429      -0.27065042      -0.00310876
C        0.78085931       0.72517520      -0.15353777
N        2.10430114       0.41462357      -0.30872481
N        2.17306960      -0.87484903      -0.37316952
N        1.36041187      -1.70558294      -0.17626699
H       -1.75732026      -0.53635062       1.14869817
H       -2.03219775      -0.46852993      -0.59297327
H       -1.70363984       0.99853748       0.30502925
H        0.53440649       1.77740018      -0.06895691
10
Frame=12 idx=000409 GeodesicLength=0.278974959264527 rxn_smarts="[C:1]([n:2]1[c:3]([H:10])[n:4][n:5][n:6]1)([H:7])([H:8])[H:9]>>[C:1]([N:2]=[C:3]([N:4]=[N+:5]=[N-:6])[H:10])([H:7])([H:8])[H:9]"
C       -1.43361835      -0.06137750       0.22274533
N       -0.02025369      -0.27512025      -0.00118913
C        0.78038389       0.72664718      -0.15499114
N        2.10129732       0.41427744      -0.30799215
N        2.17436026      -0.87474997      -0.37627123
N        1.35695928      -1.70379851      -0.17341257
H       -1.75884450      -0.53516190       1.14826180
H       -2.03143279      -0.46576898      -0.59390605
H       -1.69972660       0.99724113       0.30501110
H        0.53087519       1.77781136      -0.06825595
10
Frame=13 idx=000409 GeodesicLength=0.3021630516735111 rxn_smarts="[C:1]([n:2]1[c:3]([H:10])[n:4][n:5][n:6]1)([H:7])([H:8])[H:9]>>[C:1]([N:2]=[C:3]([N:4]=[N+:5]=[N-:6])[H:10])([H:7])([H:8])[H:9]"
C       -1.43092593      -0.06298353       0.22243521
N       -0.01721478      -0.27959125      -0.00089431
C        0.77982913       0.72809401      -0.15695865
N        2.09831050       0.41393412      -0.30706610
N        2.17581909      -0.87466808      -0.37835545
N        1.35372504      -1.70199575      -0.16935020
H       -1.75972647      -0.53553989       1.14718901
H       -2.03147239      -0.46133789      -0.59509302
H       -1.69543975       0.99586837       0.30709488
H        0.52709556       1.77821991      -0.06900138
10
Frame=14 idx=000409 GeodesicLength=0.32537859134874586 rxn_smarts="[C:1]([n:2]1[c:3]([H:10])[n:4][n:5][n:6]1)([H:7])([H:8])[H:9]>>[C:1]([N:2]=[C:3]([N:4]=[N+:5]=[N-:6])[H:10])([H:7])([H:8])[H:9]"
C       -1.42826531      -0.06459424       0.22195190
N       -0.01462128      -0.28409308      -0.00332879
C        0.77911956       0.72950951      -0.15995125
N        2.09523906       0.41360543      -0.30646253
N        2.17751714      -0.87463281      -0.37893164
N        1.35091920      -1.70010103      -0.16277140
H       -1.75958378      -0.53836346       1.14505907
H       -2.03282782      -0.45428727      -0.59670608
H       -1.69054908       0.99436030       0.31236891
H        0.52305230       1.77859664      -0.07122820
10
Frame=15 idx=000409 GeodesicLength=0.3486112507551408 rxn_smarts="[C:1]([n:2]1[c:3]([H:10])[n:4][n:5][n:6]1)([H:7])([H:8])[H:9]>>[C:1]([N:2]=[C:3]([N:4]=[N+:5]=[N-:6])[H:10])([H:7])([H:8])[H:9]"
C       -1.42562122      -0.06620636       0.22143953
N       -0.01203063      -0.28857769      -0.00568714
C        0.77843239       0.73091688      -0.16273102
N        2.09213179       0.41327104      -0.30618406
N        2.17919801      -0.87460087      -0.37953796
N        1.34816246      -1.69820088      -0.15609245
H       -1.75952744      -0.54116036       1.14287925
H       -2.03409747      -0.44722224      -0.59832041
H       -1.68567434       0.99281884       0.31758122
H        0.51902646       1.77896164      -0.07334694
10
Frame=16 idx=000409 GeodesicLength=0.3717922878452217 rxn_smarts="[C:1]([n:2]1[c:3]([H:10])[n:4][n:5][n:6]1)([H:7])([H:8])[H:9]>>[C:1]([N:2]=[C:3]([N:4]=[N+:5]=[N-:6])[H:10])([H:7])([H:8])[H:9]"
C       -1.42300539      -0.06781098       0.22095335
N       -0.00899726      -0.29298815      -0.00512679
C        0.77794895       0.73234812      -0.16396092
N        2.08890365       0.41289238      -0.30717249
N        2.18047536      -0.87456942      -0.38220740
N        1.34534066      -1.69634906      -0.15064332
H       -1.76076446      -0.54158108       1.14147434
H       -2.03384960      -0.44266413      -0.59980563
H       -1.68149848       0.99140018       0.31950528
H        0.51544657       1.77932213      -0.07301641
