14
Frame=0 idx=001716 GeodesicLength=0.0 rxn_smarts="[O:1]([C@@:2]1([H:8])[C:3]([H:9])([H:10])[C:4]([H:11])([H:12])[O:5][C:6]1([H:13])[H:14])[H:7]>>[C:2]1([H:8])=[C:6]([H:13])[O:5][C:4]([H:11])([H:12])[C:3]1([H:9])[H:10].[O:1]([H:7])[H:14]"
O        1.25388367      -1.17618072      -1.08625101
C        0.43917281       0.55998791      -0.68055708
C       -1.01833159       0.32424800      -0.44561442
C       -1.01200191      -0.16499813       1.00682118
O        0.10811615       0.46020507       1.60433169
C        1.07265044       0.58892966       0.57763669
H        0.76788486      -2.00264453      -1.20009950
H        0.83346505       0.98183265      -1.59156327
H       -1.49054294      -0.35720565      -1.14968229
H       -1.51174897       1.29985533      -0.52588851
H       -0.89753486      -1.25708179       1.03793610
H       -1.90401607       0.11146314       1.56730594
H        1.89072574       1.25067728       0.82724379
H        1.46827765      -0.61908825       0.05838075
14
Frame=1 idx=001716 GeodesicLength=0.07689975840091372 rxn_smarts="[O:1]([C@@:2]1([H:8])[C:3]([H:9])([H:10])[C:4]([H:11])([H:12])[O:5][C:6]1([H:13])[H:14])[H:7]>>[C:2]1([H:8])=[C:6]([H:13])[O:5][C:4]([H:11])([H:12])[C:3]1([H:9])[H:10].[O:1]([H:7])[H:14]"
O        1.25305197      -1.18247171      -1.09706812
C        0.43885502       0.56178716      -0.68697118
C       -1.01936140       0.32970321      -0.44836142
C       -1.01264789      -0.17365643       0.99894371
O        0.12947087       0.40503208       1.60155436
C        1.07566226       0.58904617       0.56989756
H        0.75334230      -2.00806839      -1.12832968
H        0.82679589       1.00556734      -1.59078914
H       -1.48869184      -0.34832472      -1.15827948
H       -1.51608771       1.30381455      -0.52148326
H       -0.93124677      -1.26847568       1.02255769
H       -1.89151087       0.12689574       1.56859474
H        1.87011355       1.27729033       0.82619616
H        1.51225461      -0.61813966       0.04353805
14
Frame=2 idx=001716 GeodesicLength=0.15392528975356107 rxn_smarts="[O:1]([C@@:2]1([H:8])[C:3]([H:9])([H:10])[C:4]([H:11])([H:12])[O:5][C:6]1([H:13])[H:14])[H:7]>>[C:2]1([H:8])=[C:6]([H:13])[O:5][C:4]([H:11])([H:12])[C:3]1([H:9])[H:10].[O:1]([H:7])[H:14]"
O        1.25148642      -1.19020426      -1.10654801
C        0.43827083       0.56320109      -0.69353157
C       -1.02067067       0.33461868      -0.45108443
C       -1.01350748      -0.18145198       0.99155966
O        0.15101289       0.34866617       1.59622323
C        1.07835734       0.58803530       0.56217232
H        0.74253314      -2.00972793      -1.05912332
H        0.81992735       1.02859189      -1.58965753
H       -1.48700419      -0.34065838      -1.16625139
H       -1.52080244       1.30709801      -0.51793122
H       -0.96709783      -1.27810434       1.00864837
H       -1.87712713       0.14465594       1.57127705
H        1.84762474       1.30194983       0.82695795
H        1.55699701      -0.61667003       0.02728888
14
Frame=3 idx=001716 GeodesicLength=0.2310475776674601 rxn_smarts="[O:1]([C@@:2]1([H:8])[C:3]([H:9])([H:10])[C:4]([H:11])([H:12])[O:5][C:6]1([H:13])[H:14])[H:7]>>[C:2]1([H:8])=[C:6]([H:13])[O:5][C:4]([H:11])([H:12])[C:3]1([H:9])[H:10].[O:1]([H:7])[H:14]"
O        1.24946519      -1.19912581      -1.11475085
C        0.43742613       0.56433361      -0.70020032
C       -1.02224703       0.33894599      -0.45381744
C       -1.01455713      -0.18837213       0.98468056
O        0.17245625       0.29145610       1.58822149
C        1.08073952       0.58584840       0.55451741
H        0.73515378      -2.00799425      -0.99254683
H        0.81287390       1.05118791      -1.58803962
H       -1.48537671      -0.33432445      -1.17361405
H       -1.52598535       1.30958569      -0.51531620
H       -1.00482714      -1.28573616       0.99640073
H       -1.86071260       0.16459006       1.57519403
H        1.82338754       1.32431841       0.82965394
H        1.60220366      -0.61471338       0.00961715
14
Frame=4 idx=001716 GeodesicLength=0.3082000668503957 rxn_smarts="[O:1]([C@@:2]1([H:8])[C:3]([H:9])([H:10])[C:4]([H:11])([H:12])[O:5][C:6]1([H:13])[H:14])[H:7]>>[C:2]1([H:8])=[C:6]([H:13])[O:5][C:4]([H:11])([H:12])[C:3]1([H:9])[H:10].[O:1]([H:7])[H:14]"
O        1.24723312      -1.20902695      -1.12169331
C        0.43633095       0.56528323      -0.70694429
C       -1.02407940       0.34264851      -0.45660289
C       -1.01576995      -0.19440293       0.97833025
O        0.19346738       0.23393720       1.57751682
C        1.08282061       0.58247370       0.54697741
H        0.73096524      -2.00311790      -0.92879756
H        0.80564743       1.07360207      -1.58581632
H       -1.48372362      -0.32943901      -1.18039937
H       -1.53171440       1.31119404      -0.51374231
H       -1.04405422      -1.29118760       0.98604588
H       -1.84220442       0.18642508       1.58018323
H        1.79765603       1.34404509       0.83432027
H        1.64742526      -0.61243453      -0.00937780
14
Frame=5 idx=001716 GeodesicLength=0.3858330975547345 rxn_smarts="[O:1]([C@@:2]1([H:8])[C:3]([H:9])([H:10])[C:4]([H:11])([H:12])[O:5][C:6]1([H:13])[H:14])[H:7]>>[C:2]1([H:8])=[C:6]([H:13])[O:5][C:4]([H:11])([H:12])[C:3]1([H:9])[H:10].[O:1]([H:7])[H:14]"
O        1.24499979      -1.21964322      -1.12779475
C        0.43500675       0.56610457      -0.71370399
C       -1.02613113       0.34568408      -0.45944190
C       -1.01710119      -0.19948916       0.97249940
O        0.21370006       0.17657523       1.56425278
C        1.08459814       0.57804040       0.53960114
H        0.72949154      -1.99550537      -0.86779987
H        0.79820427       1.09612299      -1.58280482
H       -1.48191218      -0.32608214      -1.18656638
H       -1.53807483       1.31179078      -0.51321883
H       -1.08431005      -1.29430273       0.97763162
H       -1.82165840       0.20984068       1.58586310
H        1.77079371       1.36094614       0.84084039
H        1.69239353      -0.61008226      -0.02935787
14
Frame=6 idx=001716 GeodesicLength=0.4635600357184808 rxn_smarts="[O:1]([C@@:2]1([H:8])[C:3]([H:9])([H:10])[C:4]([H:11])([H:12])[O:5][C:6]1([H:13])[H:14])[H:7]>>[C:2]1([H:8])=[C:6]([H:13])[O:5][C:4]([H:11])([H:12])[C:3]1([H:9])[H:10].[O:1]([H:7])[H:14]"
O        1.24291010      -1.23088664      -1.13280682
C        0.43348656       0.56689011      -0.72044985
C       -1.02839192       0.34808963      -0.46238142
C       -1.01849497      -0.20371408       0.96718900
O        0.23282022       0.12024169       1.54857098
C        1.08610620       0.57259407       0.53242170
H        0.73043294      -1.98533732      -0.81008088
H        0.79059080       1.11883239      -1.57892267
H       -1.47991699      -0.32423980      -1.19220499
H       -1.54509034       1.31140762      -0.51378860
H       -1.12489959      -1.29509708       0.97134335
H       -1.79919379       0.23433921       1.59204978
H        1.74313955       1.37484409       0.84905222
H        1.73650123      -0.60796390      -0.04999177
14
Frame=7 idx=001716 GeodesicLength=0.5413424000965522 rxn_smarts="[O:1]([C@@:2]1([H:8])[C:3]([H:9])([H:10])[C:4]([H:11])([H:12])[O:5][C:6]1([H:13])[H:14])[H:7]>>[C:2]1([H:8])=[C:6]([H:13])[O:5][C:4]([H:11])([H:12])[C:3]1([H:9])[H:10].[O:1]([H:7])[H:14]"
O        1.24108482      -1.24260474      -1.13677784
C        0.43180914       0.56770456      -0.72714083
C       -1.03082713       0.34989855      -0.46543263
C       -1.01989622      -0.20712692       0.96237594
O        0.25055356       0.06566974       1.53078291
C        1.08737030       0.56630078       0.52546637
H        0.73330499      -1.97294702      -0.75590001
H        0.78279996       1.14185906      -1.57405894
H       -1.47767203      -0.32386328      -1.19735236
H       -1.55277638       1.31005167      -0.51541623
H       -1.16513185      -1.29365034       0.96720727
H       -1.77509176       0.25941188       1.59842454
H        1.71512458       1.38573502       0.85866157
H        1.77934803      -0.60643895      -0.07083979
14
Frame=8 idx=001716 GeodesicLength=0.6190537217301927 rxn_smarts="[O:1]([C@@:2]1([H:8])[C:3]([H:9])([H:10])[C:4]([H:11])([H:12])[O:5][C:6]1([H:13])[H:14])[H:7]>>[C:2]1([H:8])=[C:6]([H:13])[O:5][C:4]([H:11])([H:12])[C:3]1([H:9])[H:10].[O:1]([H:7])[H:14]"
O        1.23960945      -1.25467073      -1.13973559
C        0.43000810       0.56861656      -0.73375060
C       -1.03340775       0.35117446      -0.46860583
C       -1.02125560      -0.20981174       0.95802229
O        0.26669820       0.01353807       1.51130084
C        1.08843390       0.55933626       0.51873190
H        0.73764804      -1.95861269      -0.70546448
H        0.77481329       1.16528425      -1.56814046
H       -1.47514236      -0.32484663      -1.20206991
H       -1.56112893       1.30777920      -0.51802863
H       -1.20433297      -1.29016592       0.96518206
H       -1.74969321       0.28455780       1.60468435
H        1.68718807       1.39372461       0.86929628
H        1.82056176      -0.60590351      -0.09142221
14
Frame=9 idx=001716 GeodesicLength=0.6971422923218162 rxn_smarts="[O:1]([C@@:2]1([H:8])[C:3]([H:9])([H:10])[C:4]([H:11])([H:12])[O:5][C:6]1([H:13])[H:14])[H:7]>>[C:2]1([H:8])=[C:6]([H:13])[O:5][C:4]([H:11])([H:12])[C:3]1([H:9])[H:10].[O:1]([H:7])[H:14]"
O        1.23846710      -1.26696079      -1.14221487
C        0.42813953       0.56961864      -0.74027537
C       -1.03609062       0.35197244      -0.47186751
C       -1.02253123      -0.21180696       0.95407355
O        0.28130430      -0.03600041       1.49048120
C        1.08930382       0.55199235       0.51220861
H        0.74309937      -1.94273245      -0.65841603
H        0.76658649       1.18916883      -1.56110908
H       -1.47236959      -0.32701465      -1.20633875
H       -1.57005865       1.30463577      -0.52149385
H       -1.24225027      -1.28481212       0.96498808
H       -1.72339452       0.30938779       1.61060442
H        1.65962255       1.39916912       0.88057385
H        1.86017171      -0.60661756      -0.11121424
14
Frame=10 idx=001716 GeodesicLength=0.7751279353854432 rxn_smarts="[O:1]([C@@:2]1([H:8])[C:3]([H:9])([H:10])[C:4]([H:11])([H:12])[O:5][C:6]1([H:13])[H:14])[H:7]>>[C:2]1([H:8])=[C:6]([H:13])[O:5][C:4]([H:11])([H:12])[C:3]1([H:9])[H:10].[O:1]([H:7])[H:14]"
O        1.23758804      -1.27949282      -1.14382891
C        0.42621932       0.57078721      -0.74670320
C       -1.03885784       0.35243021      -0.47522123
C       -1.02366788      -0.21328360       0.95043576
O        0.29426540      -0.08230890       1.46878028
C        1.09003985       0.54440732       0.50587279
H        0.74913726      -1.92566645      -0.61510230
H        0.75811998       1.21343660      -1.55297310
H       -1.46933431      -0.33012767      -1.21027276
H       -1.57955294       1.30078731      -0.52564320
H       -1.27819167      -1.27795857       0.96648565
H       -1.69651868       0.33344802       1.61593541
H        1.63268464       1.40234485       0.89216889
H        1.89806882      -0.60880350      -0.12993408
14
Frame=11 idx=001716 GeodesicLength=0.8529786720144328 rxn_smarts="[O:1]([C@@:2]1([H:8])[C:3]([H:9])([H:10])[C:4]([H:11])([H:12])[O:5][C:6]1([H:13])[H:14])[H:7]>>[C:2]1([H:8])=[C:6]([H:13])[O:5][C:4]([H:11])([H:12])[C:3]1([H:9])[H:10].[O:1]([H:7])[H:14]"
O        1.23696140      -1.29217713      -1.14466791
C        0.42427235       0.57216179      -0.75304254
C       -1.04168575       0.35262298      -0.47866595
C       -1.02465061      -0.21432570       0.94705735
O        0.30569083      -0.12529937       1.44657755
C        1.09067217       0.53674999       0.49969198
H        0.75541938      -1.90773386      -0.57536473
H        0.74936686       1.23810045      -1.54372224
H       -1.46605191      -0.33402079      -1.21393383
H       -1.58955146       1.29632545      -0.53037423
H       -1.31195434      -1.26992863       0.96947515
H       -1.66936613       0.35656580       1.62054746
H        1.60653267       1.40359118       0.90380176
H        1.93434454      -0.61263216      -0.14737982
14
Frame=12 idx=001716 GeodesicLength=0.9306940032047207 rxn_smarts="[O:1]([C@@:2]1([H:8])[C:3]([H:9])([H:10])[C:4]([H:11])([H:12])[O:5][C:6]1([H:13])[H:14])[H:7]>>[C:2]1([H:8])=[C:6]([H:13])[O:5][C:4]([H:11])([H:12])[C:3]1([H:9])[H:10].[O:1]([H:7])[H:14]"
O        1.23657447      -1.30491922      -1.14486745
C        0.42231186       0.57377682      -0.75930317
C       -1.04455355       0.35261149      -0.48219073
C       -1.02547565      -0.21500005       0.94389078
O        0.31573040      -0.16503909       1.42415510
C        1.09122839       0.52915421       0.49363128
H        0.76168456      -1.88921887      -0.53895112
H        0.74027213       1.26314955      -1.53335540
H       -1.46252875      -0.33854733      -1.21736336
H       -1.60000480       1.29131841      -0.53558151
H       -1.34348601      -1.26096307       0.97373655
H       -1.64220036       0.37864235       1.62437496
H        1.58127417       1.40324702       0.91523965
H        1.96917315      -0.61821221      -0.16341558
14
Frame=13 idx=001716 GeodesicLength=1.0081405506600098 rxn_smarts="[O:1]([C@@:2]1([H:8])[C:3]([H:9])([H:10])[C:4]([H:11])([H:12])[O:5][C:6]1([H:13])[H:14])[H:7]>>[C:2]1([H:8])=[C:6]([H:13])[O:5][C:4]([H:11])([H:12])[C:3]1([H:9])[H:10].[O:1]([H:7])[H:14]"
O        1.23644334      -1.31766073      -1.14450179
C        0.42034295       0.57566221      -0.76549702
C       -1.04745052       0.35244470      -0.48578366
C       -1.02614327      -0.21536173       0.94090690
O        0.32453580      -0.20163317       1.40174934
C        1.09173406       0.52171607       0.48765842
H        0.76779536      -1.87028532      -0.50571297
H        0.73079512       1.28853426      -1.52189696
H       -1.45878694      -0.34358403      -1.22059481
H       -1.61086657       1.28582768      -0.54118326
H       -1.37279326      -1.25128370       0.97910518
H       -1.61522508       0.39964996       1.62738491
H        1.55698718       1.40159800       0.92630800
H        2.00263182      -0.62562421      -0.17794229
14
Frame=14 idx=001716 GeodesicLength=1.0856660648562142 rxn_smarts="[O:1]([C@@:2]1([H:8])[C:3]([H:9])([H:10])[C:4]([H:11])([H:12])[O:5][C:6]1([H:13])[H:14])[H:7]>>[C:2]1([H:8])=[C:6]([H:13])[O:5][C:4]([H:11])([H:12])[C:3]1([H:9])[H:10].[O:1]([H:7])[H:14]"
O        1.23644513      -1.33035854      -1.14376755
C        0.41836163       0.57782987      -0.77164497
C       -1.05037464       0.35218034      -0.48943512
C       -1.02666386      -0.21544578       0.93805935
O        0.33228299      -0.23540607       1.37946765
C        1.09218240       0.51453721       0.48173735
H        0.77364312      -1.85113365      -0.47523718
H        0.72089129       1.31417499      -1.50938571
H       -1.45485974      -0.34899093      -1.22365699
H       -1.62209858       1.27992532      -0.54708876
H       -1.40003700      -1.24105160       0.98536799
H       -1.58852665       0.41962910       1.62959671
H        1.53358241       1.39894884       0.93693557
H        2.03517151      -0.63483911      -0.19094833
14
Frame=15 idx=001716 GeodesicLength=1.1633813388290115 rxn_smarts="[O:1]([C@@:2]1([H:8])[C:3]([H:9])([H:10])[C:4]([H:11])([H:12])[O:5][C:6]1([H:13])[H:14])[H:7]>>[C:2]1([H:8])=[C:6]([H:13])[O:5][C:4]([H:11])([H:12])[C:3]1([H:9])[H:10].[O:1]([H:7])[H:14]"
O        1.23652245      -1.34297644      -1.14278168
C        0.41635728       0.58030096      -0.77776268
C       -1.05332846       0.35186340      -0.49313479
C       -1.02704566      -0.21527573       0.93532158
O        0.33911997      -0.26660107       1.35738711
C        1.09257591       0.50767836       0.47583572
H        0.77921132      -1.83185921      -0.44726474
H        0.71053211       1.33997725      -1.49587959
H       -1.45077633      -0.35466276      -1.22657044
H       -1.63367056       1.27366618      -0.55322696
H       -1.42535220      -1.23038938       0.99237442
H       -1.56219198       0.43861158       1.63104806
H        1.51101890       1.39551843       0.94706463
H        2.06702724      -0.64585157      -0.20241063
14
Frame=16 idx=001716 GeodesicLength=1.2414185091038812 rxn_smarts="[O:1]([C@@:2]1([H:8])[C:3]([H:9])([H:10])[C:4]([H:11])([H:12])[O:5][C:6]1([H:13])[H:14])[H:7]>>[C:2]1([H:8])=[C:6]([H:13])[O:5][C:4]([H:11])([H:12])[C:3]1([H:9])[H:10].[O:1]([H:7])[H:14]"
O        1.23660909      -1.35549993      -1.14165038
C        0.41431728       0.58308784      -0.78386243
C       -1.05631873       0.35153372      -0.49686724
C       -1.02730044      -0.21488460       0.93267673
O        0.34517156      -0.29544972       1.33555617
C        1.09291165       0.50119327       0.46993067
H        0.78453294      -1.81250896      -0.42158603
H        0.69970452       1.36582356      -1.48145690
H       -1.44657800      -0.36049847      -1.22935305
H       -1.64555101       1.26710276      -0.55952973
H       -1.44888310      -1.21939006       0.99999923
H       -1.53628157       0.45663674       1.63178690
H        1.48924092       1.39149835       0.95666444
H        2.09842489      -0.65864449      -0.21230837
