14
Frame=0 idx=008372 GeodesicLength=0.0 rxn_smarts="[O:1]([C@@:2]1([H:9])[C:3]([H:10])([H:11])[N:4]([H:12])[C@:5]1([C:6](=[O:7])[H:14])[H:13])[H:8]>>[H:11][H:13].[O:1]([C@@:2]1([H:9])[C+:3]([H:10])[N:4]([H:12])[C:5]1=[C:6]([O-:7])[H:14])[H:8]"
O       -0.92367328      -1.19426788       1.37603396
C       -0.71884039      -0.67871163       0.08931642
C       -1.17610442       0.79385604      -0.09641699
N        0.06163891       1.19397401       0.27126022
C        0.64845337      -0.00353570      -0.04291313
C        2.03044613      -0.36399621       0.12476473
O        2.90421878       0.43383003       0.39149226
H       -1.84153186      -1.46192334       1.45445049
H       -1.00803067      -1.38399366      -0.68978286
H       -2.09907884       1.30619915       0.14377687
H       -0.71643593       0.53125941      -1.63754645
H        0.48004982       2.11077426       0.31597238
H        0.10442870       0.15042656      -1.65239892
H        2.25445966      -1.43389099      -0.04800901
14
Frame=1 idx=008372 GeodesicLength=0.07488251555050525 rxn_smarts="[O:1]([C@@:2]1([H:9])[C:3]([H:10])([H:11])[N:4]([H:12])[C@:5]1([C:6](=[O:7])[H:14])[H:13])[H:8]>>[H:11][H:13].[O:1]([C@@:2]1([H:9])[C+:3]([H:10])[N:4]([H:12])[C:5]1=[C:6]([O-:7])[H:14])[H:8]"
O       -0.91268633      -1.19686208       1.37690777
C       -0.71914487      -0.67515409       0.09177699
C       -1.17860128       0.79527979      -0.10342442
N        0.06386216       1.19797425       0.25335608
C        0.64773457      -0.00360858      -0.06382074
C        2.02656736      -0.36484769       0.12731764
O        2.89500197       0.43317490       0.41105302
H       -1.82836601      -1.47035901       1.46012933
H       -1.01456856      -1.37821315      -0.68753954
H       -2.09605219       1.30450843       0.16335922
H       -0.73309667       0.53725934      -1.65607175
H        0.48969958       2.10890640       0.32629844
H        0.10816280       0.14910925      -1.67122053
H        2.25148747      -1.43716775      -0.02812152
14
Frame=2 idx=008372 GeodesicLength=0.14978401598962277 rxn_smarts="[O:1]([C@@:2]1([H:9])[C:3]([H:10])([H:11])[N:4]([H:12])[C@:5]1([C:6](=[O:7])[H:14])[H:13])[H:8]>>[H:11][H:13].[O:1]([C@@:2]1([H:9])[C+:3]([H:10])[N:4]([H:12])[C:5]1=[C:6]([O-:7])[H:14])[H:8]"
O       -0.90164231      -1.19910934       1.37795680
C       -0.71920927      -0.67144590       0.09447701
C       -1.18103742       0.79669164      -0.11055851
N        0.06612891       1.20211512       0.23491277
C        0.64702449      -0.00375065      -0.08461935
C        2.02247806      -0.36556739       0.12966754
O        2.88526697       0.43261179       0.43036493
H       -1.81502388      -1.47868242       1.46576640
H       -1.02087597      -1.37242528      -0.68488628
H       -2.09229269       1.30294371       0.18217529
H       -0.75022485       0.54322471      -1.67467169
H        0.49900108       2.10617737       0.33826288
H        0.11243819       0.14729592      -1.69018055
H        2.24796870      -1.44007928      -0.00866726
14
Frame=3 idx=008372 GeodesicLength=0.2247034060301349 rxn_smarts="[O:1]([C@@:2]1([H:9])[C:3]([H:10])([H:11])[N:4]([H:12])[C@:5]1([C:6](=[O:7])[H:14])[H:13])[H:8]>>[H:11][H:13].[O:1]([C@@:2]1([H:9])[C+:3]([H:10])[N:4]([H:12])[C:5]1=[C:6]([O-:7])[H:14])[H:8]"
O       -0.89057948      -1.20096123       1.37920644
C       -0.71903584      -0.66756495       0.09742831
C       -1.18339942       0.79810298      -0.11783354
N        0.06844747       1.20641904       0.21590758
C        0.64632529      -0.00396531      -0.10526244
C        2.01819387      -0.36615737       0.13184850
O        2.87506122       0.43216834       0.44929066
H       -1.80154111      -1.48685433       1.47136153
H       -1.02693671      -1.36662249      -0.68180632
H       -2.08782604       1.30155320       0.20015862
H       -0.76782826       0.54914958      -1.69334371
H        0.50782772       2.10242162       0.35202866
H        0.11733596       0.14493044      -1.70925618
H        2.24395533      -1.44261952       0.01027188
14
Frame=4 idx=008372 GeodesicLength=0.2996413757356822 rxn_smarts="[O:1]([C@@:2]1([H:9])[C:3]([H:10])([H:11])[N:4]([H:12])[C@:5]1([C:6](=[O:7])[H:14])[H:13])[H:8]>>[H:11][H:13].[O:1]([C@@:2]1([H:9])[C+:3]([H:10])[N:4]([H:12])[C:5]1=[C:6]([O-:7])[H:14])[H:8]"
O       -0.87952962      -1.20237416       1.38067843
C       -0.71862683      -0.66348639       0.10063972
C       -1.18567104       0.79952931      -0.12525630
N        0.07083133       1.21090970       0.19632747
C        0.64564033      -0.00425373      -0.12570848
C        2.01373165      -0.36661918       0.13388801
O        2.86443848       0.43186693       0.46772201
H       -1.78794692      -1.49483796       1.47691557
H       -1.03273854      -1.36078952      -0.67828945
H       -2.08267684       1.30038728       0.21726047
H       -0.78592594       0.55504159      -1.71208073
H        0.51603072       2.09745054       0.36770318
H        0.12293788       0.14196438      -1.72842475
H        2.23950534      -1.44478878       0.02862484
14
Frame=5 idx=008372 GeodesicLength=0.37460055636849116 rxn_smarts="[O:1]([C@@:2]1([H:9])[C:3]([H:10])([H:11])[N:4]([H:12])[C@:5]1([C:6](=[O:7])[H:14])[H:13])[H:8]>>[H:11][H:13].[O:1]([C@@:2]1([H:9])[C+:3]([H:10])[N:4]([H:12])[C:5]1=[C:6]([O-:7])[H:14])[H:8]"
O       -0.86852480      -1.20332709       1.38238421
C       -0.71798573      -0.65918679       0.10411730
C       -1.18783234       0.80098925      -0.13281294
N        0.07329864       1.21560609       0.17619553
C        0.64497361      -0.00461674      -0.14591035
C        2.00910843      -0.36695641       0.13582077
O        2.85346173       0.43172909       0.48555891
H       -1.77427253      -1.50261336       1.48241845
H       -1.03827250      -1.35489926      -0.67433965
H       -2.07686834       1.29949359       0.23346315
H       -0.80454369       0.56093815      -1.73085833
H        0.52344739       2.09107004       0.38526383
H        0.12933147       0.13836924      -1.74765305
H        2.23467866      -1.44659580       0.04635217
14
Frame=6 idx=008372 GeodesicLength=0.4495873817253514 rxn_smarts="[O:1]([C@@:2]1([H:9])[C:3]([H:10])([H:11])[N:4]([H:12])[C@:5]1([C:6](=[O:7])[H:14])[H:13])[H:8]>>[H:11][H:13].[O:1]([C@@:2]1([H:9])[C+:3]([H:10])[N:4]([H:12])[C:5]1=[C:6]([O-:7])[H:14])[H:8]"
O       -0.85759499      -1.20384946       1.38431568
C       -0.71711832      -0.65465104       0.10786407
C       -1.18986144       0.80250242      -0.14044766
N        0.07587008       1.22051434       0.15560414
C        0.64432837      -0.00505590      -0.16580880
C        2.00434172      -0.36717635       0.13768750
O        2.84219010       0.43176361       0.50276225
H       -1.76054881      -1.51020620       1.48783739
H       -1.04353493      -1.34890848      -0.66998524
H       -2.07042134       1.29890930       0.24881156
H       -0.82372063       0.56692756      -1.74961656
H        0.52993300       2.08313204       0.40440699
H        0.13660647       0.13415827      -1.76688784
H        2.22953072      -1.44806010       0.06345652
14
Frame=7 idx=008372 GeodesicLength=0.524611868830986 rxn_smarts="[O:1]([C@@:2]1([H:9])[C:3]([H:10])([H:11])[N:4]([H:12])[C@:5]1([C:6](=[O:7])[H:14])[H:13])[H:8]>>[H:11][H:13].[O:1]([C@@:2]1([H:9])[C+:3]([H:10])[N:4]([H:12])[C:5]1=[C:6]([O-:7])[H:14])[H:8]"
O       -0.84678225      -1.20405452       1.38643682
C       -0.71603786      -0.64988559       0.11188112
C       -1.19173868       0.80408314      -0.14804555
N        0.07856227       1.22561301       0.13475106
C        0.64370430      -0.00557989      -0.18531659
C        1.99944503      -0.36729538       0.13956262
O        2.83068037       0.43197225       0.51933451
H       -1.74682381      -1.51771705       1.49309920
H       -1.04852917      -1.34276051      -0.66528968
H       -2.06335741       1.29864800       0.26343484
H       -0.84350434       0.57316862      -1.76824357
H        0.53541170       2.07362160       0.42443689
H        0.14486056       0.12940041      -1.78604215
H        2.22410928      -1.44921409       0.08000048
14
Frame=8 idx=008372 GeodesicLength=0.5996869347455775 rxn_smarts="[O:1]([C@@:2]1([H:9])[C:3]([H:10])([H:11])[N:4]([H:12])[C@:5]1([C:6](=[O:7])[H:14])[H:13])[H:8]>>[H:11][H:13].[O:1]([C@@:2]1([H:9])[C+:3]([H:10])[N:4]([H:12])[C:5]1=[C:6]([O-:7])[H:14])[H:8]"
O       -0.83614108      -1.20414807       1.38868454
C       -0.71476826      -0.64492796       0.11616732
C       -1.19345495       0.80573288      -0.15543516
N        0.08137848       1.23084603       0.11392777
C        0.64309474      -0.00620776      -0.20432526
C        1.99442487      -0.36733838       0.14154954
O        2.81897052       0.43234311       0.53536042
H       -1.73316221      -1.52533408       1.49809242
H       -1.05326846      -1.33639847      -0.66035052
H       -2.05570139       1.29869099       0.27755198
H       -0.86396100       0.57988130      -1.78657930
H        0.53994179       2.06274696       0.44426590
H        0.15419516       0.12421527      -1.80500325
H        2.21845179      -1.45010183       0.09609361
14
Frame=9 idx=008372 GeodesicLength=0.6747658301396942 rxn_smarts="[O:1]([C@@:2]1([H:9])[C:3]([H:10])([H:11])[N:4]([H:12])[C@:5]1([C:6](=[O:7])[H:14])[H:13])[H:8]>>[H:11][H:13].[O:1]([C@@:2]1([H:9])[C+:3]([H:10])[N:4]([H:12])[C:5]1=[C:6]([O-:7])[H:14])[H:8]"
O       -0.82572848      -1.20435717       1.39094469
C       -0.71333789      -0.63982968       0.12071229
C       -1.19502238       0.80742166      -0.16243118
N        0.08429031       1.23609101       0.09343098
C        0.64248409      -0.00698072      -0.22272360
C        1.98927487      -0.36734380       0.14377134
O        2.80708098       0.43284886       0.55092979
H       -1.71963042      -1.53325191       1.50264760
H       -1.05776278      -1.32975366      -0.65526534
H       -2.04749004       1.29896997       0.29141215
H       -0.88518387       0.58728809      -1.80440814
H        0.54371984       2.05094300       0.46271492
H        0.16471191       0.11871290      -1.82361304
H        2.21259384      -1.45075854       0.11187754
14
Frame=10 idx=008372 GeodesicLength=0.7498789530501344 rxn_smarts="[O:1]([C@@:2]1([H:9])[C:3]([H:10])([H:11])[N:4]([H:12])[C@:5]1([C:6](=[O:7])[H:14])[H:13])[H:8]>>[H:11][H:13].[O:1]([C@@:2]1([H:9])[C+:3]([H:10])[N:4]([H:12])[C:5]1=[C:6]([O-:7])[H:14])[H:8]"
O       -0.81560345      -1.20492650       1.39316251
C       -0.71178393      -0.63466762       0.12550802
C       -1.19645906       0.80913241      -0.16888305
N        0.08727998       1.24128256       0.07348515
C        0.64185990      -0.00792833      -0.24043685
C        1.98398917      -0.36733148       0.14633837
O        2.79501870       0.43348308       0.56618106
H       -1.70629836      -1.54171103       1.50665984
H       -1.06204646      -1.32282634      -0.65013899
H       -2.03874371       1.29944249       0.30525492
H       -0.90730226       0.59559858      -1.82160037
H        0.54702221       2.03871078       0.47878714
H        0.17650840       0.11297422      -1.84180981
H        2.20655886      -1.45123282       0.12749205
14
Frame=11 idx=008372 GeodesicLength=0.8250127408884236 rxn_smarts="[O:1]([C@@:2]1([H:9])[C:3]([H:10])([H:11])[N:4]([H:12])[C@:5]1([C:6](=[O:7])[H:14])[H:13])[H:8]>>[H:11][H:13].[O:1]([C@@:2]1([H:9])[C+:3]([H:10])[N:4]([H:12])[C:5]1=[C:6]([O-:7])[H:14])[H:8]"
O       -0.80580121      -1.20599215       1.39527936
C       -0.71013340      -0.62949511       0.13053533
C       -1.19778922       0.81083787      -0.17471788
N        0.09032205       1.24634884       0.05414914
C        0.64121165      -0.00908563      -0.25744317
C        1.97855997      -0.36731673       0.14931800
O        2.78278991       0.43424650       0.58117840
H       -1.69320416      -1.55084238       1.51003802
H       -1.06614582      -1.31562222      -0.64503166
H       -2.02947678       1.30006674       0.31922727
H       -0.93048419       0.60493771      -1.83805762
H        0.55009769       2.02648777       0.49202037
H        0.18968288       0.10697872      -1.85955587
H        2.20037062      -1.45154992       0.14306030
14
Frame=12 idx=008372 GeodesicLength=0.9001616983053796 rxn_smarts="[O:1]([C@@:2]1([H:9])[C:3]([H:10])([H:11])[N:4]([H:12])[C@:5]1([C:6](=[O:7])[H:14])[H:13])[H:8]>>[H:11][H:13].[O:1]([C@@:2]1([H:9])[C+:3]([H:10])[N:4]([H:12])[C:5]1=[C:6]([O-:7])[H:14])[H:8]"
O       -0.79634326      -1.20761940       1.39725969
C       -0.70840572      -0.62434821       0.13577208
C       -1.19903205       0.81252014      -0.17991379
N        0.09340056       1.25125004       0.03536995
C        0.64053511      -0.01047932      -0.27375853
C        1.97298272      -0.36730166       0.15274490
O        2.77039816       0.43515229       0.59596354
H       -1.68036588      -1.56071770       1.51272596
H       -1.07008492      -1.30816126      -0.63997914
H       -2.01968795       1.30082621       0.33341475
H       -0.95493176       0.61538326      -1.85372174
H        0.55313494       2.01457659       0.50230227
H        0.20434753       0.10064120      -1.87685581
H        2.19405250      -1.45172217       0.15867586
14
Frame=13 idx=008372 GeodesicLength=0.9753196209088889 rxn_smarts="[O:1]([C@@:2]1([H:9])[C:3]([H:10])([H:11])[N:4]([H:12])[C@:5]1([C:6](=[O:7])[H:14])[H:13])[H:8]>>[H:11][H:13].[O:1]([C@@:2]1([H:9])[C+:3]([H:10])[N:4]([H:12])[C:5]1=[C:6]([O-:7])[H:14])[H:8]"
O       -0.78723702      -1.20982876       1.39907232
C       -0.70661183      -0.61924844       0.14119021
C       -1.20019843       0.81416921      -0.18447778
N        0.09651042       1.25596152       0.01702345
C        0.63983191      -0.01213308      -0.28942231
C        1.96725594      -0.36728190       0.15663360
O        2.75784962       0.43622467       0.61054934
H       -1.66778376      -1.57136749       1.51467829
H       -1.07388570      -1.30046110      -0.63500607
H       -2.00935610       1.30172006       0.34786947
H       -0.98088256       0.62699981      -1.86854541
H        0.55625745       2.00316890       0.50972644
H        0.22062961       0.09382913      -1.89373248
H        2.18762044      -1.45175255       0.17444092
14
Frame=14 idx=008372 GeodesicLength=1.0504856965312013 rxn_smarts="[O:1]([C@@:2]1([H:9])[C:3]([H:10])([H:11])[N:4]([H:12])[C@:5]1([C:6](=[O:7])[H:14])[H:13])[H:8]>>[H:11][H:13].[O:1]([C@@:2]1([H:9])[C+:3]([H:10])[N:4]([H:12])[C:5]1=[C:6]([O-:7])[H:14])[H:8]"
O       -0.77848682      -1.21262906       1.40068581
C       -0.70475825      -0.61421047       0.14675962
C       -1.20129300       0.81578248      -0.18841700
N        0.09965310       1.26046953      -0.00103833
C        0.63910810      -0.01406776      -0.30447958
C        1.96137966      -0.36724712       0.16099666
O        2.74514145       0.43749095       0.62496666
H       -1.65544937      -1.58282100       1.51584445
H       -1.07756807      -1.29253334      -0.63013771
H       -1.99844191       1.30276083       0.36264390
H       -1.00861417       0.63986111      -1.88246582
H        0.55955978       1.99239008       0.51439547
H        0.23868246       0.08638987      -1.91021076
H        2.18108706      -1.45163611       0.19045666
14
Frame=15 idx=008372 GeodesicLength=1.1256610479289844 rxn_smarts="[O:1]([C@@:2]1([H:9])[C:3]([H:10])([H:11])[N:4]([H:12])[C@:5]1([C:6](=[O:7])[H:14])[H:13])[H:8]>>[H:11][H:13].[O:1]([C@@:2]1([H:9])[C+:3]([H:10])[N:4]([H:12])[C:5]1=[C:6]([O-:7])[H:14])[H:8]"
O       -0.77009697      -1.21602762       1.40206169
C       -0.70284763      -0.60924630       0.15244533
C       -1.20231340       0.81736179      -0.19173691
N        0.10283605       1.26476174      -0.01898189
C        0.63837397      -0.01630637      -0.31897775
C        1.95535336      -0.36718379       0.16585276
O        2.73226981       0.43898872       0.63923751
H       -1.64335281      -1.59510558       1.51616225
H       -1.08115071      -1.28438223      -0.62540565
H       -1.98688534       1.30396788       0.37779530
H       -1.03844570       0.65406311      -1.89539558
H        0.56311036       1.98232357       0.51641092
H        0.25868951       0.07814592      -1.92631111
H        2.17445951      -1.45136084       0.20684315
14
Frame=16 idx=008372 GeodesicLength=1.2008503309188707 rxn_smarts="[O:1]([C@@:2]1([H:9])[C:3]([H:10])([H:11])[N:4]([H:12])[C@:5]1([C:6](=[O:7])[H:14])[H:13])[H:8]>>[H:11][H:13].[O:1]([C@@:2]1([H:9])[C+:3]([H:10])[N:4]([H:12])[C:5]1=[C:6]([O-:7])[H:14])[H:8]"
O       -0.76207479      -1.22003979       1.40315144
C       -0.70088019      -0.60436834       0.15820731
C       -1.20325140       0.81891263      -0.19443421
N        0.10607043       1.26882418      -0.03698552
C        0.63764388      -0.01887537      -0.33296395
C        1.94917526      -0.36707450       0.17123081
O        2.71922386       0.44076405       0.65339253
H       -1.63148411      -1.60826026       1.51555049
H       -1.08465180      -1.27600445      -0.62085181
H       -1.97460327       1.30536633       0.39339603
H       -1.07074653       0.66973131      -1.90720961
H        0.56696926       1.97303380       0.51582042
H        0.28086967       0.06889751      -1.94204455
H        2.16773971      -1.45090710       0.22374064
