13
Frame=0 idx=011249 GeodesicLength=0.0 rxn_smarts="[C:1]([C@@:2]1([H:11])[O:3][C:4](=[O:5])[C:6]([H:12])=[C:7]1[H:13])([H:8])([H:9])[H:10]>>[C:1]([c:2]1[o:3][c:4]([O:5][H:11])[c:6]([H:12])[c:7]1[H:13])([H:8])([H:9])[H:10]"
C       -1.86466770      -0.17904712      -0.28019008
C       -0.40498301      -0.12299584      -0.00081804
O        0.34218769      -1.27463223      -0.33391669
C        1.54693386      -0.81941613       0.11384234
O        1.64108352      -1.11387598       1.34559972
C        1.74692218       0.52739403      -0.33688293
C        0.46235962       0.98193940      -0.31130987
H       -2.31552663      -1.04955884       0.19433653
H       -2.33980465       0.72073421       0.11299811
H       -2.06274503      -0.22816516      -1.35432032
H        0.44808966      -0.53599586       1.46350813
H        2.66600155       1.08262863      -0.26491877
H        0.13414893       2.01099090      -0.34792818
13
Frame=1 idx=011249 GeodesicLength=0.05295085363670147 rxn_smarts="[C:1]([C@@:2]1([H:11])[O:3][C:4](=[O:5])[C:6]([H:12])=[C:7]1[H:13])([H:8])([H:9])[H:10]>>[C:1]([c:2]1[o:3][c:4]([O:5][H:11])[c:6]([H:12])[c:7]1[H:13])([H:8])([H:9])[H:10]"
C       -1.86453170      -0.17754860      -0.28114837
C       -0.40642017      -0.11810499       0.00821690
O        0.34148876      -1.26715652      -0.33378023
C        1.55094515      -0.81882344       0.11067756
O        1.65561250      -1.12539694       1.33939844
C        1.74429450       0.52927257      -0.33771266
C        0.45891469       0.98600025      -0.30946542
H       -2.31916210      -1.04035242       0.20396287
H       -2.34306791       0.72812919       0.09391747
H       -2.05680849      -0.24351628      -1.35534716
H        0.44237991      -0.55138976       1.47566085
H        2.66420686       1.08349799      -0.26742964
H        0.13214802       2.01538894      -0.34695061
13
Frame=2 idx=011249 GeodesicLength=0.1059052028092326 rxn_smarts="[C:1]([C@@:2]1([H:11])[O:3][C:4](=[O:5])[C:6]([H:12])=[C:7]1[H:13])([H:8])([H:9])[H:10]>>[C:1]([c:2]1[o:3][c:4]([O:5][H:11])[c:6]([H:12])[c:7]1[H:13])([H:8])([H:9])[H:10]"
C       -1.86431861      -0.17603160      -0.28203994
C       -0.40781092      -0.11317285       0.01720021
O        0.34081839      -1.25967056      -0.33345598
C        1.55495983      -0.81816866       0.10755413
O        1.67015508      -1.13685517       1.33302715
C        1.74168484       0.53118782      -0.33848490
C        0.45546714       0.99005876      -0.30786903
H       -2.32281977      -1.03096695       0.21347380
H       -2.34605583       0.73525410       0.07486989
H       -2.05088657      -0.25877598      -1.35600585
H        0.43627384      -0.56710558       1.48774894
H        2.66238757       1.08445961      -0.26981185
H        0.13014502       2.01978706      -0.34620659
13
Frame=3 idx=011249 GeodesicLength=0.15882873396794994 rxn_smarts="[C:1]([C@@:2]1([H:11])[O:3][C:4](=[O:5])[C:6]([H:12])=[C:7]1[H:13])([H:8])([H:9])[H:10]>>[C:1]([c:2]1[o:3][c:4]([O:5][H:11])[c:6]([H:12])[c:7]1[H:13])([H:8])([H:9])[H:10]"
C       -1.86402821      -0.17449673      -0.28285919
C       -0.40915353      -0.10819302       0.02613292
O        0.34017802      -1.25215976      -0.33293784
C        1.55897881      -0.81743970       0.10447449
O        1.68471372      -1.14824180       1.32647057
C        1.73909802       0.53313839      -0.33919079
C        0.45202017       0.99410656      -0.30651962
H       -2.32649635      -1.02140168       0.22286039
H       -2.34877172       0.74209264       0.05587164
H       -2.04498109      -0.27393409      -1.35628188
H        0.42974859      -0.58314309       1.49975067
H        2.66055002       1.08550714      -0.27205462
H        0.12814355       2.02416513      -0.34571673
13
Frame=4 idx=011249 GeodesicLength=0.2117660719148224 rxn_smarts="[C:1]([C@@:2]1([H:11])[O:3][C:4](=[O:5])[C:6]([H:12])=[C:7]1[H:13])([H:8])([H:9])[H:10]>>[C:1]([c:2]1[o:3][c:4]([O:5][H:11])[c:6]([H:12])[c:7]1[H:13])([H:8])([H:9])[H:10]"
C       -1.86365999      -0.17294381      -0.28361381
C       -0.41044854      -0.10315854       0.03502571
O        0.33956745      -1.24463172      -0.33223808
C        1.56300557      -0.81664387       0.10141953
O        1.69931480      -1.15959134       1.31971242
C        1.73652748       0.53513839      -0.33983738
C        0.44856473       0.99816299      -0.30540927
H       -2.33020160      -1.01160194       0.23221800
H       -2.35122032       0.74870487       0.03679749
H       -2.03908399      -0.28911101      -1.35619161
H        0.42279996      -0.59954044       1.51167060
H        2.65869039       1.08665514      -0.27417717
H        0.12614406       2.02856128      -0.34537642
13
Frame=5 idx=011249 GeodesicLength=0.26469818940257434 rxn_smarts="[C:1]([C@@:2]1([H:11])[O:3][C:4](=[O:5])[C:6]([H:12])=[C:7]1[H:13])([H:8])([H:9])[H:10]>>[C:1]([c:2]1[o:3][c:4]([O:5][H:11])[c:6]([H:12])[c:7]1[H:13])([H:8])([H:9])[H:10]"
C       -1.86321507      -0.17137211      -0.28429433
C       -0.41169200      -0.09806600       0.04386999
O        0.33899274      -1.23708843      -0.33134187
C        1.56704312      -0.81577843       0.09840676
O        1.71395662      -1.17088463       1.31276513
C        1.73398289       0.53717869      -0.34042272
C        0.44510788       1.00221739      -0.30455643
H       -2.33391883      -1.00161765       0.24147755
H       -2.35340534       0.75504904       0.01776013
H       -2.03321118      -0.30421291      -1.35572780
H        0.41539558      -0.61627841       1.52349774
H        2.65681568       1.08789734      -0.27615919
H        0.12414791       2.03295611      -0.34527497
13
Frame=6 idx=011249 GeodesicLength=0.31763126945882897 rxn_smarts="[C:1]([C@@:2]1([H:11])[O:3][C:4](=[O:5])[C:6]([H:12])=[C:7]1[H:13])([H:8])([H:9])[H:10]>>[C:1]([c:2]1[o:3][c:4]([O:5][H:11])[c:6]([H:12])[c:7]1[H:13])([H:8])([H:9])[H:10]"
C       -1.86269130      -0.16978168      -0.28490109
C       -0.41288311      -0.09290665       0.05267729
O        0.33845412      -1.22951902      -0.33025982
C        1.57109321      -0.81483870       0.09542322
O        1.72865551      -1.18215019       1.30560080
C        1.73146153       0.53927280      -0.34093421
C        0.44164604       1.00628069      -0.30393917
H       -2.33765329      -0.99139924       0.25070725
H       -2.35532825       0.76115232      -0.00132726
H       -2.02735397      -0.31932244      -1.35488410
H        0.40751998      -0.63339276       1.53522023
H        2.65492653       1.08924328      -0.27800531
H        0.12215300       2.03736159      -0.34537784
13
Frame=7 idx=011249 GeodesicLength=0.37055894488765473 rxn_smarts="[C:1]([C@@:2]1([H:11])[O:3][C:4](=[O:5])[C:6]([H:12])=[C:7]1[H:13])([H:8])([H:9])[H:10]>>[C:1]([c:2]1[o:3][c:4]([O:5][H:11])[c:6]([H:12])[c:7]1[H:13])([H:8])([H:9])[H:10]"
C       -1.86208981      -0.16817193      -0.28542791
C       -0.41401900      -0.08767772       0.06144375
O        0.33795491      -1.22193362      -0.32897155
C        1.57515839      -0.81382655       0.09248424
O        1.74341734      -1.19337100       1.29823470
C        1.72896978       0.54141138      -0.34138079
C        0.43818356       1.01034483      -0.30357996
H       -2.34139175      -0.98099822       0.25984265
H       -2.35699646       0.76698473      -0.02036603
H       -2.02152221      -0.33435624      -1.35366473
H        0.39914511      -0.65086088       1.54683562
H        2.65302756       1.09068704      -0.27970710
H        0.12016258       2.04176818      -0.34574289
13
Frame=8 idx=011249 GeodesicLength=0.4234745070075126 rxn_smarts="[C:1]([C@@:2]1([H:11])[O:3][C:4](=[O:5])[C:6]([H:12])=[C:7]1[H:13])([H:8])([H:9])[H:10]>>[C:1]([c:2]1[o:3][c:4]([O:5][H:11])[c:6]([H:12])[c:7]1[H:13])([H:8])([H:9])[H:10]"
C       -1.86141064      -0.16654357      -0.28587036
C       -0.41509685      -0.08237413       0.07016527
O        0.33749840      -1.21433820      -0.32745735
C        1.57924003      -0.81274289       0.08960637
O        1.75824582      -1.20453398       1.29068191
C        1.72651271       0.54358568      -0.34176752
C        0.43472493       1.01440280      -0.30349680
H       -2.34511547      -0.97046928       0.26882485
H       -2.35842151       0.77251814      -0.03926008
H       -2.01572146      -0.34923345      -1.35208053
H        0.39023908      -0.66865595       1.55834263
H        2.65112482       1.09221833      -0.28126965
H        0.11818014       2.04616651      -0.34641875
13
Frame=9 idx=011249 GeodesicLength=0.47638685339868936 rxn_smarts="[C:1]([C@@:2]1([H:11])[O:3][C:4](=[O:5])[C:6]([H:12])=[C:7]1[H:13])([H:8])([H:9])[H:10]>>[C:1]([c:2]1[o:3][c:4]([O:5][H:11])[c:6]([H:12])[c:7]1[H:13])([H:8])([H:9])[H:10]"
C       -1.86065323      -0.16489563      -0.28622836
C       -0.41611611      -0.07698841       0.07885103
O        0.33708485      -1.20672644      -0.32572614
C        1.58334173      -0.81158500       0.08677242
O        1.77316469      -1.21566536       1.28290911
C        1.72408804       0.54580668      -0.34209155
C        0.43126565       1.01846220      -0.30367723
H       -2.34883379      -0.95975547       0.27773047
H       -2.35960390       0.77778680      -0.05810868
H       -2.00994411      -0.36404988      -1.35012225
H        0.38078634      -0.68680768       1.56972579
H        2.64921491       1.09384997      -0.28268144
H        0.11620492       2.05056823      -0.34735317
13
Frame=10 idx=011249 GeodesicLength=0.5292810149529078 rxn_smarts="[C:1]([C@@:2]1([H:11])[O:3][C:4](=[O:5])[C:6]([H:12])=[C:7]1[H:13])([H:8])([H:9])[H:10]>>[C:1]([c:2]1[o:3][c:4]([O:5][H:11])[c:6]([H:12])[c:7]1[H:13])([H:8])([H:9])[H:10]"
C       -1.85981690      -0.16322887      -0.28649849
C       -0.41707478      -0.07151592       0.08750291
O        0.33671516      -1.19910403      -0.32375327
C        1.58746351      -0.81035190       0.08399897
O        1.78818129      -1.22674928       1.27492483
C        1.72169955       0.54806645      -0.34235619
C        0.42781077       1.02251604      -0.30412791
H       -2.35253254      -0.94891037       0.28649816
H       -2.36055520       0.78276361      -0.07682206
H       -2.00419057      -0.37872803      -1.34780109
H        0.37075272      -0.70529145       1.58098413
H        2.64730493       1.09557114      -0.28395803
H        0.11424205       2.05496260      -0.34859196
13
Frame=11 idx=011249 GeodesicLength=0.5821745175765012 rxn_smarts="[C:1]([C@@:2]1([H:11])[O:3][C:4](=[O:5])[C:6]([H:12])=[C:7]1[H:13])([H:8])([H:9])[H:10]>>[C:1]([c:2]1[o:3][c:4]([O:5][H:11])[c:6]([H:12])[c:7]1[H:13])([H:8])([H:9])[H:10]"
C       -1.85889995      -0.16153960      -0.28667628
C       -0.41797177      -0.06594977       0.09613701
O        0.33639273      -1.19146318      -0.32154561
C        1.59161172      -0.80904172       0.08127115
O        1.80332439      -1.23782308       1.26669389
C        1.71934589       0.55037926      -0.34254699
C        0.42435545       1.02657351      -0.30482444
H       -2.35622055      -0.93788777       0.29518709
H       -2.36127490       0.78747571      -0.09546483
H       -1.99845145      -0.39333154      -1.34510646
H        0.36011982      -0.72414588       1.59210568
H        2.64539156       1.09739814      -0.28507317
H        0.11227706       2.05935593      -0.35015704
13
Frame=12 idx=011249 GeodesicLength=0.6350539884768119 rxn_smarts="[C:1]([C@@:2]1([H:11])[O:3][C:4](=[O:5])[C:6]([H:12])=[C:7]1[H:13])([H:8])([H:9])[H:10]>>[C:1]([c:2]1[o:3][c:4]([O:5][H:11])[c:6]([H:12])[c:7]1[H:13])([H:8])([H:9])[H:10]"
C       -1.85790177      -0.15983013      -0.28676154
C       -0.41880540      -0.06028366       0.10475035
O        0.33611617      -1.18381048      -0.31907582
C        1.59578516      -0.80765483       0.07860579
O        1.81860328      -1.24886926       1.25822610
C        1.71702961       0.55273325      -0.34267524
C        0.42090474       1.03062565      -0.30578208
H       -2.35987897      -0.92674209       0.30374011
H       -2.36177762       0.79189781      -0.11395746
H       -1.99272804      -0.40779365      -1.34205388
H        0.34885010      -0.74332851       1.60308819
H        2.64348030       1.09931622      -0.28605149
H        0.11032243       2.06373970      -0.35205303
13
Frame=13 idx=011249 GeodesicLength=0.687929738952948 rxn_smarts="[C:1]([C@@:2]1([H:11])[O:3][C:4](=[O:5])[C:6]([H:12])=[C:7]1[H:13])([H:8])([H:9])[H:10]>>[C:1]([c:2]1[o:3][c:4]([O:5][H:11])[c:6]([H:12])[c:7]1[H:13])([H:8])([H:9])[H:10]"
C       -1.85681992      -0.15809724      -0.28674777
C       -0.41957417      -0.05451270       0.11336046
O        0.33589046      -1.17613793      -0.31635052
C        1.59999085      -0.80618729       0.07598648
O        1.83404833      -1.25992258       1.24947641
C        1.71475046       0.55514504      -0.34272337
C        0.41745563       1.03468217      -0.30696646
H       -2.36352392      -0.91541461       0.31222524
H       -2.36205528       0.79605955      -0.13238506
H       -1.98701144      -0.42219270      -1.33862270
H        0.33691733      -0.76288797       1.61391437
H        2.64156774       1.10134734      -0.28686864
H        0.10836394       2.06811893      -0.35429845
13
Frame=14 idx=011249 GeodesicLength=0.7407960553107572 rxn_smarts="[C:1]([C@@:2]1([H:11])[O:3][C:4](=[O:5])[C:6]([H:12])=[C:7]1[H:13])([H:8])([H:9])[H:10]>>[C:1]([c:2]1[o:3][c:4]([O:5][H:11])[c:6]([H:12])[c:7]1[H:13])([H:8])([H:9])[H:10]"
C       -1.85565459      -0.15634334      -0.28663707
C       -0.42027791      -0.04863016       0.12196618
O        0.33571446      -1.16845500      -0.31333719
C        1.60422823      -0.80464128       0.07342917
O        1.84967392      -1.27096883       1.24045153
C        1.71250964       0.55760173      -0.34270830
C        0.41401105       1.03873402      -0.30839642
H       -2.36713794      -0.90396209       0.32058560
H       -2.36212690       0.79993766      -0.15066928
H       -1.98129537      -0.43646237      -1.33483435
H        0.32428270      -0.78277280       1.62458819
H        2.63965891       1.10347408      -0.28755316
H        0.10641380       2.07248837      -0.35688490
13
Frame=15 idx=011249 GeodesicLength=0.7936574951018863 rxn_smarts="[C:1]([C@@:2]1([H:11])[O:3][C:4](=[O:5])[C:6]([H:12])=[C:7]1[H:13])([H:8])([H:9])[H:10]>>[C:1]([c:2]1[o:3][c:4]([O:5][H:11])[c:6]([H:12])[c:7]1[H:13])([H:8])([H:9])[H:10]"
C       -1.85440272      -0.15456365      -0.28641873
C       -0.42091393      -0.04262937       0.13058494
O        0.33559041      -1.16075024      -0.31004164
C        1.60850277      -0.80301185       0.07091536
O        1.86551469      -1.28204476       1.23109558
C        1.71030708       0.56011971      -0.34260723
C        0.41056887       1.04278703      -0.31004344
H       -2.37073215      -0.89232616       0.32888549
H       -2.36198171       0.80355508      -0.16888032
H       -1.97557498      -0.45067325      -1.33065986
H        0.31091640      -0.80302855       1.63508510
H        2.63774721       1.10572086      -0.28805028
H        0.10445807       2.07684514      -0.35986498
13
Frame=16 idx=011249 GeodesicLength=0.846509035056564 rxn_smarts="[C:1]([C@@:2]1([H:11])[O:3][C:4](=[O:5])[C:6]([H:12])=[C:7]1[H:13])([H:8])([H:9])[H:10]>>[C:1]([c:2]1[o:3][c:4]([O:5][H:11])[c:6]([H:12])[c:7]1[H:13])([H:8])([H:9])[H:10]"
C       -1.85306246      -0.15276218      -0.28610243
C       -0.42148438      -0.03650625       0.13922083
O        0.33551715      -1.15303786      -0.30641931
C        1.61281359      -0.80130175       0.06846440
O        1.88159090      -1.29313049       1.22141635
C        1.70814000       0.56268263      -0.34244805
C        0.40713045       1.04683329      -0.31191159
H       -2.37429586      -0.88056263       0.33706099
H       -2.36163804       0.80689067      -0.18695714
H       -1.96983323      -0.46476401      -1.32613009
H        0.29677549      -0.82359308       1.64541872
H        2.63583690       1.10806388      -0.28843073
H        0.10250947       2.08118777      -0.36318196
