11
Frame=0 idx=004938 GeodesicLength=0.0 rxn_smarts="[O:1]([C:2]([C@@:3]1([H:9])[C:4]([H:10])([H:11])[O:5]1)([H:7])[H:8])[H:6]>>[O:1](/[C:2](=[C:3](\[C:4]([O:5][H:7])([H:10])[H:11])[H:9])[H:8])[H:6]"
O       -1.93123841      -0.29095634      -0.05516225
C       -1.00763707       0.68603421       0.15034060
C        0.32578424       0.46636439       0.48118211
C        1.06916177      -0.72770087      -0.01463858
O        1.27986870      -0.12944658      -1.22686339
H       -1.49970332      -1.15098289      -0.08265899
H       -0.14202987       0.75161567      -0.83016444
H       -1.45550335       1.66473179       0.25751597
H        0.92433797       1.32309631       0.76299938
H        0.46677626      -1.65707005      -0.02421104
H        1.97018308      -0.93568569       0.58166059
11
Frame=1 idx=004938 GeodesicLength=0.09251863307236673 rxn_smarts="[O:1]([C:2]([C@@:3]1([H:9])[C:4]([H:10])([H:11])[O:5]1)([H:7])[H:8])[H:6]>>[O:1](/[C:2](=[C:3](\[C:4]([O:5][H:7])([H:10])[H:11])[H:9])[H:8])[H:6]"
O       -1.92913495      -0.28764330      -0.05375239
C       -1.00608249       0.69103425       0.15041064
C        0.32852410       0.46654939       0.48035337
C        1.06906010      -0.73428151       0.00234383
O        1.23598565      -0.15545591      -1.22928932
H       -1.48963017      -1.13863396      -0.15149617
H       -0.14645416       0.75747471      -0.85747534
H       -1.45701023       1.66362476       0.29522282
H        0.92828122       1.32185836       0.76491933
H        0.47556530      -1.66751599       0.02555523
H        1.99089563      -0.91701080       0.57320800
11
Frame=2 idx=004938 GeodesicLength=0.18503855352155235 rxn_smarts="[O:1]([C:2]([C@@:3]1([H:9])[C:4]([H:10])([H:11])[O:5]1)([H:7])[H:8])[H:6]>>[O:1](/[C:2](=[C:3](\[C:4]([O:5][H:7])([H:10])[H:11])[H:9])[H:8])[H:6]"
O       -1.92546588      -0.28606293      -0.05272572
C       -1.00441771       0.69608493       0.14929678
C        0.33116420       0.46672717       0.47963212
C        1.06889215      -0.74053300       0.01882305
O        1.19383006      -0.18024706      -1.22966748
H       -1.47954779      -1.12404201      -0.21500770
H       -0.15053479       0.76308340      -0.88606407
H       -1.45889772       1.66084474       0.33168825
H        0.93174388       1.32064513       0.76765989
H        0.48368123      -1.67627841       0.07242033
H        2.00955239      -0.90022197       0.56394456
11
Frame=3 idx=004938 GeodesicLength=0.27744738907959443 rxn_smarts="[O:1]([C:2]([C@@:3]1([H:9])[C:4]([H:10])([H:11])[O:5]1)([H:7])[H:8])[H:6]>>[O:1](/[C:2](=[C:3](\[C:4]([O:5][H:7])([H:10])[H:11])[H:9])[H:8])[H:6]"
O       -1.92051692      -0.28563213      -0.05267601
C       -1.00260683       0.70125476       0.14696070
C        0.33363508       0.46681240       0.47906292
C        1.06864726      -0.74637217       0.03474183
O        1.15341261      -0.20348984      -1.22820134
H       -1.46965043      -1.10806677      -0.27241972
H       -0.15428343       0.76838891      -0.91595790
H       -1.46085595       1.65651606       0.36682961
H        0.93470038       1.31926067       0.77143134
H        0.49122267      -1.68353864       0.11624916
H        2.02629556      -0.88513325       0.55397941
11
Frame=4 idx=004938 GeodesicLength=0.3698366130326689 rxn_smarts="[O:1]([C:2]([C@@:3]1([H:9])[C:4]([H:10])([H:11])[O:5]1)([H:7])[H:8])[H:6]>>[O:1](/[C:2](=[C:3](\[C:4]([O:5][H:7])([H:10])[H:11])[H:9])[H:8])[H:6]"
O       -1.91463388      -0.28588759      -0.05354641
C       -1.00064001       0.70662888       0.14355375
C        0.33593783       0.46675097       0.47874232
C        1.06835942      -0.75175448       0.05012320
O        1.11459956      -0.22503248      -1.22504979
H       -1.46002705      -1.09133595      -0.32409213
H       -0.15783443       0.77316912      -0.94717013
H       -1.46268631       1.65089968       0.40052310
H        0.93719450       1.31757808       0.77633641
H        0.49836360      -1.68946001       0.15720290
H        2.04136677      -0.87155619       0.54337676
11
Frame=5 idx=004938 GeodesicLength=0.462262963664944 rxn_smarts="[O:1]([C:2]([C@@:3]1([H:9])[C:4]([H:10])([H:11])[O:5]1)([H:7])[H:8])[H:6]>>[O:1](/[C:2](=[C:3](\[C:4]([O:5][H:7])([H:10])[H:11])[H:9])[H:8])[H:6]"
O       -1.90815682      -0.28636724      -0.05533755
C       -0.99853723       0.71232455       0.13920523
C        0.33804231       0.46652331       0.47877208
C        1.06808982      -0.75672696       0.06496769
O        1.07732157      -0.24481530      -1.22054006
H       -1.45071344      -1.07432898      -0.37034228
H       -0.16129953       0.77725486      -0.97974479
H       -1.46427753       1.64424991       0.43279618
H        0.93919619       1.31559100       0.78249619
H        0.50534645      -1.69439347       0.19546220
H        2.05498822      -0.85931169       0.53226511
11
Frame=6 idx=004938 GeodesicLength=0.5547903064731703 rxn_smarts="[O:1]([C:2]([C@@:3]1([H:9])[C:4]([H:10])([H:11])[O:5]1)([H:7])[H:8])[H:6]>>[O:1](/[C:2](=[C:3](\[C:4]([O:5][H:7])([H:10])[H:11])[H:9])[H:8])[H:6]"
O       -1.90123434      -0.28690364      -0.05761106
C       -0.99627951       0.71837037       0.13414959
C        0.33997132       0.46609355       0.47928400
C        1.06787004      -0.76127466       0.07930977
O        1.04146199      -0.26278532      -1.21474744
H       -1.44177312      -1.05722099      -0.41200940
H       -0.16487217       0.78033972      -1.01366729
H       -1.46552171       1.63682435       0.46342987
H        0.94074160       1.31323685       0.78997951
H        0.51228148      -1.69845463       0.23123931
H        2.06735442      -0.84822560       0.52064313
11
Frame=7 idx=004938 GeodesicLength=0.6473744449240286 rxn_smarts="[O:1]([C:2]([C@@:3]1([H:9])[C:4]([H:10])([H:11])[O:5]1)([H:7])[H:8])[H:6]>>[O:1](/[C:2](=[C:3](\[C:4]([O:5][H:7])([H:10])[H:11])[H:9])[H:8])[H:6]"
O       -1.89398067      -0.28733024      -0.06014226
C       -0.99385398       0.72478670       0.12856436
C        0.34173010       0.46545448       0.48038213
C        1.06773852      -0.76541252       0.09316527
O        1.00695799      -0.27893474      -1.20785795
H       -1.43324717      -1.04014278      -0.44965194
H       -0.16872084       0.78224587      -1.04892690
H       -1.46635997       1.62883979       0.49232409
H        0.94184298       1.31050154       0.79886345
H        0.51927538      -1.70187861       0.26471016
H        2.07861767      -0.83812949       0.50856960
11
Frame=8 idx=004938 GeodesicLength=0.7399664431846444 rxn_smarts="[O:1]([C:2]([C@@:3]1([H:9])[C:4]([H:10])([H:11])[O:5]1)([H:7])[H:8])[H:6]>>[O:1](/[C:2](=[C:3](\[C:4]([O:5][H:7])([H:10])[H:11])[H:9])[H:8])[H:6]"
O       -1.88649935      -0.28751445      -0.06276139
C       -0.99124030       0.73158020       0.12258431
C        0.34331334       0.46457861       0.48218327
C        1.06773241      -0.76916761       0.10653115
O        0.97380462      -0.29322416      -1.19998779
H       -1.42514303      -1.02319499      -0.48361260
H       -0.17300719       0.78277917      -1.08552500
H       -1.46674890       1.62051488       0.51932476
H        0.94248912       1.30735999       0.80927433
H        0.52641386      -1.70479954       0.29593330
H        2.08888543      -0.82891212       0.49605566
11
Frame=9 idx=004938 GeodesicLength=0.8331620679220628 rxn_smarts="[O:1]([C:2]([C@@:3]1([H:9])[C:4]([H:10])([H:11])[O:5]1)([H:7])[H:8])[H:6]>>[O:1](/[C:2](=[C:3](\[C:4]([O:5][H:7])([H:10])[H:11])[H:9])[H:8])[H:6]"
O       -1.87905789      -0.28711760      -0.06529454
C       -0.98834267       0.73877058       0.11618451
C        0.34463733       0.46330665       0.48487851
C        1.06787650      -0.77248705       0.11936722
O        0.94171519      -0.30535201      -1.19106690
H       -1.41737093      -1.00650792      -0.51404198
H       -0.17770477       0.78117330      -1.12364875
H       -1.46646783       1.61223744       0.54426268
H        0.94246700       1.30350623       0.82156459
H        0.53385045      -1.70728069       0.32472591
H        2.09839762      -0.82024892       0.48306875
11
Frame=10 idx=004938 GeodesicLength=0.9262711359719598 rxn_smarts="[O:1]([C:2]([C@@:3]1([H:9])[C:4]([H:10])([H:11])[O:5]1)([H:7])[H:8])[H:6]>>[O:1](/[C:2](=[C:3](\[C:4]([O:5][H:7])([H:10])[H:11])[H:9])[H:8])[H:6]"
O       -1.87148979      -0.28631994      -0.06752901
C       -0.98516751       0.74631630       0.10958983
C        0.34577729       0.46174205       0.48847819
C        1.06820470      -0.77544375       0.13170791
O        0.91088147      -0.31552066      -1.18139199
H       -1.41007206      -0.99001227      -0.54155267
H       -0.18316800       0.77773930      -1.16310093
H       -1.46562990       1.60407358       0.56707000
H        0.94196428       1.29913449       0.83560406
H        0.54157969      -1.70953536       0.35135493
H        2.10711984      -0.81217372       0.46976969
11
Frame=11 idx=004938 GeodesicLength=1.0193701901781793 rxn_smarts="[O:1]([C:2]([C@@:3]1([H:9])[C:4]([H:10])([H:11])[O:5]1)([H:7])[H:8])[H:6]>>[O:1](/[C:2](=[C:3](\[C:4]([O:5][H:7])([H:10])[H:11])[H:9])[H:8])[H:6]"
O       -1.86383001      -0.28507643      -0.06939046
C       -0.98167398       0.75420315       0.10288682
C        0.34673040       0.45984974       0.49306865
C        1.06874296      -0.77805382       0.14355852
O        0.88118624      -0.32370457      -1.17106005
H       -1.40323979      -0.97373088      -0.56643726
H       -0.18950197       0.77230649      -1.20389918
H       -1.46422629       1.59628544       0.58770388
H        0.94095602       1.29416414       0.85148533
H        0.54969727      -1.71168045       0.37587279
H        2.11515915      -0.80456282       0.45621095
11
Frame=12 idx=004938 GeodesicLength=1.11249999045024 rxn_smarts="[O:1]([C:2]([C@@:3]1([H:9])[C:4]([H:10])([H:11])[O:5]1)([H:7])[H:8])[H:6]>>[O:1](/[C:2](=[C:3](\[C:4]([O:5][H:7])([H:10])[H:11])[H:9])[H:8])[H:6]"
O       -1.85613577      -0.28331773      -0.07080991
C       -0.97781735       0.76243102       0.09613232
C        0.34747245       0.45757950       0.49874737
C        1.06951382      -0.78033323       0.15490267
O        0.85258767      -0.32984088      -1.16012993
H       -1.39683930      -0.95768061      -0.58886673
H       -0.19681793       0.76463663      -1.24607254
H       -1.46222008       1.58910404       0.60608998
H        0.93939426       1.28851831       0.86934534
H        0.55827341      -1.71380273       0.39824276
H        2.12258882      -0.79729432       0.44241866
11
Frame=13 idx=004938 GeodesicLength=1.2056251784118117 rxn_smarts="[O:1]([C:2]([C@@:3]1([H:9])[C:4]([H:10])([H:11])[O:5]1)([H:7])[H:8])[H:6]>>[O:1](/[C:2](=[C:3](\[C:4]([O:5][H:7])([H:10])[H:11])[H:9])[H:8])[H:6]"
O       -1.84842484      -0.28099009      -0.07177181
C       -0.97354462       0.77099773       0.08935722
C        0.34798159       0.45488435       0.50559674
C        1.07054575      -0.78229230       0.16572483
O        0.82503491      -0.33392286      -1.14867678
H       -1.39084159      -0.94186109      -0.60900409
H       -0.20524179       0.75452665      -1.28963619
H       -1.45960187       1.58278735       0.62221856
H        0.93723205       1.28208528       0.88930956
H        0.56736655      -1.71600808       0.41845292
H        2.12949386      -0.79020694       0.42842904
11
Frame=14 idx=004938 GeodesicLength=1.298714469780591 rxn_smarts="[O:1]([C:2]([C@@:3]1([H:9])[C:4]([H:10])([H:11])[O:5]1)([H:7])[H:8])[H:6]>>[O:1](/[C:2](=[C:3](\[C:4]([O:5][H:7])([H:10])[H:11])[H:9])[H:8])[H:6]"
O       -1.84072566      -0.27801440      -0.07227455
C       -0.96880144       0.77991509       0.08258450
C        0.34822512       0.45171981       0.51369088
C        1.07186036      -0.78394024       0.17601427
O        0.79850063      -0.33594155      -1.13676459
H       -1.38519285      -0.92626890      -0.62697756
H       -0.21487743       0.74174021      -1.33460982
H       -1.45635477       1.57754153       0.63611674
H        0.93440670       1.27477651       0.91148793
H        0.57703048      -1.71836476       0.43645685
H        2.13592886      -0.78316331       0.41427535
11
Frame=15 idx=004938 GeodesicLength=1.3917471900124707 rxn_smarts="[O:1]([C:2]([C@@:3]1([H:9])[C:4]([H:10])([H:11])[O:5]1)([H:7])[H:8])[H:6]>>[O:1](/[C:2](=[C:3](\[C:4]([O:5][H:7])([H:10])[H:11])[H:9])[H:8])[H:6]"
O       -1.83305907      -0.27429412      -0.07235442
C       -0.96352298       0.78920662       0.07581872
C        0.34816205       0.44803266       0.52310040
C        1.07348043      -0.78527652       0.18574676
O        0.77294941      -0.33588351      -1.12444558
H       -1.37984970      -0.91088894      -0.64289126
H       -0.22581720       0.72598139      -1.38101474
H       -1.45245748       1.57357765       0.64784967
H        0.93084230       1.26647930       0.93600614
H        0.58731429      -1.72094628       0.45219819
H        2.14195795      -0.77598825       0.39998611
11
Frame=16 idx=004938 GeodesicLength=1.484695736557714 rxn_smarts="[O:1]([C:2]([C@@:3]1([H:9])[C:4]([H:10])([H:11])[O:5]1)([H:7])[H:8])[H:6]>>[O:1](/[C:2](=[C:3](\[C:4]([O:5][H:7])([H:10])[H:11])[H:9])[H:8])[H:6]"
O       -1.82545286      -0.26970123      -0.07206914
C       -0.95764125       0.79891332       0.06905515
C        0.34773806       0.44376907       0.53388683
C        1.07542665      -0.78628793       0.19489489
O        0.74835480      -0.33372836      -1.11177531
H       -1.37476726      -0.89569812      -0.65682317
H       -0.23811611       0.70689509      -1.42885084
H       -1.44787791       1.57106894       0.65752029
H        0.92644031       1.25708832       0.96297936
H        0.59826858      -1.72381447       0.46559561
H        2.14762699      -0.76850463       0.38558634
