13
Frame=0 idx=002742 GeodesicLength=0.0 rxn_smarts="[C:1]1([H:7])([H:8])[N:2]([H:9])[C@:3]1([C@@:4]1([H:11])[C:5]([H:12])([H:13])[O:6]1)[H:10]>>[C:1]1([H:7])([H:8])[N:2]([H:9])[C@:3]1([C@@:4]([C:5][H:13])([O:6][H:12])[H:11])[H:10]"
C       -1.68802795      -0.33784931      -0.03521147
N       -1.17371858       0.94497879       0.44659470
C       -0.50227013       0.28211206      -0.65679422
C        0.86220439      -0.31316723      -0.48988525
C        1.99576536       0.48119952       0.03401513
O        1.08738295      -0.78665507       0.85255165
H       -1.52870357      -1.21381875       0.58372266
H       -2.64739127      -0.29246746      -0.53633680
H       -0.65236987       0.79673783       1.30443751
H       -0.62042716       0.77880079      -1.61569466
H        1.08384653      -1.07002353      -1.24228721
H        2.17024041      -0.66562208       0.85115759
H        1.61346886       1.39577445       0.50373039
13
Frame=1 idx=002742 GeodesicLength=0.04716529237809729 rxn_smarts="[C:1]1([H:7])([H:8])[N:2]([H:9])[C@:3]1([C@@:4]1([H:11])[C:5]([H:12])([H:13])[O:6]1)[H:10]>>[C:1]1([H:7])([H:8])[N:2]([H:9])[C@:3]1([C@@:4]([C:5][H:13])([O:6][H:12])[H:11])[H:10]"
C       -1.68943112      -0.33776061      -0.03573126
N       -1.17648314       0.94624911       0.44426828
C       -0.50440252       0.28267922      -0.65825812
C        0.86012489      -0.31167789      -0.49000822
C        1.99238654       0.47865745       0.04040769
O        1.08931538      -0.77980248       0.85352655
H       -1.52885921      -1.21257995       0.58453108
H       -2.64890114      -0.29425349      -0.53681763
H       -0.65488008       0.79962860       1.30226411
H       -0.62284702       0.77800593      -1.61783476
H        1.08349143      -1.06995955      -1.24041314
H        2.18588400      -0.67481790       0.84560028
H        1.61460200       1.39563154       0.50846514
13
Frame=2 idx=002742 GeodesicLength=0.0943081237464326 rxn_smarts="[C:1]1([H:7])([H:8])[N:2]([H:9])[C@:3]1([C@@:4]1([H:11])[C:5]([H:12])([H:13])[O:6]1)[H:10]>>[C:1]1([H:7])([H:8])[N:2]([H:9])[C@:3]1([C@@:4]([C:5][H:13])([O:6][H:12])[H:11])[H:10]"
C       -1.69083970      -0.33766256      -0.03625510
N       -1.17918941       0.94747655       0.44199569
C       -0.50651842       0.28322678      -0.65970800
C        0.85805429      -0.31023074      -0.49012163
C        1.98902698       0.47604304       0.04675781
O        1.09119658      -0.77315263       0.85444356
H       -1.52906216      -1.21136903       0.58528612
H       -2.65041624      -0.29595941      -0.53729002
H       -0.65732587       0.80241420       1.30012736
H       -0.62523335       0.77723840      -1.61993599
H        1.08313165      -1.06990634      -1.23855643
H        2.20138185      -0.68356032       0.84017183
H        1.61579380       1.39544205       0.51308478
13
Frame=3 idx=002742 GeodesicLength=0.14143007185734852 rxn_smarts="[C:1]1([H:7])([H:8])[N:2]([H:9])[C@:3]1([C@@:4]1([H:11])[C:5]([H:12])([H:13])[O:6]1)[H:10]>>[C:1]1([H:7])([H:8])[N:2]([H:9])[C@:3]1([C@@:4]([C:5][H:13])([O:6][H:12])[H:11])[H:10]"
C       -1.69225739      -0.33755365      -0.03678487
N       -1.18184268       0.94866447       0.43977326
C       -0.50861953       0.28375485      -0.66114363
C        0.85598989      -0.30882715      -0.49022157
C        1.98568188       0.47336090       0.05306412
O        1.09302042      -0.76669702       0.85531199
H       -1.52931749      -1.21018349       0.58598847
H       -2.65193887      -0.29758480      -0.53775944
H       -0.65971533       0.80510042       1.29802604
H       -0.62758533       0.77649638      -1.62199969
H        1.08276475      -1.06986856      -1.23671013
H        2.21678009      -0.69186442       0.83485327
H        1.61703959       1.39520208       0.51760218
13
Frame=4 idx=002742 GeodesicLength=0.18853216660643696 rxn_smarts="[C:1]1([H:7])([H:8])[N:2]([H:9])[C@:3]1([C@@:4]1([H:11])[C:5]([H:12])([H:13])[O:6]1)[H:10]>>[C:1]1([H:7])([H:8])[N:2]([H:9])[C@:3]1([C@@:4]([C:5][H:13])([O:6][H:12])[H:11])[H:10]"
C       -1.69368767      -0.33743249      -0.03732237
N       -1.18444751       0.94981575       0.43759788
C       -0.51070734       0.28426348      -0.66256472
C        0.85392912      -0.30746882      -0.49030457
C        1.98234697       0.47061427       0.05932602
O        1.09478117      -0.76042817       0.85614044
H       -1.52963006      -1.20902127       0.58663835
H       -2.65347124      -0.29912876      -0.53823083
H       -0.66205567       0.80769197       1.29595930
H       -0.62990188       0.77577880      -1.62402679
H        1.08238833      -1.06985094      -1.23486799
H        2.23212059      -0.69974187       0.82962742
H        1.61833518       1.39490805       0.52202787
13
Frame=5 idx=002742 GeodesicLength=0.235612372962563 rxn_smarts="[C:1]1([H:7])([H:8])[N:2]([H:9])[C@:3]1([C@@:4]1([H:11])[C:5]([H:12])([H:13])[O:6]1)[H:10]>>[C:1]1([H:7])([H:8])[N:2]([H:9])[C@:3]1([C@@:4]([C:5][H:13])([O:6][H:12])[H:11])[H:10]"
C       -1.69513381      -0.33729772      -0.03786930
N       -1.18700771       0.95093272       0.43546711
C       -0.51278317       0.28475275      -0.66397097
C        0.85186950      -0.30615785      -0.49036776
C        1.97901864       0.46780491       0.06554337
O        1.09647363      -0.75433984       0.85693630
H       -1.53000450      -1.20788087       0.58723532
H       -2.65501568      -0.30058986      -0.53870852
H       -0.66435304       0.81019234       1.29392657
H       -0.63218178       0.77508536      -1.62601765
H        1.08199985      -1.06985818      -1.23302460
H        2.24744087      -0.70720023       0.82448021
H        1.61967720       1.39455646       0.52636989
13
Frame=6 idx=002742 GeodesicLength=0.28267270506815895 rxn_smarts="[C:1]1([H:7])([H:8])[N:2]([H:9])[C@:3]1([C@@:4]1([H:11])[C:5]([H:12])([H:13])[O:6]1)[H:10]>>[C:1]1([H:7])([H:8])[N:2]([H:9])[C@:3]1([C@@:4]([C:5][H:13])([O:6][H:12])[H:11])[H:10]"
C       -1.69659905      -0.33714804      -0.03842738
N       -1.18952679       0.95201734       0.43337912
C       -0.51484819       0.28522280      -0.66536198
C        0.84980855      -0.30489675      -0.49040840
C        1.97569357       0.46493328       0.07171661
O        1.09809240      -0.74842632       0.85770705
H       -1.53044554      -1.20676133       0.58777843
H       -2.65657446      -0.30196619      -0.53919670
H       -0.66661329       0.81260417       1.29192785
H       -0.63442338       0.77441667      -1.62797231
H        1.08159669      -1.06989542      -1.23117489
H        2.26277693      -0.71424442       0.81939847
H        1.62106257       1.39414422       0.53063412
13
Frame=7 idx=002742 GeodesicLength=0.3296951269772211 rxn_smarts="[C:1]1([H:7])([H:8])[N:2]([H:9])[C@:3]1([C@@:4]1([H:11])[C:5]([H:12])([H:13])[O:6]1)[H:10]>>[C:1]1([H:7])([H:8])[N:2]([H:9])[C@:3]1([C@@:4]([C:5][H:13])([O:6][H:12])[H:11])[H:10]"
C       -1.69808768      -0.33698250      -0.03899781
N       -1.19200803       0.95307166       0.43133332
C       -0.51690313       0.28567417      -0.66673752
C        0.84774508      -0.30368952      -0.49042544
C        1.97237045       0.46199825       0.07784561
O        1.09963458      -0.74268596       0.85845700
H       -1.53095900      -1.20566407       0.58826605
H       -2.65815211      -0.30325474      -0.53969790
H       -0.66884148       0.81492863       1.28996374
H       -0.63662440       0.77377568      -1.62989044
H        1.08117735      -1.06996927      -1.22931607
H        2.27815728      -0.72087055       0.81437596
H        1.62249110       1.39366820       0.53482350
13
Frame=8 idx=002742 GeodesicLength=0.3767065038808769 rxn_smarts="[C:1]1([H:7])([H:8])[N:2]([H:9])[C@:3]1([C@@:4]1([H:11])[C:5]([H:12])([H:13])[O:6]1)[H:10]>>[C:1]1([H:7])([H:8])[N:2]([H:9])[C@:3]1([C@@:4]([C:5][H:13])([O:6][H:12])[H:11])[H:10]"
C       -1.69959476      -0.33680042      -0.03958267
N       -1.19445773       0.95409899       0.42932017
C       -0.51894662       0.28610404      -0.66809418
C        0.84567794      -0.30252931      -0.49039851
C        1.96903965       0.45902126       0.08393984
O        1.10108514      -0.73708550       0.85921667
H       -1.53154065      -1.20457740       0.58870519
H       -2.65973638      -0.30446488      -0.54022377
H       -0.67105134       0.81718136       1.28803129
H       -0.63877966       0.77314727      -1.63177385
H        1.08074452      -1.07007544      -1.22742209
H        2.29361508      -0.72716072       0.80932606
H        1.62394482       1.39314074       0.53895587
13
Frame=9 idx=002742 GeodesicLength=0.4237072256665785 rxn_smarts="[C:1]1([H:7])([H:8])[N:2]([H:9])[C@:3]1([C@@:4]1([H:11])[C:5]([H:12])([H:13])[O:6]1)[H:10]>>[C:1]1([H:7])([H:8])[N:2]([H:9])[C@:3]1([C@@:4]([C:5][H:13])([O:6][H:12])[H:11])[H:10]"
C       -1.70113085      -0.33659986      -0.04018341
N       -1.19687779       0.95510245       0.42733994
C       -0.52098236       0.28651356      -0.66943600
C        0.84360389      -0.30142540      -0.49034102
C        1.96570455       0.45598172       0.08999946
O        1.10245034      -0.73164944       0.85996872
H       -1.53220429      -1.20350626       0.58909256
H       -2.66134510      -0.30558492      -0.54076712
H       -0.67324258       0.81935937       1.28612837
H       -0.64089294       0.77253781      -1.63362533
H        1.08029395      -1.07022415      -1.22550792
H        2.30918759      -0.73304472       0.80429072
H        1.62543559       1.39253984       0.54304104
13
Frame=10 idx=002742 GeodesicLength=0.47070405554172234 rxn_smarts="[C:1]1([H:7])([H:8])[N:2]([H:9])[C@:3]1([C@@:4]1([H:11])[C:5]([H:12])([H:13])[O:6]1)[H:10]>>[C:1]1([H:7])([H:8])[N:2]([H:9])[C@:3]1([C@@:4]([C:5][H:13])([O:6][H:12])[H:11])[H:10]"
C       -1.70270116      -0.33638032      -0.04080161
N       -1.19927476       0.95608688       0.42538663
C       -0.52301289       0.28690376      -0.67076337
C        0.84152267      -0.30037586      -0.49024714
C        1.96236573       0.45288517       0.09602888
O        1.10372955      -0.72636935       0.86072499
H       -1.53295530      -1.20244604       0.58943547
H       -2.66298211      -0.30662021      -0.54133705
H       -0.67542321       0.82146936       1.28425236
H       -0.64296465       0.77194621      -1.63544867
H        1.07982512      -1.07042007      -1.22356151
H        2.32490981      -0.73854580       0.79923631
H        1.62696121       1.39186627       0.54709471
13
Frame=11 idx=002742 GeodesicLength=0.5176132420098262 rxn_smarts="[C:1]1([H:7])([H:8])[N:2]([H:9])[C@:3]1([C@@:4]1([H:11])[C:5]([H:12])([H:13])[O:6]1)[H:10]>>[C:1]1([H:7])([H:8])[N:2]([H:9])[C@:3]1([C@@:4]([C:5][H:13])([O:6][H:12])[H:11])[H:10]"
C       -1.70430258      -0.33614043      -0.04143789
N       -1.20164489       0.95705222       0.42345625
C       -0.52503449       0.28727124      -0.67207770
C        0.83943315      -0.29938429      -0.49011645
C        1.95901243       0.44972226       0.10203739
O        1.10492264      -0.72125547       0.86148676
H       -1.53379562      -1.20139040       0.58974068
H       -2.66464441      -0.30756580      -0.54192975
H       -0.67758929       0.82351523       1.28239915
H       -0.64498906       0.77136243      -1.63724691
H        1.07933724      -1.07065992      -1.22158769
H        2.34077660      -0.74363227       0.79414288
H        1.62851828       1.39110519       0.55113328
13
Frame=12 idx=002742 GeodesicLength=0.5645915025691259 rxn_smarts="[C:1]1([H:7])([H:8])[N:2]([H:9])[C@:3]1([C@@:4]1([H:11])[C:5]([H:12])([H:13])[O:6]1)[H:10]>>[C:1]1([H:7])([H:8])[N:2]([H:9])[C@:3]1([C@@:4]([C:5][H:13])([O:6][H:12])[H:11])[H:10]"
C       -1.70592559      -0.33587640      -0.04209380
N       -1.20399434       0.95800273       0.42154214
C       -0.52704887       0.28761537      -0.67337608
C        0.83732596      -0.29844271      -0.48993700
C        1.95563621       0.44650923       0.10803326
O        1.10600010      -0.71627026       0.86226853
H       -1.53471125      -1.20032495       0.59000312
H       -2.66631519      -0.30843200      -0.54254824
H       -0.67975669       0.82551441       1.28056503
H       -0.64696862       0.77076672      -1.63902220
H        1.07882323      -1.07093722      -1.21957160
H        2.35685031      -0.74838786       0.78896460
H        1.63008473       1.39026292       0.55517224
13
Frame=13 idx=002742 GeodesicLength=0.6115320802325217 rxn_smarts="[C:1]1([H:7])([H:8])[N:2]([H:9])[C@:3]1([C@@:4]1([H:11])[C:5]([H:12])([H:13])[O:6]1)[H:10]>>[C:1]1([H:7])([H:8])[N:2]([H:9])[C@:3]1([C@@:4]([C:5][H:13])([O:6][H:12])[H:11])[H:10]"
C       -1.70758995      -0.33558958      -0.04277016
N       -1.20633081       0.95894576       0.41964143
C       -0.52905769       0.28794151      -0.67466078
C        0.83521109      -0.29755771      -0.48970834
C        1.95225234       0.44323336       0.11402330
O        1.10698158      -0.71143711       0.86307739
H       -1.53572478      -1.19926492       0.59022659
H       -2.66802330      -0.30921416      -0.54319767
H       -0.68192732       0.82746549       1.27874957
H       -0.64890471       0.77017089      -1.64078112
H        1.07828893      -1.07126744      -1.21750840
H        2.37313953      -0.75276060       0.78368826
H        1.63168509       1.38933452       0.55921993
13
Frame=14 idx=002742 GeodesicLength=0.6584608532515336 rxn_smarts="[C:1]1([H:7])([H:8])[N:2]([H:9])[C@:3]1([C@@:4]1([H:11])[C:5]([H:12])([H:13])[O:6]1)[H:10]>>[C:1]1([H:7])([H:8])[N:2]([H:9])[C@:3]1([C@@:4]([C:5][H:13])([O:6][H:12])[H:11])[H:10]"
C       -1.70929213      -0.33527691      -0.04346843
N       -1.20865396       0.95988093       0.41775250
C       -0.53106039       0.28824676      -0.67593078
C        0.83308212      -0.29673169      -0.48942672
C        1.94885185       0.43989235       0.12001202
O        1.10785841      -0.70674988       0.86391736
H       -1.53683605      -1.19819937       0.59041417
H       -2.66975797      -0.30991043      -0.54388535
H       -0.68410641       0.82937012       1.27695229
H       -0.65079357       0.76957050      -1.64252139
H        1.07772730      -1.07165378      -1.21539155
H        2.38967295      -0.75675022       0.77829126
H        1.63330785       1.38831162       0.56328462
13
Frame=15 idx=002742 GeodesicLength=0.7053857613045688 rxn_smarts="[C:1]1([H:7])([H:8])[N:2]([H:9])[C@:3]1([C@@:4]1([H:11])[C:5]([H:12])([H:13])[O:6]1)[H:10]>>[C:1]1([H:7])([H:8])[N:2]([H:9])[C@:3]1([C@@:4]([C:5][H:13])([O:6][H:12])[H:11])[H:10]"
C       -1.71103500      -0.33493598      -0.04418973
N       -1.21096659       0.96081173       0.41587198
C       -0.53305742       0.28853069      -0.67718523
C        0.83093633      -0.29596706      -0.48908525
C        1.94543149       0.43648480       0.12600681
O        1.10862745      -0.70220545       0.86479863
H       -1.53805012      -1.19712516       0.59056619
H       -2.67151879      -0.31052286      -0.54461940
H       -0.68629862       0.83123501       1.27517167
H       -0.65263258       0.76896329      -1.64424335
H        1.07713485      -1.07210332      -1.21321016
H        2.40647827      -0.76035664       0.77273909
H        1.63495073       1.38719095       0.56737874
13
Frame=16 idx=002742 GeodesicLength=0.7523087130025087 rxn_smarts="[C:1]1([H:7])([H:8])[N:2]([H:9])[C@:3]1([C@@:4]1([H:11])[C:5]([H:12])([H:13])[O:6]1)[H:10]>>[C:1]1([H:7])([H:8])[N:2]([H:9])[C@:3]1([C@@:4]([C:5][H:13])([O:6][H:12])[H:11])[H:10]"
C       -1.71282089      -0.33456449      -0.04493471
N       -1.21327109       0.96174275       0.41399326
C       -0.53504875       0.28879093      -0.67842473
C        0.82877269      -0.29526569      -0.48867827
C        1.94198805       0.43300769       0.13201963
O        1.10928444      -0.69780582       0.86572844
H       -1.53937140      -1.19603640       0.59068761
H       -2.67330793      -0.31105101      -0.54540081
H       -0.68850973       0.83306831       1.27340372
H       -0.65441906       0.76834059      -1.64595108
H        1.07651474      -1.07261580      -1.21095936
H        2.42357951      -0.76357741       0.76699728
H        1.63660945       1.38596634       0.57151903
