17
Frame=0 idx=007044 GeodesicLength=0.0 rxn_smarts="[C:1]([C@:2]12[C:3]([H:11])([H:12])[C:4]([H:13])([H:14])[C@@:5]1([H:15])[C:6]([H:16])([H:17])[O:7]2)([H:8])([H:9])[H:10]>>[C:1]([C:2]1([C:3]([H:11])([H:12])[H:14])[C@:5]([C:4][H:13])([H:15])[C:6]([H:16])([H:17])[O:7]1)([H:8])([H:9])[H:10]"
C        1.73417642       0.33154240      -0.70571335
C        0.46514674       0.05267780       0.05277028
C        0.27741753      -1.41359754       0.47187435
C       -1.59726358      -0.90708098      -0.57086665
C       -0.90475120       0.43255172      -0.54311999
C       -1.00530108       1.36101591       0.67377830
O        0.28273181       0.94353175       1.16350954
H        2.59766152       0.10977619      -0.07348366
H        1.78815419      -0.29288415      -1.59987060
H        1.78093281       1.37959608      -1.00284256
H        1.07631492      -2.09409360       0.17028185
H        0.06126066      -1.51939986       1.53084680
H       -2.22684956      -1.02837444       0.32596779
H       -0.59000338      -1.84696943      -0.21177296
H       -0.91748891       0.93010479      -1.51315878
H       -1.80696514       1.13001851       1.38231030
H       -1.01517372       2.43158492       0.44948927
17
Frame=1 idx=007044 GeodesicLength=0.05725216301879307 rxn_smarts="[C:1]([C@:2]12[C:3]([H:11])([H:12])[C:4]([H:13])([H:14])[C@@:5]1([H:15])[C:6]([H:16])([H:17])[O:7]2)([H:8])([H:9])[H:10]>>[C:1]([C:2]1([C:3]([H:11])([H:12])[H:14])[C@:5]([C:4][H:13])([H:15])[C:6]([H:16])([H:17])[O:7]1)([H:8])([H:9])[H:10]"
C        1.73311074       0.33157144      -0.70804422
C        0.46621527       0.05270415       0.05381768
C        0.27222789      -1.41269056       0.47102806
C       -1.59204366      -0.90695722      -0.56139447
C       -0.90642506       0.43457477      -0.54120926
C       -1.00354740       1.36304824       0.67548182
O        0.28464151       0.94491768       1.16356105
H        2.59775994       0.10971484      -0.07748383
H        1.78545780      -0.29270958      -1.60235260
H        1.77908212       1.37962339      -1.00530052
H        1.08428436      -2.08692897       0.19169276
H        0.04370910      -1.51982502       1.52759551
H       -2.22850785      -1.02798750       0.33007944
H       -0.58137360      -1.86547138      -0.24167496
H       -0.91698396       0.93018735      -1.51207943
H       -1.80422119       1.13270418       1.38537911
H       -1.01338601       2.43352418       0.45090387
17
Frame=2 idx=007044 GeodesicLength=0.11448492085934527 rxn_smarts="[C:1]([C@:2]12[C:3]([H:11])([H:12])[C:4]([H:13])([H:14])[C@@:5]1([H:15])[C:6]([H:16])([H:17])[O:7]2)([H:8])([H:9])[H:10]>>[C:1]([C:2]1([C:3]([H:11])([H:12])[H:14])[C@:5]([C:4][H:13])([H:15])[C:6]([H:16])([H:17])[O:7]1)([H:8])([H:9])[H:10]"
C        1.73210022       0.33161660      -0.71026342
C        0.46734971       0.05274809       0.05497120
C        0.26717944      -1.41183604       0.47017095
C       -1.58650442      -0.90715825      -0.55183502
C       -0.90808810       0.43643569      -0.53927192
C       -1.00185069       1.36502881       0.67711773
O        0.28648051       0.94634139       1.16366266
H        2.59789010       0.10958358      -0.08137721
H        1.78281656      -0.29245677      -1.60476329
H        1.77728215       1.37968060      -1.00759710
H        1.09124532      -2.07987138       0.21230834
H        0.02712667      -1.52025484       1.52437931
H       -2.23038989      -1.02747450       0.33387949
H       -0.57290569      -1.88311127      -0.27085596
H       -0.91646527       0.93000213      -1.51101772
H       -1.80156661       1.13533673       1.38833962
H       -1.01170003       2.43538941       0.45215235
17
Frame=3 idx=007044 GeodesicLength=0.17170223878113217 rxn_smarts="[C:1]([C@:2]12[C:3]([H:11])([H:12])[C:4]([H:13])([H:14])[C@@:5]1([H:15])[C:6]([H:16])([H:17])[O:7]2)([H:8])([H:9])[H:10]>>[C:1]([C:2]1([C:3]([H:11])([H:12])[H:14])[C@:5]([C:4][H:13])([H:15])[C:6]([H:16])([H:17])[O:7]1)([H:8])([H:9])[H:10]"
C        1.73114097       0.33167466      -0.71238198
C        0.46854770       0.05280812       0.05622436
C        0.26228203      -1.41101837       0.46933543
C       -1.58068282      -0.90763877      -0.54221176
C       -0.90973737       0.43814532      -0.53731014
C       -1.00020917       1.36695704       0.67869320
O        0.28825997       0.94781147       1.16380408
H        2.59805278       0.10938944      -0.08517756
H        1.78022426      -0.29213519      -1.60710940
H        1.77553024       1.37976205      -1.00975188
H        1.09729650      -2.07293357       0.23216380
H        0.01143735      -1.52066886       1.52123738
H       -2.23246505      -1.02685200       0.33736360
H       -0.56463622      -1.89996864      -0.29937116
H       -0.91592743       0.92957831      -1.50996646
H       -1.79899074       1.13790687       1.39120648
H       -1.01012300       2.43718210       0.45325199
17
Frame=4 idx=007044 GeodesicLength=0.22890701492236393 rxn_smarts="[C:1]([C@:2]12[C:3]([H:11])([H:12])[C:4]([H:13])([H:14])[C@@:5]1([H:15])[C:6]([H:16])([H:17])[O:7]2)([H:8])([H:9])[H:10]>>[C:1]([C:2]1([C:3]([H:11])([H:12])[H:14])[C@:5]([C:4][H:13])([H:15])[C:6]([H:16])([H:17])[O:7]1)([H:8])([H:9])[H:10]"
C        1.73022936       0.33174256      -0.71440939
C        0.46980683       0.05288335       0.05757145
C        0.25754159      -1.41022379       0.46854912
C       -1.57461194      -0.90835852      -0.53254286
C       -0.91137067       0.43971397      -0.53532559
C       -0.99862105       1.36883355       0.68021448
O        0.28998946       0.94933543       1.16397648
H        2.59824808       0.10913864      -0.08889626
H        1.77767533      -0.29175405      -1.60939616
H        1.77382397       1.37986244      -1.01178217
H        1.10252798      -2.06612489       0.25129587
H       -0.00342891      -1.52105040       1.51820123
H       -2.23470249      -1.02613841       0.34053157
H       -0.55659669      -1.91611427      -0.32727808
H       -0.91536634       0.92894140      -1.50891957
H       -1.79648436       1.14040835       1.39399225
H       -1.00866014       2.43890464       0.45421763
17
Frame=5 idx=007044 GeodesicLength=0.28610133413918026 rxn_smarts="[C:1]([C@:2]12[C:3]([H:11])([H:12])[C:4]([H:13])([H:14])[C@@:5]1([H:15])[C:6]([H:16])([H:17])[O:7]2)([H:8])([H:9])[H:10]>>[C:1]([C:2]1([C:3]([H:11])([H:12])[H:14])[C@:5]([C:4][H:13])([H:15])[C:6]([H:16])([H:17])[O:7]1)([H:8])([H:9])[H:10]"
C        1.72936200       0.33181728      -0.71635403
C        0.47112476       0.05297336       0.05900740
C        0.25296110      -1.40944016       0.46783580
C       -1.56832098      -0.90928194      -0.52284259
C       -0.91298634       0.44115136      -0.53331956
C       -0.99708457       1.37065971       0.68168724
O        0.29167736       0.95091998       1.16417216
H        2.59847569       0.10883669      -0.09254300
H        1.77516464      -0.29132262      -1.61162763
H        1.77216116       1.37997662      -1.01370375
H        1.10702188      -2.05945161       0.26974274
H       -0.01753654      -1.52138555       1.51529642
H       -2.23707224      -1.02535299       0.34338549
H       -0.54881434      -1.93161072      -0.35463537
H       -0.91477894       0.92811398      -1.50787178
H       -1.79403930       1.14283675       1.39670807
H       -1.00731534       2.44055987       0.45506239
17
Frame=6 idx=007044 GeodesicLength=0.3432870034461255 rxn_smarts="[C:1]([C@:2]12[C:3]([H:11])([H:12])[C:4]([H:13])([H:14])[C@@:5]1([H:15])[C:6]([H:16])([H:17])[O:7]2)([H:8])([H:9])[H:10]>>[C:1]([C:2]1([C:3]([H:11])([H:12])[H:14])[C@:5]([C:4][H:13])([H:15])[C:6]([H:16])([H:17])[O:7]1)([H:8])([H:9])[H:10]"
C        1.72853576       0.33189575      -0.71822343
C        0.47249939       0.05307819       0.06052786
C        0.24854137      -1.40865660       0.46721627
C       -1.56183530      -0.91037777      -0.51312232
C       -0.91458307       0.44246662      -0.53129294
C       -0.99559803       1.37243723       0.68311670
O        0.29333118       0.95257134       1.16438438
H        2.59873513       0.10848840      -0.09612623
H        1.77268742      -0.29085027      -1.61380689
H        1.77053980       1.38009947      -1.01553127
H        1.11085280      -2.05291733       0.28754349
H       -0.03094462      -1.52166251       1.51254397
H       -2.23954594      -1.02451516       0.34592865
H       -0.54131291      -1.94651294      -0.38150200
H       -0.91416289       0.92711614      -1.50681835
H       -1.79164821       1.14518866       1.39936404
H       -1.00609185       2.44215079       0.45579810
17
Frame=7 idx=007044 GeodesicLength=0.40046534973584186 rxn_smarts="[C:1]([C@:2]12[C:3]([H:11])([H:12])[C:4]([H:13])([H:14])[C@@:5]1([H:15])[C:6]([H:16])([H:17])[O:7]2)([H:8])([H:9])[H:10]>>[C:1]([C:2]1([C:3]([H:11])([H:12])[H:14])[C@:5]([C:4][H:13])([H:15])[C:6]([H:16])([H:17])[O:7]1)([H:8])([H:9])[H:10]"
C        1.72774777       0.33197499      -0.72002419
C        0.47392876       0.05319811       0.06212905
C        0.24428174      -1.40786347       0.46670875
C       -1.55517694      -0.91161872      -0.50339088
C       -0.91615985       0.44366811      -0.52924631
C       -0.99415985       1.37416810       0.68450758
O        0.29495751       0.95429509       1.16460722
H        2.59902575       0.10809809      -0.09965318
H        1.77023931      -0.29034615      -1.61593623
H        1.76895806       1.38022607      -1.01727809
H        1.11408836      -2.04652357       0.30473703
H       -0.04370672      -1.52187127       1.50996123
H       -2.24209708      -1.02364395       0.34816543
H       -0.53411359      -1.96086907      -0.40793654
H       -0.91351653       0.92596547      -1.50575517
H       -1.78930456       1.14746173       1.40196910
H       -1.00499213       2.44368044       0.45643519
17
Frame=8 idx=007044 GeodesicLength=0.45763757784140047 rxn_smarts="[C:1]([C@:2]12[C:3]([H:11])([H:12])[C:4]([H:13])([H:14])[C@@:5]1([H:15])[C:6]([H:16])([H:17])[O:7]2)([H:8])([H:9])[H:10]>>[C:1]([C:2]1([C:3]([H:11])([H:12])[H:14])[C@:5]([C:4][H:13])([H:15])[C:6]([H:16])([H:17])[O:7]1)([H:8])([H:9])[H:10]"
C        1.72699545       0.33205206      -0.72176222
C        0.47541120       0.05333363       0.06380775
C        0.24018054      -1.40705215       0.46632942
C       -1.54836487      -0.91298105      -0.49365515
C       -0.91771583       0.44476348      -0.52717998
C       -0.99276851       1.37585437       0.68586422
O        0.29656230       0.95609641       1.16483546
H        2.59934690       0.10766969      -0.10313009
H        1.76781638      -0.28981943      -1.61801718
H        1.76741423       1.38035159      -1.01895667
H        1.11678991      -2.04027007       0.32136202
H       -0.05587156      -1.52200320       1.50756274
H       -2.24470123      -1.02275770       0.35010068
H       -0.52723557      -1.97472104      -0.43399689
H       -0.91283865       0.92467749      -1.50467851
H       -1.78700239       1.14965414       1.40453139
H       -1.00401830       2.44515178       0.45698304
17
Frame=9 idx=007044 GeodesicLength=0.5148046664614038 rxn_smarts="[C:1]([C@:2]12[C:3]([H:11])([H:12])[C:4]([H:13])([H:14])[C@@:5]1([H:15])[C:6]([H:16])([H:17])[O:7]2)([H:8])([H:9])[H:10]>>[C:1]([C:2]1([C:3]([H:11])([H:12])[H:14])[C@:5]([C:4][H:13])([H:15])[C:6]([H:16])([H:17])[O:7]1)([H:8])([H:9])[H:10]"
C        1.72627650       0.33212409      -0.72344272
C        0.47694527       0.05348536       0.06556121
C        0.23623548      -1.40621496       0.46609269
C       -1.54141531      -0.91444424      -0.48392030
C       -0.91925030       0.44575956      -0.52509402
C       -0.99142262       1.37749806       0.68719054
O        0.29815083       0.95798006       1.16506443
H        2.59969793       0.10720687      -0.10656228
H        1.76541519      -0.28927903      -1.62005069
H        1.76590670       1.38047138      -1.02057850
H        1.11901308      -2.03415512       0.33745623
H       -0.06748306      -1.52205080       1.50536079
H       -2.24733595      -1.02187383       0.35173970
H       -0.52069679      -1.98810525      -0.45974006
H       -0.91212844       0.92326568      -1.50358507
H       -1.78473637       1.15176459       1.40705819
H       -1.00317215       2.44656756       0.45744986
17
Frame=10 idx=007044 GeodesicLength=0.5719670538896217 rxn_smarts="[C:1]([C@:2]12[C:3]([H:11])([H:12])[C:4]([H:13])([H:14])[C@@:5]1([H:15])[C:6]([H:16])([H:17])[O:7]2)([H:8])([H:9])[H:10]>>[C:1]([C:2]1([C:3]([H:11])([H:12])[H:14])[C@:5]([C:4][H:13])([H:15])[C:6]([H:16])([H:17])[O:7]1)([H:8])([H:9])[H:10]"
C        1.72558896       0.33218835      -0.72507022
C        0.47852981       0.05365405       0.06738718
C        0.23244407      -1.40534499       0.46601170
C       -1.53434203      -0.91599063      -0.47419015
C       -0.92076254       0.44666241      -0.52298839
C       -0.99012094       1.37910112       0.68849003
O        0.29972783       0.95995051       1.16528992
H        2.60007831       0.10671305      -0.10995417
H        1.76303278      -0.28873354      -1.62203714
H        1.76443410       1.38058100      -1.02215407
H        1.12080813      -2.02817609       0.35305575
H       -0.07858035      -1.52200734       1.50336617
H       -2.24998093      -1.02100869       0.35308785
H       -0.51451480      -2.00105319      -0.48522141
H       -0.91138521       0.92174170      -1.50247199
H       -1.78250171       1.15379198       1.40955603
H       -1.00245547       2.44793032       0.45784292
17
Frame=11 idx=007044 GeodesicLength=0.629125325857852 rxn_smarts="[C:1]([C@:2]12[C:3]([H:11])([H:12])[C:4]([H:13])([H:14])[C@@:5]1([H:15])[C:6]([H:16])([H:17])[O:7]2)([H:8])([H:9])[H:10]>>[C:1]([C:2]1([C:3]([H:11])([H:12])[H:14])[C@:5]([C:4][H:13])([H:15])[C:6]([H:16])([H:17])[O:7]1)([H:8])([H:9])[H:10]"
C        1.72493111       0.33224206      -0.72664881
C        0.48016394       0.05384048       0.06928375
C        0.22880360      -1.40443596       0.46609852
C       -1.52715652      -0.91760512      -0.46446746
C       -0.92225189       0.44747740      -0.52086286
C       -0.98886235       1.38066529       0.68976596
O        0.30129768       0.96201204       1.16550804
H        2.60048762       0.10619157      -0.11330960
H        1.76066657      -0.28819171      -1.62397644
H        1.76299502       1.38067596      -1.02369357
H        1.12222103      -2.02232912       0.36819643
H       -0.08919922      -1.52186665       1.50158831
H       -2.25261762      -1.02017766       0.35415035
H       -0.50870644      -2.01359168      -0.51049587
H       -0.91060857       0.92011571      -1.50133660
H       -1.78029386       1.15573516       1.41203104
H       -1.00187010       2.44924222       0.45816882
17
Frame=12 idx=007044 GeodesicLength=0.6862807233129671 rxn_smarts="[C:1]([C@:2]12[C:3]([H:11])([H:12])[C:4]([H:13])([H:14])[C@@:5]1([H:15])[C:6]([H:16])([H:17])[O:7]2)([H:8])([H:9])[H:10]>>[C:1]([C:2]1([C:3]([H:11])([H:12])[H:14])[C@:5]([C:4][H:13])([H:15])[C:6]([H:16])([H:17])[O:7]1)([H:8])([H:9])[H:10]"
C        1.72430151       0.33228262      -0.72818194
C        0.48184697       0.05404547       0.07124955
C        0.22531161      -1.40348257       0.46636436
C       -1.51986851      -0.91927489      -0.45475369
C       -0.92371780       0.44820918      -0.51871709
C       -0.98764593       1.38219256       0.69102118
O        0.30286403       0.96416873       1.16571565
H        2.60092557       0.10564563      -0.11663142
H        1.75831468      -0.28766198      -1.62586817
H        1.76158811       1.38075223      -1.02520624
H        1.12329370      -2.01661015       0.38291205
H       -0.09937121      -1.52162364       1.50003598
H       -2.25522904      -1.01939520       0.35493297
H       -0.50328864      -2.02574381      -0.53561789
H       -0.90979833       0.91839621      -1.50017682
H       -1.77810900       1.15759395       1.41448860
H       -1.00141771       2.45050567       0.45843293
17
Frame=13 idx=007044 GeodesicLength=0.7434312929727558 rxn_smarts="[C:1]([C@:2]12[C:3]([H:11])([H:12])[C:4]([H:13])([H:14])[C@@:5]1([H:15])[C:6]([H:16])([H:17])[O:7]2)([H:8])([H:9])[H:10]>>[C:1]([C:2]1([C:3]([H:11])([H:12])[H:14])[C@:5]([C:4][H:13])([H:15])[C:6]([H:16])([H:17])[O:7]1)([H:8])([H:9])[H:10]"
C        1.72369983       0.33230766      -0.72967327
C        0.48357881       0.05427014       0.07328316
C        0.22196506      -1.40247893       0.46681974
C       -1.51248586      -0.92099007      -0.44505005
C       -0.92515940       0.44886118      -0.51655041
C       -0.98647068       1.38368359       0.69225877
O        0.30443115       0.96642509       1.16590887
H        2.60139292       0.10507939      -0.11992300
H        1.75597601      -0.28715299      -1.62771160
H        1.76021350       1.38080543      -1.02670181
H        1.12406384      -2.01101312       0.39723729
H       -0.10912678      -1.52127190       1.49871634
H       -2.25780125      -1.01867575       0.35544029
H       -0.49827973      -2.03752708      -0.56064003
H       -0.90895378       0.91659005      -1.49899015
H       -1.77594323       1.15936586       1.41693476
H       -1.00110044       2.45172143       0.45864109
17
Frame=14 idx=007044 GeodesicLength=0.8005834404880852 rxn_smarts="[C:1]([C@:2]12[C:3]([H:11])([H:12])[C:4]([H:13])([H:14])[C@@:5]1([H:15])[C:6]([H:16])([H:17])[O:7]2)([H:8])([H:9])[H:10]>>[C:1]([C:2]1([C:3]([H:11])([H:12])[H:14])[C@:5]([C:4][H:13])([H:15])[C:6]([H:16])([H:17])[O:7]1)([H:8])([H:9])[H:10]"
C        1.72312168       0.33231210      -0.73112802
C        0.48535944       0.05451518       0.07538473
C        0.21876122      -1.40142076       0.46747751
C       -1.50501079      -0.92274186      -0.43535930
C       -0.92657568       0.44943831      -0.51436098
C       -0.98533494       1.38513983       0.69348324
O        0.30600406       0.96878552       1.16608432
H        2.60188769       0.10449166      -0.12319160
H        1.75364172      -0.28667665      -1.62950703
H        1.75886761       1.38082891      -1.02819276
H        1.12456929      -2.00552921       0.41122338
H       -0.11850271      -1.52080407       1.49763723
H       -2.26031654      -1.01803444       0.35567199
H       -0.49368419      -2.04895086      -0.58562770
H       -0.90807691       0.91470739      -1.49777249
H       -1.77378998       1.16104703       1.41937647
H       -1.00092096       2.45289191       0.45880102
17
Frame=15 idx=007044 GeodesicLength=0.857732290660522 rxn_smarts="[C:1]([C@:2]12[C:3]([H:11])([H:12])[C:4]([H:13])([H:14])[C@@:5]1([H:15])[C:6]([H:16])([H:17])[O:7]2)([H:8])([H:9])[H:10]>>[C:1]([C:2]1([C:3]([H:11])([H:12])[H:14])[C@:5]([C:4][H:13])([H:15])[C:6]([H:16])([H:17])[O:7]1)([H:8])([H:9])[H:10]"
C        1.72256854       0.33229482      -0.73254436
C        0.48718860       0.05478137       0.07755306
C        0.21569999      -1.40030203       0.46834400
C       -1.49745214      -0.92452018      -0.42567687
C       -0.92796685       0.44994143      -0.51214853
C       -0.98423862       1.38656090       0.69469319
O        0.30758415       0.97125142       1.16623850
H        2.60241103       0.10388932      -0.12643185
H        1.75131751      -0.28623846      -1.63124802
H        1.75754940       1.38081853      -1.02968196
H        1.12484059      -2.00015284       0.42488149
H       -0.12750854      -1.52021680       1.49680345
H       -2.26276320      -1.01747955       0.35563864
H       -0.48953458      -2.06002963      -0.61062246
H       -0.90716726       0.91274801      -1.49652237
H       -1.77164803       1.16263954       1.42181279
H       -1.00088061       2.45401415       0.45891131
17
Frame=16 idx=007044 GeodesicLength=0.9148788992010266 rxn_smarts="[C:1]([C@:2]12[C:3]([H:11])([H:12])[C:4]([H:13])([H:14])[C@@:5]1([H:15])[C:6]([H:16])([H:17])[O:7]2)([H:8])([H:9])[H:10]>>[C:1]([C:2]1([C:3]([H:11])([H:12])[H:14])[C@:5]([C:4][H:13])([H:15])[C:6]([H:16])([H:17])[O:7]1)([H:8])([H:9])[H:10]"
C        1.72204112       0.33225448      -0.73392559
C        0.48906668       0.05506953       0.07978777
C        0.21277911      -1.39912170       0.46942902
C       -1.48981357      -0.92632265      -0.41600206
C       -0.92933126       0.45037253      -0.50991353
C       -0.98318174       1.38794999       0.69589162
O        0.30917298       0.97382829       1.16637027
H        2.60296384       0.10327759      -0.12964486
H        1.74900553      -0.28584702      -1.63293526
H        1.75625921       1.38077332      -1.03117927
H        1.12490694      -1.99488125       0.43824360
H       -0.13616724      -1.51950805       1.49622421
H       -2.26512903      -1.01702476       0.35534782
H       -0.48585195      -2.07077421      -0.63567864
H       -0.90622270       0.91071636      -1.49524136
H       -1.76951594       1.16414398       1.42425047
H       -1.00098197       2.45509355       0.45897582
