12
Frame=0 idx=003841 GeodesicLength=0.0 rxn_smarts="[N:1]#[C:2][C:3]([C@@:4]1([H:9])[C:5]([H:10])([H:11])[N:6]1[H:12])([H:7])[H:8]>>[N:1](=[C:2]=[C:3]([C@@:4]1([H:9])[C:5]([H:10])([H:11])[N:6]1[H:12])[H:8])[H:7]"
N       -3.22393853       0.18475646      -0.55722955
C       -2.09168718       0.46013279      -0.25565139
C       -0.74808208       0.71361444      -0.14373154
C        0.20730075      -0.31638993       0.32107555
C        1.60816778      -0.37226051      -0.15521603
N        1.30186972       0.15448537       1.17005308
H       -1.94548582       0.21986836      -1.39808902
H       -0.41094753       1.72088913      -0.34648419
H       -0.24826072      -1.26772865       0.57911125
H        1.95408925       0.36696618      -0.86895061
H        2.08121960      -1.34493875      -0.23899767
H        1.51575480      -0.51939493       1.89411016
12
Frame=1 idx=003841 GeodesicLength=0.08883441004102123 rxn_smarts="[N:1]#[C:2][C:3]([C@@:4]1([H:9])[C:5]([H:10])([H:11])[N:6]1[H:12])([H:7])[H:8]>>[N:1](=[C:2]=[C:3]([C@@:4]1([H:9])[C:5]([H:10])([H:11])[N:6]1[H:12])[H:8])[H:7]"
N       -3.19252136       0.13925398      -0.65624461
C       -2.09355013       0.43277984      -0.26606460
C       -0.76021421       0.71724809      -0.10798102
C        0.20155099      -0.30797730       0.35662196
C        1.58007358      -0.39486863      -0.17587664
N        1.33553457       0.17220978       1.14561911
H       -1.88043502       0.27817110      -1.43964844
H       -0.45752517       1.74914083      -0.22381596
H       -0.24972932      -1.24706971       0.66323389
H        1.90517697       0.31991302      -0.92345714
H        2.03909715      -1.37490126      -0.25113887
H        1.57254194      -0.48389972       1.87875233
12
Frame=2 idx=003841 GeodesicLength=0.17788508758180388 rxn_smarts="[N:1]#[C:2][C:3]([C@@:4]1([H:9])[C:5]([H:10])([H:11])[N:6]1[H:12])([H:7])[H:8]>>[N:1](=[C:2]=[C:3]([C@@:4]1([H:9])[C:5]([H:10])([H:11])[N:6]1[H:12])[H:8])[H:7]"
N       -3.15521542       0.10312419      -0.75370664
C       -2.09353069       0.40223318      -0.27738528
C       -0.77266679       0.71842389      -0.07516930
C        0.19710098      -0.30017736       0.39006998
C        1.55157600      -0.41712994      -0.19484411
N        1.36612880       0.19027502       1.11836428
H       -1.81674289       0.33936954      -1.47428696
H       -0.50942473       1.76734646      -0.10348126
H       -0.24714497      -1.22589635       0.74440360
H        1.85408168       0.27265626      -0.97466309
H        1.99892888      -1.40326209      -0.25933379
H        1.62690915      -0.44696279       1.86003258
12
Frame=3 idx=003841 GeodesicLength=0.2672182452683159 rxn_smarts="[N:1]#[C:2][C:3]([C@@:4]1([H:9])[C:5]([H:10])([H:11])[N:6]1[H:12])([H:7])[H:8]>>[N:1](=[C:2]=[C:3]([C@@:4]1([H:9])[C:5]([H:10])([H:11])[N:6]1[H:12])[H:8])[H:7]"
N       -3.11107398       0.07121763      -0.84866858
C       -2.09163164       0.37078961      -0.28997694
C       -0.78522144       0.71847204      -0.04469869
C        0.19358627      -0.29254122       0.42122793
C        1.52269711      -0.43948734      -0.21216173
N        1.39363418       0.20862150       1.08832100
H       -1.75453302       0.40514825      -1.50215037
H       -0.56576875       1.77641759       0.01430278
H       -0.24156804      -1.20346358       0.82243085
H        1.80122536       0.22419762      -1.02292300
H        1.96016581      -1.43075538      -0.26372905
H        1.67848815      -0.40861670       1.83802580
12
Frame=4 idx=003841 GeodesicLength=0.3570567915484426 rxn_smarts="[N:1]#[C:2][C:3]([C@@:4]1([H:9])[C:5]([H:10])([H:11])[N:6]1[H:12])([H:7])[H:8]>>[N:1](=[C:2]=[C:3]([C@@:4]1([H:9])[C:5]([H:10])([H:11])[N:6]1[H:12])[H:8])[H:7]"
N       -3.06021037       0.04303060      -0.94116860
C       -2.08757636       0.33833718      -0.30423587
C       -0.79756067       0.71754692      -0.01712292
C        0.19097540      -0.28501262       0.45002564
C        1.49371304      -0.46242579      -0.22787158
N        1.41823063       0.22753362       1.05522931
H       -1.69497258       0.47686909      -1.52360912
H       -0.62688597       1.77610416       0.13089747
H       -0.23317760      -1.17946059       0.89760292
H        1.74687615       0.17339101      -1.06869427
H        1.92311517      -1.45785716      -0.26382065
H        1.72747316      -0.36805643       1.81276767
12
Frame=5 idx=003841 GeodesicLength=0.4473553457245085 rxn_smarts="[N:1]#[C:2][C:3]([C@@:4]1([H:9])[C:5]([H:10])([H:11])[N:6]1[H:12])([H:7])[H:8]>>[N:1](=[C:2]=[C:3]([C@@:4]1([H:9])[C:5]([H:10])([H:11])[N:6]1[H:12])[H:8])[H:7]"
N       -3.00117080       0.01511952      -1.03121707
C       -2.08176583       0.30719568      -0.31958987
C       -0.80973880       0.71678052       0.00864001
C        0.18886895      -0.27727059       0.47655214
C        1.46444656      -0.48584860      -0.24199139
N        1.43985404       0.24655634       1.01945420
H       -1.63839006       0.55452197      -1.53770123
H       -0.69119223       1.76694157       0.24420459
H       -0.22282537      -1.15363608       0.96940357
H        1.69105544       0.12036923      -1.11173326
H        1.88726296      -1.48455280      -0.26027207
H        1.77359513      -0.32617676       1.78425038
12
Frame=6 idx=003841 GeodesicLength=0.537297637596465 rxn_smarts="[N:1]#[C:2][C:3]([C@@:4]1([H:9])[C:5]([H:10])([H:11])[N:6]1[H:12])([H:7])[H:8]>>[N:1](=[C:2]=[C:3]([C@@:4]1([H:9])[C:5]([H:10])([H:11])[N:6]1[H:12])[H:8])[H:7]"
N       -2.94387328       0.00510993      -1.11473144
C       -2.07451001       0.27257012      -0.33536235
C       -0.82224889       0.71326509       0.03133969
C        0.18779905      -0.27073675       0.50010196
C        1.43704624      -0.50812943      -0.25390178
N        1.45759875       0.26567551       0.98275926
H       -1.58537784       0.62682186      -1.54543400
H       -0.75669287       1.74694520       0.34825043
H       -0.20910119      -1.12864149       1.03574464
H        1.63703660       0.06851177      -1.14984558
H        1.85694257      -1.50815055      -0.25306458
H        1.81538087      -0.28324126       1.75414377
12
Frame=7 idx=003841 GeodesicLength=0.6274851960879333 rxn_smarts="[N:1]#[C:2][C:3]([C@@:4]1([H:9])[C:5]([H:10])([H:11])[N:6]1[H:12])([H:7])[H:8]>>[N:1](=[C:2]=[C:3]([C@@:4]1([H:9])[C:5]([H:10])([H:11])[N:6]1[H:12])[H:8])[H:7]"
N       -2.88326096       0.00040378      -1.19373253
C       -2.06580362       0.23827855      -0.35205796
C       -0.83479199       0.70930046       0.05227498
C        0.18713389      -0.26438532       0.52155969
C        1.41031560      -0.53027438      -0.26407797
N        1.47238281       0.28461698       0.94465348
H       -1.53540924       0.70041237      -1.54713049
H       -0.82329270       1.71881748       0.44605029
H       -0.19359938      -1.10289333       1.09813842
H        1.58296838       0.01571912      -1.18454358
H        1.82928427      -1.53041946      -0.24295409
H        1.85407295      -0.23957626       1.72181976
12
Frame=8 idx=003841 GeodesicLength=0.7189995399931308 rxn_smarts="[N:1]#[C:2][C:3]([C@@:4]1([H:9])[C:5]([H:10])([H:11])[N:6]1[H:12])([H:7])[H:8]>>[N:1](=[C:2]=[C:3]([C@@:4]1([H:9])[C:5]([H:10])([H:11])[N:6]1[H:12])[H:8])[H:7]"
N       -2.81294669      -0.00644616      -1.27123817
C       -2.05577526       0.20658335      -0.36957720
C       -0.84760249       0.70609658       0.07318391
C        0.18638109      -0.25752868       0.54185663
C        1.38282346      -0.55285330      -0.27301759
N        1.48463878       0.30327195       0.90429045
H       -1.48794473       0.77927211      -1.54171635
H       -0.89137015       1.68383945       0.53968875
H       -0.17702239      -1.07521730       1.15815672
H        1.52629668      -0.03956254      -1.21698782
H        1.80176002      -1.55230538      -0.23073692
H        1.89076168      -0.19515010       1.68609760
12
Frame=9 idx=003841 GeodesicLength=0.8096451195449339 rxn_smarts="[N:1]#[C:2][C:3]([C@@:4]1([H:9])[C:5]([H:10])([H:11])[N:6]1[H:12])([H:7])[H:8]>>[N:1](=[C:2]=[C:3]([C@@:4]1([H:9])[C:5]([H:10])([H:11])[N:6]1[H:12])[H:8])[H:7]"
N       -2.75086795       0.00536149      -1.33857578
C       -2.04418819       0.17154758      -0.38817183
C       -0.86029087       0.70039620       0.09014912
C        0.18638738      -0.25175804       0.55945975
C        1.35824661      -0.57412949      -0.27965267
N        1.49355144       0.32167482       0.86449167
H       -1.44287879       0.84964789      -1.53362666
H       -0.95819935       1.64041272       0.62266661
H       -0.15832209      -1.04851028       1.21281755
H        1.47325247      -0.09326375      -1.24433737
H        1.78032276      -1.57103296      -0.21550119
H        1.92298656      -0.15034618       1.65028079
12
Frame=10 idx=003841 GeodesicLength=0.9014406958971318 rxn_smarts="[N:1]#[C:2][C:3]([C@@:4]1([H:9])[C:5]([H:10])([H:11])[N:6]1[H:12])([H:7])[H:8]>>[N:1](=[C:2]=[C:3]([C@@:4]1([H:9])[C:5]([H:10])([H:11])[N:6]1[H:12])[H:8])[H:7]"
N       -2.68059221       0.01416007      -1.40261644
C       -2.03245961       0.13985116      -0.40609170
C       -0.87356681       0.69538992       0.10756777
C        0.18596487      -0.24546849       0.57626364
C        1.33298260      -0.59482894      -0.28527871
N        1.50003474       0.33888105       0.82400124
H       -1.39963283       0.92157380      -1.51952208
H       -1.02363316       1.59365407       0.69808752
H       -0.13937476      -1.02086745       1.26429793
H        1.41867807      -0.14688426      -1.26862472
H        1.75888468      -1.58843659      -0.20011295
H        1.95271443      -0.10702433       1.61202850
12
Frame=11 idx=003841 GeodesicLength=0.9929958557419103 rxn_smarts="[N:1]#[C:2][C:3]([C@@:4]1([H:9])[C:5]([H:10])([H:11])[N:6]1[H:12])([H:7])[H:8]>>[N:1](=[C:2]=[C:3]([C@@:4]1([H:9])[C:5]([H:10])([H:11])[N:6]1[H:12])[H:8])[H:7]"
N       -2.61475680       0.03341392      -1.45862403
C       -2.01956721       0.10680262      -0.42497335
C       -0.88699306       0.68898673       0.12258527
C        0.18584353      -0.23956387       0.59139327
C        1.30944779      -0.61469433      -0.28922909
N        1.50402336       0.35553481       0.78386402
H       -1.35737312       0.98869461      -1.50311890
H       -1.08756808       1.54156777       0.76480893
H       -0.11929214      -0.99330831       1.31197953
H        1.36601234      -0.19980101      -1.28901249
H        1.74108634      -1.60371638      -0.18294674
H        1.97913705      -0.06391656       1.57327356
12
Frame=12 idx=003841 GeodesicLength=1.0850924110849747 rxn_smarts="[N:1]#[C:2][C:3]([C@@:4]1([H:9])[C:5]([H:10])([H:11])[N:6]1[H:12])([H:7])[H:8]>>[N:1](=[C:2]=[C:3]([C@@:4]1([H:9])[C:5]([H:10])([H:11])[N:6]1[H:12])[H:8])[H:7]"
N       -2.54902134       0.05790849      -1.50882137
C       -2.00580055       0.07370006      -0.44473681
C       -0.90098641       0.68165359       0.13652120
C        0.18573372      -0.23363915       0.60550447
C        1.28660352      -0.63405453      -0.29191302
N        1.50584045       0.37156656       0.74343308
H       -1.31548803       1.05404231      -1.48342097
H       -1.15038903       1.48531644       0.82433143
H       -0.09840849      -0.96519639       1.35689165
H        1.31354820      -0.25282214      -1.30621135
H        1.72529864      -1.61742295      -0.16467763
H        2.00306933      -0.02105230       1.53309933
12
Frame=13 idx=003841 GeodesicLength=1.1785264503103605 rxn_smarts="[N:1]#[C:2][C:3]([C@@:4]1([H:9])[C:5]([H:10])([H:11])[N:6]1[H:12])([H:7])[H:8]>>[N:1](=[C:2]=[C:3]([C@@:4]1([H:9])[C:5]([H:10])([H:11])[N:6]1[H:12])[H:8])[H:7]"
N       -2.47827970       0.08255451      -1.55527061
C       -1.99188414       0.04203399      -0.46474071
C       -0.91588885       0.67385253       0.15044955
C        0.18536024      -0.22728789       0.61912587
C        1.26336780      -0.65299211      -0.29375501
N        1.50564048       0.38677805       0.70226362
H       -1.27398891       1.11969068      -1.45910135
H       -1.21211087       1.42635931       0.87759396
H       -0.07699643      -0.93612256       1.39965442
H        1.25976263      -0.30608188      -1.32063905
H        1.70997834      -1.62989832      -0.14626389
H        2.02503944       0.02111369       1.49068321
12
Frame=14 idx=003841 GeodesicLength=1.2711432853578082 rxn_smarts="[N:1]#[C:2][C:3]([C@@:4]1([H:9])[C:5]([H:10])([H:11])[N:6]1[H:12])([H:7])[H:8]>>[N:1](=[C:2]=[C:3]([C@@:4]1([H:9])[C:5]([H:10])([H:11])[N:6]1[H:12])[H:8])[H:7]"
N       -2.41801956       0.11923662      -1.59147169
C       -1.97613388       0.00782561      -0.48693696
C       -0.93074477       0.66413874       0.16098615
C        0.18531846      -0.22133986       0.63090258
C        1.24273199      -0.67129225      -0.29387793
N        1.50347822       0.40147923       0.66191646
H       -1.23151285       1.18003634      -1.43469808
H       -1.27169534       1.36287499       0.92254852
H       -0.05508745      -0.90673959       1.43896275
H        1.20938638      -0.35905251      -1.33128870
H        1.69860668      -1.64048269      -0.12573816
H        2.04367214       0.06331537       1.44869505
12
Frame=15 idx=003841 GeodesicLength=1.3655978238342252 rxn_smarts="[N:1]#[C:2][C:3]([C@@:4]1([H:9])[C:5]([H:10])([H:11])[N:6]1[H:12])([H:7])[H:8]>>[N:1](=[C:2]=[C:3]([C@@:4]1([H:9])[C:5]([H:10])([H:11])[N:6]1[H:12])[H:8])[H:7]"
N       -2.34979929       0.15136052      -1.62475444
C       -1.96090900      -0.02395251      -0.50841657
C       -0.94646049       0.65461789       0.17179076
C        0.18480143      -0.21447208       0.64241628
C        1.22102612      -0.68891917      -0.29366946
N        1.49969909       0.41495924       0.62099781
H       -1.18972166       1.24155658      -1.40530903
H       -1.32979688       1.29855718       0.96206435
H       -0.03329386      -0.87612009       1.47619733
H        1.15750982      -0.41128724      -1.33947017
H        1.68635962      -1.64996289      -0.10627158
H        2.06058510       0.10366257       1.40442471
12
Frame=16 idx=003841 GeodesicLength=1.4594296388426493 rxn_smarts="[N:1]#[C:2][C:3]([C@@:4]1([H:9])[C:5]([H:10])([H:11])[N:6]1[H:12])([H:7])[H:8]>>[N:1](=[C:2]=[C:3]([C@@:4]1([H:9])[C:5]([H:10])([H:11])[N:6]1[H:12])[H:8])[H:7]"
N       -2.29026616       0.19136024      -1.64893160
C       -1.94376379      -0.05720280      -0.53213528
C       -0.96195448       0.64409762       0.17948099
C        0.18450463      -0.20740549       0.65229771
C        1.20139079      -0.70608721      -0.29205450
N        1.49460318       0.42771003       0.58076727
H       -1.14695562       1.29968303      -1.37547978
H       -1.38589841       1.23037624       0.99464750
H       -0.01155823      -0.84438401       1.51041044
H        1.10851369      -0.46347446      -1.34434243
H        1.67656486      -1.65817494      -0.08510195
H        2.07481954       0.14350173       1.36044163
