16
Frame=0 idx=003252 GeodesicLength=0.0 rxn_smarts="[C:1]([C@@:2]1([H:10])[C:3]([H:11])([H:12])[C:4]([H:13])([H:14])[O:5][C:6]1([H:15])[H:16])([H:7])([H:8])[H:9]>>[C:1]([C@@:2]1([H:10])[C:3]([H:11])([H:12])[C-:4]=[O+:5][C:6]1([H:15])[H:16])([H:7])([H:8])[H:9].[H:13][H:14]"
C        1.90256072       0.28044973       0.04240015
C        0.38769311       0.37916582       0.11183367
C       -0.37199284      -0.22466421      -1.07469028
C       -1.69446915      -0.65574930      -0.49512451
O       -1.51004651      -0.87645404       0.80060954
C       -0.22779223      -0.39665468       1.27465078
H        2.29022959       0.82718819      -0.81893619
H        2.37308742       0.69519225       0.93632455
H        2.22016103      -0.76139366      -0.05098158
H        0.09278739       1.42994377       0.19448478
H       -0.47223836       0.43671035      -1.93290817
H        0.12251910      -1.14380352      -1.41182164
H       -2.67655113       0.11108730      -0.75308559
H       -2.39618123       0.96522833      -0.53873886
H       -0.40794167       0.20524405       2.16613285
H        0.36817469      -1.27149034       1.54985047
16
Frame=1 idx=003252 GeodesicLength=0.05480647539481855 rxn_smarts="[C:1]([C@@:2]1([H:10])[C:3]([H:11])([H:12])[C:4]([H:13])([H:14])[O:5][C:6]1([H:15])[H:16])([H:7])([H:8])[H:9]>>[C:1]([C@@:2]1([H:10])[C:3]([H:11])([H:12])[C-:4]=[O+:5][C:6]1([H:15])[H:16])([H:7])([H:8])[H:9].[H:13][H:14]"
C        1.90755518       0.27782423       0.04306080
C        0.39305171       0.38068324       0.11510721
C       -0.36954593      -0.21964845      -1.07127212
C       -1.69407765      -0.64289947      -0.49048176
O       -1.50966363      -0.86500872       0.80662945
C       -0.22301289      -0.39498769       1.27729496
H        2.29562542       0.82481484      -0.81793564
H        2.38084671       0.68966979       0.93687493
H        2.22211551      -0.76473514      -0.05269502
H        0.10163831       1.43224357       0.20034584
H       -0.46638885       0.44263646      -1.92933076
H        0.12092069      -1.14029403      -1.41023401
H       -2.70609967       0.09547230      -0.77519186
H       -2.42690573       0.95398293      -0.55100445
H       -0.39526332       0.20455787       2.17190208
H        0.36920415      -1.27431173       1.54693034
16
Frame=2 idx=003252 GeodesicLength=0.10958061383760474 rxn_smarts="[C:1]([C@@:2]1([H:10])[C:3]([H:11])([H:12])[C:4]([H:13])([H:14])[O:5][C:6]1([H:15])[H:16])([H:7])([H:8])[H:9]>>[C:1]([C@@:2]1([H:10])[C:3]([H:11])([H:12])[C-:4]=[O+:5][C:6]1([H:15])[H:16])([H:7])([H:8])[H:9].[H:13][H:14]"
C        1.91268809       0.27497701       0.04370687
C        0.39860596       0.38235657       0.11850933
C       -0.36714502      -0.21414942      -1.06771210
C       -1.69380578      -0.62920543      -0.48564991
O       -1.50926102      -0.85297694       0.81278976
C       -0.21815559      -0.39313228       1.28002519
H        2.30122814       0.82220367      -0.81692761
H        2.38890550       0.68370725       0.93740362
H        2.22392461      -0.76835213      -0.05454812
H        0.11095823       1.43474057       0.20646560
H       -0.46054924       0.44917569      -1.92550013
H        0.11898927      -1.13637001      -1.40864779
H       -2.73539711       0.07838045      -0.79769707
H       -2.45871849       0.94179586      -0.56395465
H       -0.38232031       0.20393094       2.17778889
H        0.37005274      -1.27708179       1.54394814
16
Frame=3 idx=003252 GeodesicLength=0.16432968696143013 rxn_smarts="[C:1]([C@@:2]1([H:10])[C:3]([H:11])([H:12])[C:4]([H:13])([H:14])[O:5][C:6]1([H:15])[H:16])([H:7])([H:8])[H:9]>>[C:1]([C@@:2]1([H:10])[C:3]([H:11])([H:12])[C-:4]=[O+:5][C:6]1([H:15])[H:16])([H:7])([H:8])[H:9].[H:13][H:14]"
C        1.91796826       0.27189128       0.04433737
C        0.40436471       0.38419956       0.12204558
C       -0.36480350      -0.20812712      -1.06400595
C       -1.69367124      -0.61460300      -0.48062325
O       -1.50885822      -0.84030042       0.81909667
C       -0.21322444      -0.39107456       1.28284244
H        2.30705378       0.81934002      -0.81591003
H        2.39728605       0.67727155       0.93791062
H        2.22557500      -0.77226931      -0.05655074
H        0.12078108       1.43745645       0.21285964
H       -0.45472579       0.45637855      -1.92140701
H        0.11669178      -1.13199878      -1.40706770
H       -2.76439186       0.05969402      -0.82059654
H       -2.49164376       0.92857856      -0.57762240
H       -0.36909461       0.20336796       2.18380008
H        0.37069274      -1.27980477       1.54089122
16
Frame=4 idx=003252 GeodesicLength=0.21904594692175033 rxn_smarts="[C:1]([C@@:2]1([H:10])[C:3]([H:11])([H:12])[C:4]([H:13])([H:14])[O:5][C:6]1([H:15])[H:16])([H:7])([H:8])[H:9]>>[C:1]([C@@:2]1([H:10])[C:3]([H:11])([H:12])[C-:4]=[O+:5][C:6]1([H:15])[H:16])([H:7])([H:8])[H:9].[H:13][H:14]"
C        1.92339340       0.26854495       0.04494747
C        0.41033586       0.38622503       0.12572117
C       -0.36252922      -0.20153259      -1.06014791
C       -1.69368061      -0.59901102      -0.47539221
O       -1.50846660      -0.82691183       0.82555705
C       -0.20822641      -0.38879618       1.28574647
H        2.31310953       0.81619969      -0.81488411
H        2.40599547       0.67031760       0.93839067
H        2.22703664      -0.77650967      -0.05871851
H        0.13114471       1.44040453       0.21954526
H       -0.44891462       0.46430207      -1.91703831
H        0.11399545      -1.12713251      -1.40549916
H       -2.79300954       0.03927908      -0.84387246
H       -2.52569731       0.91422261      -0.59203997
H       -0.35557378       0.20287249       2.18994029
H        0.37108704      -1.28247424       1.53774425
16
Frame=5 idx=003252 GeodesicLength=0.27372372681244644 rxn_smarts="[C:1]([C@@:2]1([H:10])[C:3]([H:11])([H:12])[C:4]([H:13])([H:14])[O:5][C:6]1([H:15])[H:16])([H:7])([H:8])[H:9]>>[C:1]([C@@:2]1([H:10])[C:3]([H:11])([H:12])[C-:4]=[O+:5][C:6]1([H:15])[H:16])([H:7])([H:8])[H:9].[H:13][H:14]"
C        1.92896213       0.26491438       0.04553239
C        0.41652767       0.38844747       0.12954107
C       -0.36033188      -0.19431270      -1.05613331
C       -1.69384568      -0.58233460      -0.46994841
O       -1.50809961      -0.81274125       0.83217470
C       -0.20317042      -0.38627804       1.28873576
H        2.31940460       0.81275696      -0.81385094
H        2.41504269       0.66279822       0.93883883
H        2.22827836      -0.78109917      -0.06106689
H        0.14208979       1.44360103       0.22654036
H       -0.44311051       0.47300754      -1.91238292
H        0.11086175      -1.12172226      -1.40394747
H       -2.82116306       0.01699216      -0.86749698
H       -2.56089328       0.89860730      -0.60723946
H       -0.34174736       0.20244755       2.19621320
H        0.37119482      -1.28508459       1.53449008
16
Frame=6 idx=003252 GeodesicLength=0.3283560324592162 rxn_smarts="[C:1]([C@@:2]1([H:10])[C:3]([H:11])([H:12])[C:4]([H:13])([H:14])[O:5][C:6]1([H:15])[H:16])([H:7])([H:8])[H:9]>>[C:1]([C@@:2]1([H:10])[C:3]([H:11])([H:12])[C-:4]=[O+:5][C:6]1([H:15])[H:16])([H:7])([H:8])[H:9].[H:13][H:14]"
C        1.93467163       0.26097293       0.04608634
C        0.42294865       0.39088306       0.13351033
C       -0.35822232      -0.18640754      -1.05195714
C       -1.69418116      -0.56446151      -0.46428259
O       -1.50777187      -0.79771239       0.83895194
C       -0.19806785      -0.38349898       1.29180753
H        2.32594852       0.80898302      -0.81281184
H        2.42443619       0.65465969       0.93924898
H        2.22926365      -0.78606643      -0.06361403
H        0.15366122       1.44706347       0.23386454
H       -0.43730509       0.48256307      -1.90742920
H        0.10724574      -1.11571337      -1.40241738
H       -2.84874629      -0.00732526      -0.89143302
H       -2.59724347       0.88159349      -0.62325452
H       -0.32760642       0.20209559       2.20262151
H        0.37096889      -1.28762883       1.53110856
16
Frame=7 idx=003252 GeodesicLength=0.38293556766478076 rxn_smarts="[C:1]([C@@:2]1([H:10])[C:3]([H:11])([H:12])[C:4]([H:13])([H:14])[O:5][C:6]1([H:15])[H:16])([H:7])([H:8])[H:9]>>[C:1]([C@@:2]1([H:10])[C:3]([H:11])([H:12])[C-:4]=[O+:5][C:6]1([H:15])[H:16])([H:7])([H:8])[H:9].[H:13][H:14]"
C        1.94051713       0.25669066       0.04660264
C        0.42960729       0.39354969       0.13763368
C       -0.35621253      -0.17775001      -1.04761519
C       -1.69470498      -0.54525930      -0.45838617
O       -1.50749865      -0.78174421       0.84588737
C       -0.19293328      -0.38043571       1.29495709
H        2.33275089       0.80484510      -0.81176839
H        2.43418283       0.64584206       0.93961425
H        2.22995020      -0.79144318      -0.06638001
H        0.16590814       1.45081062       0.24153883
H       -0.43148592       0.49304350      -1.90216665
H        0.10309557      -1.10904569      -1.40091389
H       -2.87563125      -0.03384677      -0.91562768
H       -2.63475474       0.86302262      -0.64011850
H       -0.31314601       0.20181867       2.20916612
H        0.37035532      -1.29009805       1.52757652
16
Frame=8 idx=003252 GeodesicLength=0.43745178583920796 rxn_smarts="[C:1]([C@@:2]1([H:10])[C:3]([H:11])([H:12])[C:4]([H:13])([H:14])[O:5][C:6]1([H:15])[H:16])([H:7])([H:8])[H:9]>>[C:1]([C@@:2]1([H:10])[C:3]([H:11])([H:12])[C-:4]=[O+:5][C:6]1([H:15])[H:16])([H:7])([H:8])[H:9].[H:13][H:14]"
C        1.94649050       0.25203419       0.04707292
C        0.43651096       0.39646717       0.14191541
C       -0.35431691      -0.16826533      -1.04310337
C       -1.69543865      -0.52457419      -0.45224958
O       -1.50729752      -0.76474902       0.85297652
C       -0.18778563      -0.37706244       1.29817771
H        2.33981972       0.80030695      -0.81072292
H        2.44428718       0.63627774       0.93992609
H        2.23028796      -0.79726416      -0.06938849
H        0.17888310       1.45486258       0.24958542
H       -0.42563714       0.50453044      -1.89658511
H        0.09835028      -1.10165255      -1.39944197
H       -2.90165675      -0.06275935      -0.94001764
H       -2.67342363       0.84271113      -0.65785853
H       -0.29836508       0.20161821       2.21584632
H        0.36929164      -1.29248138       1.52386722
16
Frame=9 idx=003252 GeodesicLength=0.49189646983684543 rxn_smarts="[C:1]([C@@:2]1([H:10])[C:3]([H:11])([H:12])[C:4]([H:13])([H:14])[O:5][C:6]1([H:15])[H:16])([H:7])([H:8])[H:9]>>[C:1]([C@@:2]1([H:10])[C:3]([H:11])([H:12])[C-:4]=[O+:5][C:6]1([H:15])[H:16])([H:7])([H:8])[H:9].[H:13][H:14]"
C        1.95258326       0.24695790       0.04748707
C        0.44367096       0.39966241       0.14636232
C       -0.35255239      -0.15785415      -1.03841609
C       -1.69640556      -0.50221916      -0.44586166
O       -1.50718868      -0.74661682       0.86021522
C       -0.18264720      -0.37334352       1.30146268
H        2.34716929       0.79531893      -0.80967709
H        2.45475939       0.62587183       0.94017539
H        2.23021111      -0.80357757      -0.07267218
H        0.19265618       1.45924679       0.25803503
H       -0.41974120       0.51713726      -1.89066714
H        0.09293728      -1.09344178      -1.39801290
H       -2.92663235      -0.09430581      -0.96451702
H       -2.71325934       0.82042456      -0.67652647
H       -0.28326173       0.20150110       2.22266278
H        0.36770098      -1.29476198       1.51995005
16
Frame=10 idx=003252 GeodesicLength=0.5462632533931215 rxn_smarts="[C:1]([C@@:2]1([H:10])[C:3]([H:11])([H:12])[C:4]([H:13])([H:14])[O:5][C:6]1([H:15])[H:16])([H:7])([H:8])[H:9]>>[C:1]([C@@:2]1([H:10])[C:3]([H:11])([H:12])[C-:4]=[O+:5][C:6]1([H:15])[H:16])([H:7])([H:8])[H:9].[H:13][H:14]"
C        1.95878282       0.24140752       0.04783231
C        0.45109895       0.40316700       0.15098203
C       -0.35093999      -0.14639870      -1.03354683
C       -1.69763493      -0.47796856      -0.43920899
O       -1.50719663      -0.72721973       0.86759630
C       -0.17754609      -0.36923720       1.30480305
H        2.35481399       0.78982228      -0.80863324
H        2.46560878       0.61451055       0.94035064
H        2.22963915      -0.81044002      -0.07627155
H        0.20730835       1.46399472       0.26692386
H       -0.41377604       0.53099709      -1.88439262
H        0.08676845      -1.08430413      -1.39663994
H       -2.95031709      -0.12876629      -0.98901958
H       -2.75426431       0.79588075      -0.69617875
H       -0.26783661       0.20147451       2.22961568
H        0.36549119      -1.29691979       1.51578763
16
Frame=11 idx=003252 GeodesicLength=0.6005533828723316 rxn_smarts="[C:1]([C@@:2]1([H:10])[C:3]([H:11])([H:12])[C:4]([H:13])([H:14])[O:5][C:6]1([H:15])[H:16])([H:7])([H:8])[H:9]>>[C:1]([C@@:2]1([H:10])[C:3]([H:11])([H:12])[C-:4]=[O+:5][C:6]1([H:15])[H:16])([H:7])([H:8])[H:9].[H:13][H:14]"
C        1.96507236       0.23531835       0.04809329
C        0.45880656       0.40701817       0.15578337
C       -0.34950732      -0.13375927      -1.02848946
C       -1.69916514      -0.45154852      -0.43227809
O       -1.50735169      -0.70640986       0.87510747
C       -0.17251734      -0.36469508       1.30818746
H        2.36276840       0.78374754      -0.80759424
H        2.47684460       0.60205843       0.94043902
H        2.22847550      -0.81791903      -0.08023594
H        0.22293277       1.46914356       0.27629592
H       -0.40771570       0.54626657      -1.87774084
H        0.07973577      -1.07411106      -1.39534009
H       -2.97240904      -0.16646514      -1.01338662
H       -2.79642881       0.76874148      -0.71688143
H       -0.25209379       0.20154599       2.23670589
H        0.36255289      -1.29893213       1.51133431
16
Frame=12 idx=003252 GeodesicLength=0.6547924344452224 rxn_smarts="[C:1]([C@@:2]1([H:10])[C:3]([H:11])([H:12])[C:4]([H:13])([H:14])[O:5][C:6]1([H:15])[H:16])([H:7])([H:8])[H:9]>>[C:1]([C@@:2]1([H:10])[C:3]([H:11])([H:12])[C-:4]=[O+:5][C:6]1([H:15])[H:16])([H:7])([H:8])[H:9].[H:13][H:14]"
C        1.97143936       0.22861207       0.04825467
C        0.46680874       0.41126263       0.16077528
C       -0.34829056      -0.11976811      -1.02324083
C       -1.70105359      -0.42262638      -0.42506179
O       -1.50769894      -0.68401649       0.88272024
C       -0.16760728      -0.35965896       1.31159647
H        2.37106163       0.77701165      -0.80655772
H        2.48848739       0.58835410       0.94043032
H        2.22661188      -0.82610123      -0.08462240
H        0.23964239       1.47474469       0.28620385
H       -0.40152868       0.56313513      -1.87069018
H        0.07170813      -1.06271337      -1.39413826
H       -2.99254546      -0.20778652      -1.03742423
H       -2.83974134       0.73859578      -0.73870429
H       -0.23604763       0.20172970       2.24392813
H        0.35875395      -1.30077470       1.50653074
16
Frame=13 idx=003252 GeodesicLength=0.7092176570512002 rxn_smarts="[C:1]([C@@:2]1([H:10])[C:3]([H:11])([H:12])[C:4]([H:13])([H:14])[O:5][C:6]1([H:15])[H:16])([H:7])([H:8])[H:9]>>[C:1]([C@@:2]1([H:10])[C:3]([H:11])([H:12])[C-:4]=[O+:5][C:6]1([H:15])[H:16])([H:7])([H:8])[H:9].[H:13][H:14]"
C        1.97793174       0.22118568       0.04831420
C        0.47514762       0.41598027       0.16598079
C       -0.34736229      -0.10419929      -1.01779484
C       -1.70342789      -0.39077584      -0.41755641
O       -1.50833502      -0.65980388       0.89040470
C       -0.16285628      -0.35405873       1.31501542
H        2.37979765       0.76952787      -0.80549894
H        2.50066272       0.57318629       0.94033746
H        2.22396740      -0.83513919      -0.08949630
H        0.25760950       1.48092343       0.29673019
H       -0.39521350       0.58188530      -1.86321043
H        0.06249245      -1.04994245      -1.39306961
H       -3.01037743      -0.25327634      -1.06092492
H       -2.88431640       0.70491755      -0.76182910
H       -0.21966766       0.20205554       2.25129429
H        0.35394738      -1.30246620       1.50130352
16
Frame=14 idx=003252 GeodesicLength=0.7628306666962996 rxn_smarts="[C:1]([C@@:2]1([H:10])[C:3]([H:11])([H:12])[C:4]([H:13])([H:14])[O:5][C:6]1([H:15])[H:16])([H:7])([H:8])[H:9]>>[C:1]([C@@:2]1([H:10])[C:3]([H:11])([H:12])[C-:4]=[O+:5][C:6]1([H:15])[H:16])([H:7])([H:8])[H:9].[H:13][H:14]"
C        1.98417818       0.21307664       0.04818104
C        0.48362951       0.42106876       0.17129291
C       -0.34668073      -0.08713585      -1.01222196
C       -1.70615424      -0.35584581      -0.40984415
O       -1.50916681      -0.63396577       0.89797176
C       -0.15846327      -0.34792961       1.31832308
H        2.38859163       0.76120949      -0.80456088
H        2.51281057       0.55670707       0.94001154
H        2.22024443      -0.84483093      -0.09480240
H        0.27660074       1.48740582       0.30772464
H       -0.38856987       0.60225438      -1.85544236
H        0.05210001      -1.03576136      -1.39209412
H       -3.02472623      -0.30241663      -1.08332255
H       -2.92898385       0.66760366      -0.78544359
H       -0.20334094       0.20239881       2.25864384
H        0.34793087      -1.30383865       1.49558321
16
Frame=15 idx=003252 GeodesicLength=0.8162612025266375 rxn_smarts="[C:1]([C@@:2]1([H:10])[C:3]([H:11])([H:12])[C:4]([H:13])([H:14])[O:5][C:6]1([H:15])[H:16])([H:7])([H:8])[H:9]>>[C:1]([C@@:2]1([H:10])[C:3]([H:11])([H:12])[C-:4]=[O+:5][C:6]1([H:15])[H:16])([H:7])([H:8])[H:9].[H:13][H:14]"
C        1.99026632       0.20384461       0.04777821
C        0.49247151       0.42680529       0.17686073
C       -0.34636951      -0.06763653      -1.00633727
C       -1.70937524      -0.31662048      -0.40166045
O       -1.51040699      -0.60532495       0.90566774
C       -0.15446068      -0.34093245       1.32159239
H        2.39774622       0.75173769      -0.80365596
H        2.52529964       0.53776016       0.93942668
H        2.21492368      -0.85567027      -0.10105609
H        0.29737953       1.49451549       0.31957929
H       -0.38159137       0.62546397      -1.84698303
H        0.04001856      -1.01923432      -1.39134436
H       -3.03482631      -0.35750347      -1.10425827
H       -2.97452444       0.62472653      -0.81091259
H       -0.18671635       0.20289373       2.26613188
H        0.34016545      -1.30482501       1.48917108
16
Frame=16 idx=003252 GeodesicLength=0.869702457541312 rxn_smarts="[C:1]([C@@:2]1([H:10])[C:3]([H:11])([H:12])[C:4]([H:13])([H:14])[O:5][C:6]1([H:15])[H:16])([H:7])([H:8])[H:9]>>[C:1]([C@@:2]1([H:10])[C:3]([H:11])([H:12])[C-:4]=[O+:5][C:6]1([H:15])[H:16])([H:7])([H:8])[H:9].[H:13][H:14]"
C        1.99615503       0.19353000       0.04713788
C        0.50154563       0.43317752       0.18259925
C       -0.34656024      -0.04581015      -1.00030710
C       -1.71334052      -0.27298270      -0.39330108
O       -1.51219437      -0.57414056       0.91313114
C       -0.15102455      -0.33311417       1.32468022
H        2.40722923       0.74109440      -0.80278173
H        2.53805403       0.51658230       0.93863955
H        2.20807438      -0.86767449      -0.10810510
H        0.31974429       1.50229193       0.33219905
H       -0.37430016       0.65133485      -1.83807616
H        0.02615831      -1.00055376      -1.39090742
H       -3.03987985      -0.41804742      -1.12310172
H       -3.02010662       0.57622465      -0.83741248
H       -0.17013246       0.20355053       2.27362243
H        0.33057788      -1.30546292       1.48198325
