11
Frame=0 idx=000524 GeodesicLength=0.0 rxn_smarts="[O:1]=[C:2]1[C:3]([H:7])([H:8])[N:4]2[C:5]([H:9])([H:10])[C@@:6]12[H:11]>>[C:3]1([H:7])([H:8])[N:4]2[C:5]([H:9])([H:10])[C@:6]12[H:11].[O+:1]#[C-:2]"
O       -2.37852136       2.29223747       1.26336311
C       -1.94843897       1.76025585       0.37232293
C       -0.54829356      -1.29497320      -0.85302271
N        0.44029077      -1.11772953      -0.09159500
C        1.14356233       0.15706479      -0.16105462
C        0.82252061       0.37561863       1.28282208
H       -1.10800692      -2.22514484      -0.77779384
H       -0.86325519      -0.56390245      -1.60418440
H        0.68677767       0.87065800      -0.85463838
H        2.19284940      -0.02720952      -0.41467196
H        1.56051527      -0.22687519       1.83845284
11
Frame=1 idx=000524 GeodesicLength=0.16795213897327993 rxn_smarts="[O:1]=[C:2]1[C:3]([H:7])([H:8])[N:4]2[C:5]([H:9])([H:10])[C@@:6]12[H:11]>>[C:3]1([H:7])([H:8])[N:4]2[C:5]([H:9])([H:10])[C@:6]12[H:11].[O+:1]#[C-:2]"
O       -2.35220191       2.28493560       1.23200729
C       -1.91906364       1.65621981       0.40541933
C       -0.58304825      -1.24509448      -0.79953257
N        0.49207361      -1.12465710      -0.12889712
C        1.16458660       0.16831856      -0.18661947
C        0.75889771       0.32859826       1.24180979
H       -1.14252801      -2.17593998      -0.71868818
H       -0.85963542      -0.55475124      -1.60320822
H        0.71316636       0.87831595      -0.88762622
H        2.22713197       0.00876180      -0.39533360
H        1.50062098      -0.22470717       1.84066898
11
Frame=2 idx=000524 GeodesicLength=0.33979322099701254 rxn_smarts="[O:1]=[C:2]1[C:3]([H:7])([H:8])[N:4]2[C:5]([H:9])([H:10])[C@@:6]12[H:11]>>[C:3]1([H:7])([H:8])[N:4]2[C:5]([H:9])([H:10])[C@:6]12[H:11].[O+:1]#[C-:2]"
O       -2.31865862       2.27388281       1.19635052
C       -1.88866261       1.55801766       0.43975989
C       -0.60571531      -1.19856735      -0.75380639
N        0.53095529      -1.12461296      -0.16071938
C        1.18037867       0.17943266      -0.20917986
C        0.70319980       0.28524413       1.20047680
H       -1.16663691      -2.12701664      -0.66408494
H       -0.86007983      -0.54796786      -1.59619893
H        0.73495630       0.88548705      -0.91603762
H        2.25151423       0.04033749      -0.37700324
H        1.43874900      -0.22423699       1.84044315
11
Frame=3 idx=000524 GeodesicLength=0.5111081211008065 rxn_smarts="[O:1]=[C:2]1[C:3]([H:7])([H:8])[N:4]2[C:5]([H:9])([H:10])[C@@:6]12[H:11]>>[C:3]1([H:7])([H:8])[N:4]2[C:5]([H:9])([H:10])[C@:6]12[H:11].[O+:1]#[C-:2]"
O       -2.28269493       2.26247417       1.15411149
C       -1.85967919       1.46637606       0.47562933
C       -0.62264782      -1.15682309      -0.71440962
N        0.56191526      -1.12191140      -0.18741423
C        1.19350124       0.19136587      -0.22847662
C        0.65648743       0.24425637       1.16107975
H       -1.18587568      -2.08315272      -0.61444436
H       -0.86553827      -0.54098444      -1.58609596
H        0.75267129       0.89490577      -0.94010819
H        2.27124233       0.07081471      -0.35955370
H        1.38061836      -0.22732130       1.83968212
11
Frame=4 idx=000524 GeodesicLength=0.6828752371516025 rxn_smarts="[O:1]=[C:2]1[C:3]([H:7])([H:8])[N:4]2[C:5]([H:9])([H:10])[C@@:6]12[H:11]>>[C:3]1([H:7])([H:8])[N:4]2[C:5]([H:9])([H:10])[C@:6]12[H:11].[O+:1]#[C-:2]"
O       -2.24423246       2.25057683       1.10434930
C       -1.82973580       1.38017920       0.51475291
C       -0.63561272      -1.11875100      -0.67955295
N        0.58716067      -1.11728285      -0.21043099
C        1.20321493       0.20358470      -0.24483894
C        0.61674241       0.20531730       1.12386559
H       -1.20019109      -2.04326226      -0.56993159
H       -0.87374902      -0.53334897      -1.57306963
H        0.76582959       0.90507581      -0.95953348
H        2.28517478       0.10057776      -0.34338159
H        1.32539872      -0.23266653       1.83777138
11
Frame=5 idx=000524 GeodesicLength=0.854197299987857 rxn_smarts="[O:1]=[C:2]1[C:3]([H:7])([H:8])[N:4]2[C:5]([H:9])([H:10])[C@@:6]12[H:11]>>[C:3]1([H:7])([H:8])[N:4]2[C:5]([H:9])([H:10])[C@:6]12[H:11].[O+:1]#[C-:2]"
O       -2.20685245       2.23517504       1.04906282
C       -1.79918892       1.30148505       0.55521252
C       -0.64676801      -1.08336738      -0.64764200
N        0.60840022      -1.11184887      -0.23002706
C        1.21124411       0.21585828      -0.25913319
C        0.58335791       0.16829697       1.08876175
H       -1.21246114      -2.00663494      -0.52879398
H       -0.88414278      -0.52413544      -1.55817871
H        0.77636977       0.91625448      -0.97604101
H        2.29638016       0.12928514      -0.32866095
H        1.27366113      -0.24036832       1.83543981
11
Frame=6 idx=000524 GeodesicLength=1.0271335568602062 rxn_smarts="[O:1]=[C:2]1[C:3]([H:7])([H:8])[N:4]2[C:5]([H:9])([H:10])[C@@:6]12[H:11]>>[C:3]1([H:7])([H:8])[N:4]2[C:5]([H:9])([H:10])[C@:6]12[H:11].[O+:1]#[C-:2]"
O       -2.16796932       2.21365372       0.98996220
C       -1.76655009       1.22944061       0.59597699
C       -0.65635119      -1.04948776      -0.61786323
N        0.62605279      -1.10516369      -0.24679723
C        1.21681701       0.22788578      -0.27178619
C        0.55444878       0.13346354       1.05554864
H       -1.22246991      -1.97125562      -0.49028487
H       -0.89511219      -0.51366579      -1.54191479
H        0.78425643       0.92703276      -0.99036339
H        2.30349378       0.15703887      -0.31517255
H        1.22338392      -0.24894242       1.83269442
11
Frame=7 idx=000524 GeodesicLength=1.1996776189765155 rxn_smarts="[O:1]=[C:2]1[C:3]([H:7])([H:8])[N:4]2[C:5]([H:9])([H:10])[C@@:6]12[H:11]>>[C:3]1([H:7])([H:8])[N:4]2[C:5]([H:9])([H:10])[C@:6]12[H:11].[O+:1]#[C-:2]"
O       -2.13000147       2.18710101       0.92787641
C       -1.73234359       1.16470528       0.63642186
C       -0.66543936      -1.01733391      -0.58990364
N        0.64118280      -1.09826083      -0.26140855
C        1.22104349       0.23982146      -0.28289183
C        0.53006723       0.10045866       1.02425975
H       -1.23179714      -1.93794260      -0.45415133
H       -0.90733865      -0.50208979      -1.52486664
H        0.79029901       0.93814054      -1.00280159
H        2.30852193       0.18423156      -0.30234091
H        1.17580574      -0.25883137       1.82980648
11
Frame=8 idx=000524 GeodesicLength=1.3690316801530642 rxn_smarts="[O:1]=[C:2]1[C:3]([H:7])([H:8])[N:4]2[C:5]([H:9])([H:10])[C@@:6]12[H:11]>>[C:3]1([H:7])([H:8])[N:4]2[C:5]([H:9])([H:10])[C@:6]12[H:11].[O+:1]#[C-:2]"
O       -2.09346060       2.15850687       0.86606874
C       -1.69900945       1.10781957       0.67477551
C       -0.67479714      -0.98786012      -0.56387163
N        0.65513032      -1.09239451      -0.27443382
C        1.22505218       0.25191522      -0.29251018
C        0.50964397       0.06914738       0.99454135
H       -1.24150537      -1.90852389      -0.42052027
H       -0.92139794      -0.49049641      -1.50773893
H        0.79521022       0.95012593      -1.01372693
H        2.31382044       0.21169375      -0.28935092
H        1.13131337      -0.26993378       1.82676708
11
Frame=9 idx=000524 GeodesicLength=1.546387219825422 rxn_smarts="[O:1]=[C:2]1[C:3]([H:7])([H:8])[N:4]2[C:5]([H:9])([H:10])[C@@:6]12[H:11]>>[C:3]1([H:7])([H:8])[N:4]2[C:5]([H:9])([H:10])[C@:6]12[H:11].[O+:1]#[C-:2]"
O       -2.06467544       2.11788735       0.80499185
C       -1.65809716       1.05793713       0.71133686
C       -0.68222109      -0.95602199      -0.53777458
N        0.66593074      -1.08460890      -0.28522588
C        1.22768101       0.26164653      -0.30231259
C        0.49159004       0.04015027       0.96544204
H       -1.24987591      -1.87362479      -0.38597535
H       -0.93187276      -0.47613259      -1.48920955
H        0.80097709       0.95881471      -1.02452104
H        2.31500839       0.23445499      -0.27895804
H        1.08555508      -0.28050272       1.82220627
11
Frame=10 idx=000524 GeodesicLength=1.721223136742019 rxn_smarts="[O:1]=[C:2]1[C:3]([H:7])([H:8])[N:4]2[C:5]([H:9])([H:10])[C@@:6]12[H:11]>>[C:3]1([H:7])([H:8])[N:4]2[C:5]([H:9])([H:10])[C@:6]12[H:11].[O+:1]#[C-:2]"
O       -2.03969040       2.07510268       0.74932814
C       -1.61713454       1.01539244       0.74302996
C       -0.68970149      -0.92600229      -0.51322049
N        0.67593740      -1.07798787      -0.29435200
C        1.23061181       0.27078443      -0.31141840
C        0.47613240       0.01317781       0.93731184
H       -1.25886486      -1.84093453      -0.35293523
H       -0.94253324      -0.46226641      -1.47149386
H        0.80694546       0.96721523      -1.03512600
H        2.31673283       0.25625966      -0.26850729
H        1.04156464      -0.29074115       1.81738333
11
Frame=11 idx=000524 GeodesicLength=1.8945103226441087 rxn_smarts="[O:1]=[C:2]1[C:3]([H:7])([H:8])[N:4]2[C:5]([H:9])([H:10])[C@@:6]12[H:11]>>[C:3]1([H:7])([H:8])[N:4]2[C:5]([H:9])([H:10])[C@:6]12[H:11].[O+:1]#[C-:2]"
O       -2.01763177       2.03132669       0.69934026
C       -1.57643108       0.97880579       0.77001526
C       -0.69704170      -0.89763771      -0.49001430
N        0.68546311      -1.07243328      -0.30195273
C        1.23370510       0.27934625      -0.32006452
C        0.46255813      -0.01215088       0.91004898
H       -1.26807817      -1.81019304      -0.32101819
H       -0.95295812      -0.44897695      -1.45466258
H        0.81307167       0.97520741      -1.04588466
H        2.31872093       0.27742712      -0.25803560
H        0.99862191      -0.30072142       1.81222809
11
Frame=12 idx=000524 GeodesicLength=2.069137406289711 rxn_smarts="[O:1]=[C:2]1[C:3]([H:7])([H:8])[N:4]2[C:5]([H:9])([H:10])[C@@:6]12[H:11]>>[C:3]1([H:7])([H:8])[N:4]2[C:5]([H:9])([H:10])[C@:6]12[H:11].[O+:1]#[C-:2]"
O       -1.99294596       1.98650629       0.65483580
C       -1.53520308       0.94599682       0.79268605
C       -0.70358381      -0.87067725      -0.46824613
N        0.69394458      -1.06691704      -0.30841329
C        1.23513486       0.28741652      -0.32791578
C        0.44965120      -0.03563651       0.88349058
H       -1.27581108      -1.78055151      -0.29082721
H       -0.96224844      -0.43716892      -1.43856229
H        0.81788824       0.98152439      -1.05623135
H        2.31791347       0.29878983      -0.24696763
H        0.95526003      -0.30928262       1.80615125
11
Frame=13 idx=000524 GeodesicLength=2.2430966833711343 rxn_smarts="[O:1]=[C:2]1[C:3]([H:7])([H:8])[N:4]2[C:5]([H:9])([H:10])[C@@:6]12[H:11]>>[C:3]1([H:7])([H:8])[N:4]2[C:5]([H:9])([H:10])[C@:6]12[H:11].[O+:1]#[C-:2]"
O       -1.97093500       1.94226171       0.61573282
C       -1.49452702       0.91718103       0.81142872
C       -0.70974361      -0.84499777      -0.44760590
N        0.70233885      -1.06225445      -0.31358809
C        1.23661694       0.29473377      -0.33551139
C        0.43790402      -0.05799325       0.85769662
H       -1.28332197      -1.75218698      -0.26156660
H       -0.97079709      -0.42589867      -1.42333146
H        0.82283123       0.98704711      -1.06684477
H        2.31700082       0.31951459      -0.23597574
H        0.91263284      -0.31740711       1.79956578
11
Frame=14 idx=000524 GeodesicLength=2.4168458250075417 rxn_smarts="[O:1]=[C:2]1[C:3]([H:7])([H:8])[N:4]2[C:5]([H:9])([H:10])[C@@:6]12[H:11]>>[C:3]1([H:7])([H:8])[N:4]2[C:5]([H:9])([H:10])[C@:6]12[H:11].[O+:1]#[C-:2]"
O       -1.94925259       1.89938216       0.58112912
C       -1.45471567       0.89129544       0.82682583
C       -0.71554101      -0.82072924      -0.42800286
N        0.71067104      -1.05823376      -0.31769822
C        1.23766670       0.30162152      -0.34268684
C        0.42684399      -0.07937915       0.83264618
H       -1.29029217      -1.72535986      -0.23333575
H       -0.97866661      -0.41550690      -1.40879337
H        0.82739936       0.99182329      -1.07749673
H        2.31529251       0.34036845      -0.22474455
H        0.87059444      -0.32528195       1.79215719
11
Frame=15 idx=000524 GeodesicLength=2.591041252207773 rxn_smarts="[O:1]=[C:2]1[C:3]([H:7])([H:8])[N:4]2[C:5]([H:9])([H:10])[C@@:6]12[H:11]>>[C:3]1([H:7])([H:8])[N:4]2[C:5]([H:9])([H:10])[C@:6]12[H:11].[O+:1]#[C-:2]"
O       -1.92695351       1.85803645       0.55050730
C       -1.41552352       0.86768596       0.83935987
C       -0.72082794      -0.79772850      -0.40940793
N        0.71884020      -1.05461787      -0.32093289
C        1.23788425       0.30805999      -0.34936294
C        0.41619322      -0.09981538       0.80826375
H       -1.29635969      -1.69973545      -0.20623997
H       -0.98566826      -0.40613672      -1.39484204
H        0.83128667       0.99554090      -1.08797516
H        2.31202214       0.36148550      -0.21307173
H        0.82910643      -0.33277488       1.78370173
11
Frame=16 idx=000524 GeodesicLength=2.7650260803629014 rxn_smarts="[O:1]=[C:2]1[C:3]([H:7])([H:8])[N:4]2[C:5]([H:9])([H:10])[C@@:6]12[H:11]>>[C:3]1([H:7])([H:8])[N:4]2[C:5]([H:9])([H:10])[C@:6]12[H:11].[O+:1]#[C-:2]"
O       -1.90468202       1.81880192       0.52322890
C       -1.37736921       0.84599768       0.84937400
C       -0.72588029      -0.77601047      -0.39169843
N        0.72710711      -1.05154699      -0.32327204
C        1.23766710       0.31417240      -0.35559915
C        0.40599677      -0.11959949       0.78460112
H       -1.30198687      -1.67553637      -0.18008166
H       -0.99218178      -0.39756512      -1.38150387
H        0.83476320       0.99859766      -1.09844409
H        2.30786483       0.38297351      -0.20099587
H        0.78870115      -0.34028474       1.77439110
