19
Frame=0 idx=008402 GeodesicLength=0.0 rxn_smarts="[C:1]([O:2][C@@:3]1([H:11])[C:4]([H:12])([H:13])[C:5]([H:14])([H:15])[C@:6]1([C:7]([H:17])([H:18])[H:19])[H:16])([H:8])([H:9])[H:10]>>[C-:1]([O+:2]=[C:3]1[C:4]([H:12])([H:13])[C:5]([H:14])([H:15])[C@:6]1([C:7]([H:17])([H:18])[H:19])[H:16])([H:8])[H:9].[H:10][H:11]"
C        2.48231173      -0.51820587      -0.41859180
O        1.24139760      -0.89599997      -0.17387630
C        0.35618249      -0.07112203       0.29314609
C        0.11772462       1.35350991      -0.12637429
C       -1.36998754       1.12484546       0.25200888
C       -1.10800537      -0.39623106       0.46579060
C       -1.71194811      -1.31804521      -0.58357234
H        2.64855458       0.50235041      -0.74121819
H        3.11211518      -1.32277907      -0.76582385
H        2.39629155       0.09683368       1.39856254
H        1.64153979       0.22133413       1.66722575
H        0.64897778       2.14506074       0.40206589
H        0.28142495       1.49264364      -1.20387931
H       -2.08900486       1.35136118      -0.53490004
H       -1.66787057       1.64413054       1.16134645
H       -1.37449257      -0.74938268       1.46494232
H       -2.79889103      -1.35564523      -0.48023501
H       -1.47926564      -0.97052792      -1.59339594
H       -1.32705455      -2.33413073      -0.48322149
19
Frame=1 idx=008402 GeodesicLength=0.0952712139180495 rxn_smarts="[C:1]([O:2][C@@:3]1([H:11])[C:4]([H:12])([H:13])[C:5]([H:14])([H:15])[C@:6]1([C:7]([H:17])([H:18])[H:19])[H:16])([H:8])([H:9])[H:10]>>[C-:1]([O+:2]=[C:3]1[C:4]([H:12])([H:13])[C:5]([H:14])([H:15])[C@:6]1([C:7]([H:17])([H:18])[H:19])[H:16])([H:8])[H:9].[H:10][H:11]"
C        2.49117003      -0.51427069      -0.39980076
O        1.24058816      -0.89045464      -0.18750954
C        0.35797734      -0.06673895       0.29438590
C        0.11475064       1.35461706      -0.13587209
C       -1.37082967       1.12668348       0.25036654
C       -1.10643940      -0.39314131       0.46817865
C       -1.71019829      -1.31819663      -0.57826589
H        2.67025346       0.50993858      -0.70550054
H        3.10559857      -1.30971272      -0.79384910
H        2.39766503       0.06879751       1.39945544
H        1.61900457       0.20347730       1.66277671
H        0.64677467       2.15106430       0.38454477
H        0.27335525       1.48593749      -1.21495027
H       -2.09386418       1.35051771      -0.53367073
H       -1.66416760       1.64923201       1.15935522
H       -1.37188786      -0.74431203       1.46834888
H       -2.79691600      -1.35743012      -0.47319240
H       -1.47957078      -0.97273313      -1.58921500
H       -1.32326395      -2.33327522      -0.47558581
19
Frame=2 idx=008402 GeodesicLength=0.18963542571647377 rxn_smarts="[C:1]([O:2][C@@:3]1([H:11])[C:4]([H:12])([H:13])[C:5]([H:14])([H:15])[C@:6]1([C:7]([H:17])([H:18])[H:19])[H:16])([H:8])([H:9])[H:10]>>[C-:1]([O+:2]=[C:3]1[C:4]([H:12])([H:13])[C:5]([H:14])([H:15])[C@:6]1([C:7]([H:17])([H:18])[H:19])[H:16])([H:8])[H:9].[H:10][H:11]"
C        2.49928086      -0.51129117      -0.38172280
O        1.23979405      -0.88493179      -0.20049090
C        0.35972099      -0.06239467       0.29579691
C        0.11186130       1.35558937      -0.14525360
C       -1.37162287       1.12856489       0.24867407
C       -1.10495918      -0.39000802       0.47058324
C       -1.70836920      -1.31831150      -0.57301508
H        2.69095066       0.51641510      -0.66967558
H        3.09928769      -1.29439151      -0.82139669
H        2.39977995       0.04027783       1.39995232
H        1.59673120       0.18596319       1.65827934
H        0.64462732       2.15689791       0.36704912
H        0.26539742       1.47905475      -1.22582741
H       -2.09856404       1.34973191      -0.53255294
H       -1.66047271       1.65444224       1.15722525
H       -1.36953210      -0.73915590       1.47173833
H       -2.79487510      -1.35914603      -0.46637128
H       -1.47963185      -0.97493556      -1.58505602
H       -1.31940439      -2.33237104      -0.46793631
19
Frame=3 idx=008402 GeodesicLength=0.28354805020082596 rxn_smarts="[C:1]([O:2][C@@:3]1([H:11])[C:4]([H:12])([H:13])[C:5]([H:14])([H:15])[C@:6]1([C:7]([H:17])([H:18])[H:19])[H:16])([H:8])([H:9])[H:10]>>[C-:1]([O+:2]=[C:3]1[C:4]([H:12])([H:13])[C:5]([H:14])([H:15])[C@:6]1([C:7]([H:17])([H:18])[H:19])[H:16])([H:8])[H:9].[H:10][H:11]"
C        2.50668847      -0.50914286      -0.36441108
O        1.23901287      -0.87945440      -0.21281619
C        0.36141311      -0.05807758       0.29736295
C        0.10904107       1.35643523      -0.15453437
C       -1.37237797       1.13048933       0.24693527
C       -1.10356339      -0.38683136       0.47300072
C       -1.70647052      -1.31838902      -0.56781857
H        2.71066309       0.52187890      -0.63381182
H        3.09320018      -1.27695229      -0.84833123
H        2.40276266       0.01114572       1.40004464
H        1.57463406       0.16884126       1.65376785
H        0.64253083       2.16256515       0.34955489
H        0.25752478       1.47199580      -1.23652791
H       -2.10312775       1.34900305      -0.53153260
H       -1.65678592       1.65975616       1.15496601
H       -1.36741584      -0.73391849       1.47510805
H       -2.79277712      -1.36079422      -0.45976023
H       -1.47946572      -0.97713216      -1.58091892
H       -1.31548691      -2.33141822      -0.46027746
19
Frame=4 idx=008402 GeodesicLength=0.3774258576808899 rxn_smarts="[C:1]([O:2][C@@:3]1([H:11])[C:4]([H:12])([H:13])[C:5]([H:14])([H:15])[C@:6]1([C:7]([H:17])([H:18])[H:19])[H:16])([H:8])([H:9])[H:10]>>[C-:1]([O+:2]=[C:3]1[C:4]([H:12])([H:13])[C:5]([H:14])([H:15])[C@:6]1([C:7]([H:17])([H:18])[H:19])[H:16])([H:8])[H:9].[H:10][H:11]"
C        2.51344047      -0.50769936      -0.34788766
O        1.23824693      -0.87404302      -0.22446682
C        0.36305452      -0.05377265       0.29908037
C        0.10627629       1.35716305      -0.16373019
C       -1.37310541       1.13245724       0.24514252
C       -1.10225062      -0.38360816       0.47543053
C       -1.70450358      -1.31843202      -0.56266970
H        2.72941567       0.52642575      -0.59793071
H        3.08729137      -1.25749738      -0.87461714
H        2.40674308      -0.01877540       1.39972299
H        1.55262647       0.15217688       1.64928830
H        0.64047619       2.16807328       0.33203873
H        0.24972518       1.46475384      -1.24706833
H       -2.10757129       1.34832518      -0.53061481
H       -1.65311506       1.66517499       1.15256905
H       -1.36553706      -0.72859359       1.47845804
H       -2.79062317      -1.36237987      -0.45334949
H       -1.47907519      -0.97932997      -1.57679875
H       -1.31151476      -2.33041879      -0.45259694
19
Frame=5 idx=008402 GeodesicLength=0.4714613496450957 rxn_smarts="[C:1]([O:2][C@@:3]1([H:11])[C:4]([H:12])([H:13])[C:5]([H:14])([H:15])[C@:6]1([C:7]([H:17])([H:18])[H:19])[H:16])([H:8])([H:9])[H:10]>>[C-:1]([O+:2]=[C:3]1[C:4]([H:12])([H:13])[C:5]([H:14])([H:15])[C@:6]1([C:7]([H:17])([H:18])[H:19])[H:16])([H:8])[H:9].[H:10][H:11]"
C        2.51958759      -0.50684679      -0.33216602
O        1.23749786      -0.86871662      -0.23541727
C        0.36464768      -0.04946582       0.30095081
C        0.10356008       1.35777642      -0.17286055
C       -1.37381300       1.13447080       0.24327881
C       -1.10101798      -0.38033228       0.47787420
C       -1.70246583      -1.31844828      -0.55755598
H        2.74724413       0.53015341      -0.56201421
H        3.08145997      -1.23605164      -0.90028140
H        2.41182007      -0.04973395       1.39900745
H        1.53064862       0.13605944       1.64487835
H        0.63845881       2.17342759       0.31447162
H        0.24199630       1.45731258      -1.25746807
H       -2.11190458       1.34768840      -0.52982038
H       -1.64947026       1.67070948       1.15001247
H       -1.36389468      -0.72316323       1.48179417
H       -2.78841167      -1.36391053      -0.44712707
H       -1.47845622      -0.98154979      -1.57268782
H       -1.30748690      -2.32937920      -0.44486911
19
Frame=6 idx=008402 GeodesicLength=0.5659700531566263 rxn_smarts="[C:1]([O:2][C@@:3]1([H:11])[C:4]([H:12])([H:13])[C:5]([H:14])([H:15])[C@:6]1([C:7]([H:17])([H:18])[H:19])[H:16])([H:8])([H:9])[H:10]>>[C-:1]([O+:2]=[C:3]1[C:4]([H:12])([H:13])[C:5]([H:14])([H:15])[C@:6]1([C:7]([H:17])([H:18])[H:19])[H:16])([H:8])[H:9].[H:10][H:11]"
C        2.52516817      -0.50646156      -0.31727054
O        1.23676119      -0.86349480      -0.24565045
C        0.36619071      -0.04514044       0.30297531
C        0.10087952       1.35828082      -0.18194878
C       -1.37451152       1.13653265       0.24132456
C       -1.09986760      -0.37699507       0.48033354
C       -1.70036276      -1.31844308      -0.55245902
H        2.76418102       0.53315728      -0.52600907
H        3.07568002      -1.21261881      -0.92532912
H        2.41812565      -0.08203975       1.39787514
H        1.50862176       0.12059030       1.64057431
H        0.63646730       2.17863615       0.29681907
H        0.23433466       1.44965434      -1.26774872
H       -2.11613978       1.34708280      -0.52917054
H       -1.64586256       1.67637112       1.14726912
H       -1.36249254      -0.71760648       1.48512047
H       -2.78614738      -1.36539162      -0.44107282
H       -1.47761299      -0.98381077      -1.56857200
H       -1.30341287      -2.32830308      -0.43706045
19
Frame=7 idx=008402 GeodesicLength=0.6610203243659423 rxn_smarts="[C:1]([O:2][C@@:3]1([H:11])[C:4]([H:12])([H:13])[C:5]([H:14])([H:15])[C@:6]1([C:7]([H:17])([H:18])[H:19])[H:16])([H:8])([H:9])[H:10]>>[C-:1]([O+:2]=[C:3]1[C:4]([H:12])([H:13])[C:5]([H:14])([H:15])[C@:6]1([C:7]([H:17])([H:18])[H:19])[H:16])([H:8])[H:9].[H:10][H:11]"
C        2.53022173      -0.50643554      -0.30321403
O        1.23603507      -0.85838683      -0.25514680
C        0.36768403      -0.04077824       0.30515736
C        0.09822598       1.35868027      -0.19102120
C       -1.37520969       1.13864680       0.23925302
C       -1.09879891      -0.37358480       0.48281258
C       -1.69819359      -1.31842569      -0.54735500
H        2.78026508       0.53552580      -0.48981532
H        3.06988379      -1.18714773      -0.94981704
H        2.42574204      -0.11605591       1.39630802
H        1.48650009       0.10588780       1.63640410
H        0.63449231       2.18370790       0.27904173
H        0.22674297       1.44175670      -1.27793474
H       -2.12028563       1.34649431      -0.52869743
H       -1.64230510       1.68217812       1.14430124
H       -1.36133209      -0.71189267       1.48844559
H       -2.78382987      -1.36683300      -0.43516273
H       -1.47654431      -0.98614173      -1.56443269
H       -1.29929389      -2.32719553      -0.42912666
19
Frame=8 idx=008402 GeodesicLength=0.7564517522548886 rxn_smarts="[C:1]([O:2][C@@:3]1([H:11])[C:4]([H:12])([H:13])[C:5]([H:14])([H:15])[C@:6]1([C:7]([H:17])([H:18])[H:19])[H:16])([H:8])([H:9])[H:10]>>[C-:1]([O+:2]=[C:3]1[C:4]([H:12])([H:13])[C:5]([H:14])([H:15])[C@:6]1([C:7]([H:17])([H:18])[H:19])[H:16])([H:8])[H:9].[H:10][H:11]"
C        2.53479584      -0.50665037      -0.28998280
O        1.23533742      -0.85341119      -0.26389475
C        0.36913883      -0.03635995       0.30750336
C        0.09559419       1.35897091      -0.20011337
C       -1.37592069       1.14082317       0.23703026
C       -1.09780508      -0.37007962       0.48532094
C       -1.69596582      -1.31841164      -0.54221493
H        2.79557659       0.53732802      -0.45326376
H        3.06399721      -1.15944559      -0.97379653
H        2.43464134      -0.15228655       1.39419541
H        1.46431213       0.09209174       1.63240777
H        0.63253317       2.18865078       0.26109358
H        0.21921947       1.43357266      -1.28806671
H       -2.12436880       1.34590364      -0.52845104
H       -1.63881446       1.68817297       1.14106800
H       -1.36039886      -0.70595858       1.49179662
H       -2.78147728      -1.36824379      -0.42936368
H       -1.47526695      -0.98859938      -1.56025911
H       -1.29512824      -2.32606721      -0.42100926
19
Frame=9 idx=008402 GeodesicLength=0.8527014692223995 rxn_smarts="[C:1]([O:2][C@@:3]1([H:11])[C:4]([H:12])([H:13])[C:5]([H:14])([H:15])[C@:6]1([C:7]([H:17])([H:18])[H:19])[H:16])([H:8])([H:9])[H:10]>>[C-:1]([O+:2]=[C:3]1[C:4]([H:12])([H:13])[C:5]([H:14])([H:15])[C@:6]1([C:7]([H:17])([H:18])[H:19])[H:16])([H:8])[H:9].[H:10][H:11]"
C        2.53888471      -0.50696880      -0.27765843
O        1.23461870      -0.84848782      -0.27191948
C        0.37053276      -0.03184428       0.30999985
C        0.09295369       1.35919574      -0.20923767
C       -1.37664539       1.14305290       0.23466178
C       -1.09688942      -0.36649040       0.48785423
C       -1.69364069      -1.31839158      -0.53701126
H        2.81005086       0.53862572      -0.41614766
H        3.05810378      -1.12997997      -0.99733549
H        2.44505081      -0.19070419       1.39146915
H        1.44178132       0.07924069       1.62855123
H        0.63053854       2.19350117       0.24292635
H        0.21176333       1.42517587      -1.29813470
H       -2.12836323       1.34531724      -0.52839311
H       -1.63539111       1.69430639       1.13755762
H       -1.35970985      -0.69986807       1.49514428
H       -2.77901774      -1.36964600      -0.42363969
H       -1.47373019      -0.99112523      -1.55599687
H       -1.29089088      -2.32490937      -0.41269014
19
Frame=10 idx=008402 GeodesicLength=0.9493223957770719 rxn_smarts="[C:1]([O:2][C@@:3]1([H:11])[C:4]([H:12])([H:13])[C:5]([H:14])([H:15])[C@:6]1([C:7]([H:17])([H:18])[H:19])[H:16])([H:8])([H:9])[H:10]>>[C-:1]([O+:2]=[C:3]1[C:4]([H:12])([H:13])[C:5]([H:14])([H:15])[C@:6]1([C:7]([H:17])([H:18])[H:19])[H:16])([H:8])[H:9].[H:10][H:11]"
C        2.54257261      -0.50730201      -0.26614159
O        1.23391883      -0.84372050      -0.27915945
C        0.37188905      -0.02723785       0.31268089
C        0.09033324       1.35930327      -0.21844735
C       -1.37738963       1.14535435       0.23206321
C       -1.09604935      -0.36277435       0.49043174
C       -1.69125701      -1.31840115      -0.53169776
H        2.82383756       0.53942954      -0.37824670
H        3.05192076      -1.09788530      -1.02053792
H        2.45685913      -0.23220471       1.38794867
H        1.41911884       0.06754001       1.62492780
H        0.62855682       2.19822549       0.22448423
H        0.20441306       1.41641454      -1.30820421
H       -2.13229014       1.34469083      -0.52866169
H       -1.63205542       1.70068408       1.13366304
H       -1.35926121      -0.69346578       1.49854490
H       -2.77652331      -1.37103875      -0.41795633
H       -1.47197719      -0.99386504      -1.55164074
H       -1.28661663      -2.32374667      -0.40405073
19
Frame=11 idx=008402 GeodesicLength=1.0463410176887586 rxn_smarts="[C:1]([O:2][C@@:3]1([H:11])[C:4]([H:12])([H:13])[C:5]([H:14])([H:15])[C@:6]1([C:7]([H:17])([H:18])[H:19])[H:16])([H:8])([H:9])[H:10]>>[C-:1]([O+:2]=[C:3]1[C:4]([H:12])([H:13])[C:5]([H:14])([H:15])[C@:6]1([C:7]([H:17])([H:18])[H:19])[H:16])([H:8])[H:9].[H:10][H:11]"
C        2.54589841      -0.50756816      -0.25542200
O        1.23321935      -0.83913416      -0.28559226
C        0.37320299      -0.02253519       0.31555799
C        0.08774628       1.35927805      -0.22777825
C       -1.37814355       1.14772768       0.22918698
C       -1.09528886      -0.35892178       0.49305962
C       -1.68880929      -1.31845075      -0.52623016
H        2.83694385       0.53973629      -0.33931086
H        3.04524852      -1.06286533      -1.04350496
H        2.47019483      -0.27713577       1.38351597
H        1.39625976       0.05707042       1.62155236
H        0.62659973       2.20280666       0.20570427
H        0.19721617       1.40724359      -1.31829925
H       -2.13611917       1.34401049      -0.52931465
H       -1.62881043       1.70732538       1.12930890
H       -1.35907396      -0.68672016       1.50200441
H       -2.77398107      -1.37242685      -0.41227638
H       -1.46998730      -0.99685239      -1.54714902
H       -1.28231627      -2.32258802      -0.39501270
19
Frame=12 idx=008402 GeodesicLength=1.1437535629052895 rxn_smarts="[C:1]([O:2][C@@:3]1([H:11])[C:4]([H:12])([H:13])[C:5]([H:14])([H:15])[C@:6]1([C:7]([H:17])([H:18])[H:19])[H:16])([H:8])([H:9])[H:10]>>[C-:1]([O+:2]=[C:3]1[C:4]([H:12])([H:13])[C:5]([H:14])([H:15])[C@:6]1([C:7]([H:17])([H:18])[H:19])[H:16])([H:8])[H:9].[H:10][H:11]"
C        2.54890261      -0.50766937      -0.24547557
O        1.23251419      -0.83476099      -0.29119448
C        0.37447493      -0.01773242       0.31864291
C        0.08520658       1.35910122      -0.23727147
C       -1.37889968       1.15017796       0.22597980
C       -1.09461193      -0.35491602       0.49574780
C       -1.68630333      -1.31855661      -0.52055994
H        2.84938831       0.53951548      -0.29904559
H        3.03792597      -1.02450419      -1.06624831
H        2.48514678      -0.32596046       1.37787909
H        1.37317294       0.04792501       1.61846791
H        0.62468602       2.20722742       0.18652082
H        0.19021266       1.39760404      -1.32845438
H       -2.13983120       1.34325873      -0.53042069
H       -1.62565700       1.71426888       1.12441418
H       -1.35916652      -0.67957354       1.50554004
H       -2.77139779      -1.37381452      -0.40655508
H       -1.46775543      -1.00014484      -1.54248229
H       -1.27800811      -2.32144578      -0.38548473
19
Frame=13 idx=008402 GeodesicLength=1.2412366668654042 rxn_smarts="[C:1]([O:2][C@@:3]1([H:11])[C:4]([H:12])([H:13])[C:5]([H:14])([H:15])[C@:6]1([C:7]([H:17])([H:18])[H:19])[H:16])([H:8])([H:9])[H:10]>>[C-:1]([O+:2]=[C:3]1[C:4]([H:12])([H:13])[C:5]([H:14])([H:15])[C@:6]1([C:7]([H:17])([H:18])[H:19])[H:16])([H:8])[H:9].[H:10][H:11]"
C        2.55162071      -0.50752724      -0.23630259
O        1.23179728      -0.83062080      -0.29596113
C        0.37570623      -0.01282439       0.32193785
C        0.08272530       1.35875106      -0.24696369
C       -1.37965315       1.15270725       0.22239937
C       -1.09401892      -0.35074024       0.49850335
C       -1.68374782      -1.31872864      -0.51464427
H        2.86117814       0.53871197      -0.25719488
H        3.02985194      -0.98243103      -1.08870680
H        2.50174645      -0.37906422       1.37076195
H        1.34986146       0.04019284       1.61569029
H        0.62283784       2.21146244       0.16687499
H        0.18342727       1.38744163      -1.33869897
H       -2.14341719       1.34241653      -0.53203197
H       -1.62259371       1.72154342       1.11891485
H       -1.35954274      -0.67197299       1.50916624
H       -2.76878263      -1.37520345      -0.40074828
H       -1.46528917      -1.00378856      -1.53760541
H       -1.27370728      -2.32032557      -0.37539089
19
Frame=14 idx=008402 GeodesicLength=1.3386676085117017 rxn_smarts="[C:1]([O:2][C@@:3]1([H:11])[C:4]([H:12])([H:13])[C:5]([H:14])([H:15])[C@:6]1([C:7]([H:17])([H:18])[H:19])[H:16])([H:8])([H:9])[H:10]>>[C-:1]([O+:2]=[C:3]1[C:4]([H:12])([H:13])[C:5]([H:14])([H:15])[C@:6]1([C:7]([H:17])([H:18])[H:19])[H:16])([H:8])[H:9].[H:10][H:11]"
C        2.55408247      -0.50704605      -0.22788069
O        1.23106003      -0.82674386      -0.29986129
C        0.37689469      -0.00780724       0.32546272
C        0.08032118       1.35820020      -0.25689005
C       -1.38039584       1.15531747       0.21838827
C       -1.09351687      -0.34637387       0.50133828
C       -1.68115049      -1.31898222      -0.50842847
H        2.87231158       0.53720935      -0.21342450
H        3.02090188      -0.93615870      -1.11081262
H        2.52007871      -0.43687401       1.36170091
H        1.32629053       0.03396927       1.61327312
H        0.62108580       2.21547951       0.14670626
H        0.17690789       1.37668578      -1.34905749
H       -2.14685453       1.34146090      -0.53422677
H       -1.61962477       1.72918806       1.11272020
H       -1.36022663      -0.66385050       1.51289989
H       -2.76614576      -1.37659486      -0.39480913
H       -1.46258435      -1.00784587      -1.53247002
H       -1.26943552      -2.31923337      -0.36462862
19
Frame=15 idx=008402 GeodesicLength=1.435774979062373 rxn_smarts="[C:1]([O:2][C@@:3]1([H:11])[C:4]([H:12])([H:13])[C:5]([H:14])([H:15])[C@:6]1([C:7]([H:17])([H:18])[H:19])[H:16])([H:8])([H:9])[H:10]>>[C-:1]([O+:2]=[C:3]1[C:4]([H:12])([H:13])[C:5]([H:14])([H:15])[C@:6]1([C:7]([H:17])([H:18])[H:19])[H:16])([H:8])[H:9].[H:10][H:11]"
C        2.55631330      -0.50614356      -0.22019618
O        1.23029812      -0.82315865      -0.30286038
C        0.37803797      -0.00267970       0.32923726
C        0.07801329       1.35741673      -0.26708131
C       -1.38112405       1.15801124       0.21388499
C       -1.09311233      -0.34179391       0.50426391
C       -1.67851662      -1.31932955      -0.50185746
H        2.88278570       0.53485123      -0.16740882
H        3.01092084      -0.88517296      -1.13241148
H        2.54023771      -0.49977388       1.35015981
H        1.30244567       0.02933414       1.61126736
H        0.61946344       2.21923423       0.12596355
H        0.17070244       1.36526620      -1.35955064
H       -2.15012414       1.34036828      -0.53709195
H       -1.61676369       1.73724166       1.10573483
H       -1.36124149      -0.65513127       1.51675978
H       -2.76349599      -1.37798492      -0.38869333
H       -1.45963320      -1.01238107      -1.52702939
H       -1.26520698      -2.31817425      -0.35309056
19
Frame=16 idx=008402 GeodesicLength=1.532231381749195 rxn_smarts="[C:1]([O:2][C@@:3]1([H:11])[C:4]([H:12])([H:13])[C:5]([H:14])([H:15])[C@:6]1([C:7]([H:17])([H:18])[H:19])[H:16])([H:8])([H:9])[H:10]>>[C-:1]([O+:2]=[C:3]1[C:4]([H:12])([H:13])[C:5]([H:14])([H:15])[C@:6]1([C:7]([H:17])([H:18])[H:19])[H:16])([H:8])[H:9].[H:10][H:11]"
C        2.55833708      -0.50473172      -0.21324400
O        1.22949899      -0.81991901      -0.30494522
C        0.37913133       0.00254852       0.33327427
C        0.07583242       1.35636801      -0.27757838
C       -1.38182427       1.16080179       0.20882012
C       -1.09281623      -0.33697922       0.50729711
C       -1.67586357      -1.31979815      -0.49486485
H        2.89257457       0.53138628      -0.11874639
H        2.99978708      -0.82882895      -1.15326479
H        2.56231904      -0.56809449       1.33545122
H        1.27829891       0.02632814       1.60974094
H        0.61802336       2.22267852       0.10458834
H        0.16487357       1.35311200      -1.37021632
H       -2.15319127       1.33913032      -0.54072927
H       -1.61401387       1.74576721       1.09785572
H       -1.36261699      -0.64573435       1.52078078
H       -2.76085274      -1.37937539      -0.38233737
H       -1.45643976      -1.01748078      -1.52123412
H       -1.26105766      -2.31717873      -0.34064780
