14
Frame=0 idx=006555 GeodesicLength=0.0 rxn_smarts="[O:1]([C@@:2]1([H:9])[C@@:3]2([H:10])[C@:4]3([H:11])[C:5]([H:12])([H:13])[N:6]2[C@:7]13[H:14])[H:8]>>[O:1]=[C:2]([C@@:3]1([H:10])[C:4]2([H:11])[C:5]([H:12])([H:13])[N:6]1[C:7]2([H:8])[H:14])[H:9]"
O        2.45785519       0.25651126       0.09650832
C        1.58964578       0.05825179      -0.83799461
C        0.19364401      -0.43173602      -0.71776101
C       -0.31599844      -0.50083254       0.72706334
C       -1.69657442      -0.22215239       0.13622225
N       -0.81125922       0.69813508      -0.68847664
C       -0.04461317       1.02155196       0.62868422
H        1.84078623       0.59388425       0.81714406
H        2.06429691      -0.03390556      -1.81809142
H       -0.02465567      -1.21030980      -1.45904684
H       -0.00847480      -1.21849244       1.49393148
H       -2.21087205      -1.00679016      -0.43108264
H       -2.39954344       0.33451560       0.75674090
H       -0.63423686       1.66136894       1.29615865
14
Frame=1 idx=006555 GeodesicLength=0.08966922406037979 rxn_smarts="[O:1]([C@@:2]1([H:9])[C@@:3]2([H:10])[C@:4]3([H:11])[C:5]([H:12])([H:13])[N:6]2[C@:7]13[H:14])[H:8]>>[O:1]=[C:2]([C@@:3]1([H:10])[C:4]2([H:11])[C:5]([H:12])([H:13])[N:6]1[C:7]2([H:8])[H:14])[H:9]"
O        2.45895582       0.21769152       0.10770622
C        1.58382657       0.05446301      -0.82761733
C        0.19183955      -0.45080920      -0.71653389
C       -0.31914266      -0.50656729       0.72864096
C       -1.69698751      -0.22135733       0.13535023
N       -0.80654057       0.68682056      -0.69635831
C       -0.03287664       1.01230413       0.61439040
H        1.84633533       0.61833768       0.82737579
H        2.03932485       0.03854400      -1.82140769
H       -0.02477244      -1.23154466      -1.45518810
H       -0.01776422      -1.22059034       1.50094417
H       -2.21443186      -1.00659625      -0.42780427
H       -2.39644396       0.34308752       0.75288086
H       -0.61132226       1.66621663       1.27762095
14
Frame=2 idx=006555 GeodesicLength=0.17953260244130426 rxn_smarts="[O:1]([C@@:2]1([H:9])[C@@:3]2([H:10])[C@:4]3([H:11])[C:5]([H:12])([H:13])[N:6]2[C@:7]13[H:14])[H:8]>>[O:1]=[C:2]([C@@:3]1([H:10])[C:4]2([H:11])[C:5]([H:12])([H:13])[N:6]1[C:7]2([H:8])[H:14])[H:9]"
O        2.45884322       0.18212161       0.11767429
C        1.57816034       0.05019818      -0.81808914
C        0.18984852      -0.46918632      -0.71587709
C       -0.32207409      -0.51252289       0.72976147
C       -1.69736013      -0.22046281       0.13441239
N       -0.80197819       0.67611968      -0.70387365
C       -0.02112846       1.00265534       0.60063307
H        1.85252331       0.64390765       0.83546484
H        2.01482199       0.10679690      -1.81941760
H       -0.02553265      -1.25176728      -1.45211676
H       -0.02658096      -1.22326908       1.50706008
H       -2.21811281      -1.00592021      -0.42494564
H       -2.39323400       0.35127120       0.74940115
H       -0.58819610       1.67005803       1.25991258
14
Frame=3 idx=006555 GeodesicLength=0.2694280111852109 rxn_smarts="[O:1]([C@@:2]1([H:9])[C@@:3]2([H:10])[C@:4]3([H:11])[C:5]([H:12])([H:13])[N:6]2[C@:7]13[H:14])[H:8]>>[O:1]=[C:2]([C@@:3]1([H:10])[C:4]2([H:11])[C:5]([H:12])([H:13])[N:6]1[C:7]2([H:8])[H:14])[H:9]"
O        2.45742880       0.14978647       0.12656031
C        1.57234811       0.04581957      -0.80923151
C        0.18770386      -0.48682348      -0.71565647
C       -0.32475807      -0.51860156       0.73033967
C       -1.69738968      -0.21946453       0.13335705
N       -0.79741184       0.66600731      -0.71082327
C       -0.00942518       0.99268780       0.58752807
H        1.85879411       0.67045889       0.84173539
H        1.99040060       0.17026637      -1.81286696
H       -0.02679969      -1.27100294      -1.44966318
H       -0.03499121      -1.22638348       1.51202539
H       -2.22146101      -1.00477113      -0.42263399
H       -2.38954792       0.35906760       0.74619434
H       -0.56489088       1.67295310       1.24313515
14
Frame=4 idx=006555 GeodesicLength=0.3594770337930271 rxn_smarts="[O:1]([C@@:2]1([H:9])[C@@:3]2([H:10])[C@:4]3([H:11])[C:5]([H:12])([H:13])[N:6]2[C@:7]13[H:14])[H:8]>>[O:1]=[C:2]([C@@:3]1([H:10])[C:4]2([H:11])[C:5]([H:12])([H:13])[N:6]1[C:7]2([H:8])[H:14])[H:9]"
O        2.45550679       0.12011696       0.13464676
C        1.56677488       0.04149331      -0.80108876
C        0.18547281      -0.50372535      -0.71586004
C       -0.32732183      -0.52487167       0.73064954
C       -1.69751281      -0.21840493       0.13226137
N       -0.79302375       0.65653668      -0.71745361
C        0.00219237       0.98245619       0.57501567
H        1.86544368       0.69807965       0.84634193
H        1.96668175       0.22948371      -1.80291120
H       -0.02850918      -1.28929163      -1.44778456
H       -0.04306804      -1.23007362       1.51640280
H       -2.22501525      -1.00323622      -0.42073642
H       -2.38600835       0.36644497       0.74332478
H       -0.54161305       1.67499195       1.22719173
14
Frame=5 idx=006555 GeodesicLength=0.44964868909087197 rxn_smarts="[O:1]([C@@:2]1([H:9])[C@@:3]2([H:10])[C@:4]3([H:11])[C:5]([H:12])([H:13])[N:6]2[C@:7]13[H:14])[H:8]>>[O:1]=[C:2]([C@@:3]1([H:10])[C:4]2([H:11])[C:5]([H:12])([H:13])[N:6]1[C:7]2([H:8])[H:14])[H:9]"
O        2.45260399       0.09264126       0.14212124
C        1.56107743       0.03714622      -0.79344109
C        0.18315372      -0.51998056      -0.71639769
C       -0.32971331      -0.53122462       0.73054426
C       -1.69732932      -0.21724234       0.13110090
N       -0.78861688       0.64757004      -0.72356014
C        0.01367163       0.97197917       0.56313261
H        1.87187657       0.72681700       0.84930794
H        1.94327070       0.28468450      -1.78984091
H       -0.03053758      -1.30677201      -1.44636090
H       -0.05083626      -1.23409644       1.51984742
H       -2.22820687      -1.00130471      -0.41926366
H       -2.38208585       0.37350714       0.74073678
H       -0.51832798       1.67627534       1.21207323
14
Frame=6 idx=006555 GeodesicLength=0.5398764946780075 rxn_smarts="[O:1]([C@@:2]1([H:9])[C@@:3]2([H:10])[C@:4]3([H:11])[C:5]([H:12])([H:13])[N:6]2[C@:7]13[H:14])[H:8]>>[O:1]=[C:2]([C@@:3]1([H:10])[C:4]2([H:11])[C:5]([H:12])([H:13])[N:6]1[C:7]2([H:8])[H:14])[H:9]"
O        2.44931087       0.06736850       0.14906763
C        1.55546937       0.03310095      -0.78625479
C        0.18080764      -0.53552089      -0.71719283
C       -0.33198771      -0.53772278       0.73020058
C       -1.69708981      -0.21600801       0.12988382
N       -0.78428726       0.63923084      -0.72924967
C        0.02500679       0.96132463       0.55190161
H        1.87824374       0.75655001       0.85092236
H        1.92038795       0.33568902      -1.77459731
H       -0.03283022      -1.32338564      -1.44529531
H       -0.05835466      -1.23864268       1.52268656
H       -2.23134341      -0.99900328      -0.41824126
H       -2.37816238       0.38019732       0.73838222
H       -0.49517091       1.67682201       1.19778640
14
Frame=7 idx=006555 GeodesicLength=0.6301983915214322 rxn_smarts="[O:1]([C@@:2]1([H:9])[C@@:3]2([H:10])[C@:4]3([H:11])[C:5]([H:12])([H:13])[N:6]2[C@:7]13[H:14])[H:8]>>[O:1]=[C:2]([C@@:3]1([H:10])[C:4]2([H:11])[C:5]([H:12])([H:13])[N:6]1[C:7]2([H:8])[H:14])[H:9]"
O        2.44565576       0.04392005       0.15563761
C        1.54994861       0.02927037      -0.77945308
C        0.17844337      -0.55042746      -0.71822715
C       -0.33418169      -0.54433564       0.72965022
C       -1.69677894      -0.21470720       0.12862566
N       -0.77998382       0.63142864      -0.73453223
C        0.03620319       0.95050394       0.54132184
H        1.88442169       0.78735643       0.85122153
H        1.89807604       0.38295794      -1.75759959
H       -0.03535105      -1.33924118      -1.44457867
H       -0.06570322      -1.24361187       1.52497960
H       -2.23440065      -0.99637133      -0.41763833
H       -2.37421146       0.38655461       0.73627626
H       -0.47213784       1.67670269       1.18431633
14
Frame=8 idx=006555 GeodesicLength=0.7205908173400621 rxn_smarts="[O:1]([C@@:2]1([H:9])[C@@:3]2([H:10])[C@:4]3([H:11])[C:5]([H:12])([H:13])[N:6]2[C@:7]13[H:14])[H:8]>>[O:1]=[C:2]([C@@:3]1([H:10])[C:4]2([H:11])[C:5]([H:12])([H:13])[N:6]1[C:7]2([H:8])[H:14])[H:9]"
O        2.44169319       0.02207290       0.16191864
C        1.54449422       0.02568456      -0.77294347
C        0.17607964      -0.56472255      -0.71944741
C       -0.33630162      -0.55105752       0.72891534
C       -1.69637082      -0.21333487       0.12733060
N       -0.77567911       0.62415497      -0.73939246
C        0.04725177       0.93953967       0.53139482
H        1.89027470       0.81922492       0.85027671
H        1.87632177       0.42665747      -1.73925272
H       -0.03804806      -1.35436790      -1.44414532
H       -0.07291268      -1.24899698       1.52675214
H       -2.23732791      -0.99341254      -0.41744213
H       -2.37021269       0.39260174       0.73439360
H       -0.44926240       1.67595612       1.17164168
14
Frame=9 idx=006555 GeodesicLength=0.8110411580397346 rxn_smarts="[O:1]([C@@:2]1([H:9])[C@@:3]2([H:10])[C@:4]3([H:11])[C:5]([H:12])([H:13])[N:6]2[C@:7]13[H:14])[H:8]>>[O:1]=[C:2]([C@@:3]1([H:10])[C:4]2([H:11])[C:5]([H:12])([H:13])[N:6]1[C:7]2([H:8])[H:14])[H:9]"
O        2.43749544       0.00161115       0.16798733
C        1.53911575       0.02233898      -0.76665530
C        0.17373195      -0.57843677      -0.72081831
C       -0.33836305      -0.55788439       0.72802792
C       -1.69586778      -0.21188998       0.12600782
N       -0.77135199       0.61739014      -0.74383365
C        0.05815423       0.92844569       0.52211876
H        1.89570585       0.85216584       0.84813516
H        1.85514991       0.46700728      -1.71990306
H       -0.04088429      -1.36880032      -1.44395826
H       -0.08002163      -1.25478627       1.52805505
H       -2.24011919      -0.99013482      -0.41763553
H       -2.36617803       0.39835826       0.73272520
H       -0.42656717       1.67461521       1.15974687
14
Frame=10 idx=006555 GeodesicLength=0.9015431862080822 rxn_smarts="[O:1]([C@@:2]1([H:9])[C@@:3]2([H:10])[C@:4]3([H:11])[C:5]([H:12])([H:13])[N:6]2[C@:7]13[H:14])[H:8]>>[O:1]=[C:2]([C@@:3]1([H:10])[C:4]2([H:11])[C:5]([H:12])([H:13])[N:6]1[C:7]2([H:8])[H:14])[H:9]"
O        2.43312684      -0.01766245       0.17390649
C        1.53382304       0.01922255      -0.76052450
C        0.17141202      -0.59160310      -0.72230910
C       -0.34037943      -0.56481480       0.72701748
C       -1.69526985      -0.21037313       0.12466430
N       -0.76697841       0.61111499      -0.74786137
C        0.06892156       0.91723542       0.51349106
H        1.90062396       0.88619133       0.84483591
H        1.83456934       0.50422914      -1.69984054
H       -0.04383400      -1.38257603      -1.44398835
H       -0.08706943      -1.26097258       1.52893701
H       -2.24277191      -0.98654827      -0.41820607
H       -2.36211227       0.40384401       0.73126017
H       -0.40406147       1.67271293       1.14861752
14
Frame=11 idx=006555 GeodesicLength=0.9920895603468517 rxn_smarts="[O:1]([C@@:2]1([H:9])[C@@:3]2([H:10])[C@:4]3([H:11])[C:5]([H:12])([H:13])[N:6]2[C@:7]13[H:14])[H:8]>>[O:1]=[C:2]([C@@:3]1([H:10])[C:4]2([H:11])[C:5]([H:12])([H:13])[N:6]1[C:7]2([H:8])[H:14])[H:9]"
O        2.42863850      -0.03594636       0.17972761
C        1.52862785       0.01630757      -0.75449505
C        0.16913024      -0.60425402      -0.72389525
C       -0.34236033      -0.57184755       0.72590736
C       -1.69457681      -0.20878190       0.12330919
N       -0.76253887       0.60530924      -0.75148060
C        0.07956439       0.90591554       0.50550363
H        1.90493586       0.92132065       0.84038866
H        1.81459551       0.53855286      -1.67928373
H       -0.04687421      -1.39572749      -1.44421240
H       -0.09408394      -1.26754699       1.52943693
H       -2.24528343      -0.98265706      -0.41913404
H       -2.35801915       0.40908008       0.72999403
H       -0.38175562       1.67027543       1.13823366
14
Frame=12 idx=006555 GeodesicLength=1.0826733363213583 rxn_smarts="[O:1]([C@@:2]1([H:9])[C@@:3]2([H:10])[C@:4]3([H:11])[C:5]([H:12])([H:13])[N:6]2[C@:7]13[H:14])[H:8]>>[O:1]=[C:2]([C@@:3]1([H:10])[C:4]2([H:11])[C:5]([H:12])([H:13])[N:6]1[C:7]2([H:8])[H:14])[H:9]"
O        2.42407757      -0.05342039       0.18549207
C        1.52354234       0.01356830      -0.74851443
C        0.16689502      -0.61641923      -0.72555454
C       -0.34431398      -0.57898228       0.72471845
C       -1.69378639      -0.20711465       0.12195001
N       -0.75801100       0.59995476      -0.75469457
C        0.09009916       0.89449132       0.49815071
H        1.90854868       0.95758389       0.83479124
H        1.79523596       0.57018227      -1.65841399
H       -0.04998910      -1.40828251      -1.44461241
H       -0.10109463      -1.27450413       1.52958832
H       -2.24765243      -0.97846312      -0.42040617
H       -2.35389799       0.41408477       0.72892127
H       -0.35965321       1.66732101       1.12858404
14
Frame=13 idx=006555 GeodesicLength=1.17328866431844 rxn_smarts="[O:1]([C@@:2]1([H:9])[C@@:3]2([H:10])[C@:4]3([H:11])[C:5]([H:12])([H:13])[N:6]2[C@:7]13[H:14])[H:8]>>[O:1]=[C:2]([C@@:3]1([H:10])[C:4]2([H:11])[C:5]([H:12])([H:13])[N:6]1[C:7]2([H:8])[H:14])[H:9]"
O        2.41948252      -0.07026421       0.19123473
C        1.51857972       0.01097232      -0.74253540
C        0.16471361      -0.62812687      -0.72726941
C       -0.34624603      -0.58621975       0.72346795
C       -1.69289549      -0.20536814       0.12059517
N       -0.75337437       0.59503481      -0.75750589
C        0.10054347       0.88296459       0.49142515
H        1.91136400       0.99502054       0.82801941
H        1.77650375       0.59931642      -1.63736536
H       -0.05316603      -1.42026500      -1.44517600
H       -0.10812400      -1.28183996       1.52941878
H       -2.24987747      -0.97396525      -0.42200666
H       -2.34974596       0.41887645       0.72804069
H       -0.33775772       1.66386404       1.11965684
14
Frame=14 idx=006555 GeodesicLength=1.2639312322533642 rxn_smarts="[O:1]([C@@:2]1([H:9])[C@@:3]2([H:10])[C@:4]3([H:11])[C:5]([H:12])([H:13])[N:6]2[C@:7]13[H:14])[H:8]>>[O:1]=[C:2]([C@@:3]1([H:10])[C:4]2([H:11])[C:5]([H:12])([H:13])[N:6]1[C:7]2([H:8])[H:14])[H:9]"
O        2.41488681      -0.08665393       0.19698342
C        1.51375381       0.00848718      -0.73651419
C        0.16259287      -0.63940268      -0.72902503
C       -0.34815998      -0.59356130       0.72217076
C       -1.69189890      -0.20353823       0.11925287
N       -0.74860781       0.59053478      -0.75991567
C        0.11091756       0.87133548       0.48532109
H        1.91327607       1.03367774       0.82003417
H        1.75841091       0.62613995      -1.61623915
H       -0.05639490      -1.43169511      -1.44589503
H       -0.11519177      -1.28955217       1.52895174
H       -2.25195586      -0.96915971      -0.42392122
H       -2.34555713       0.42347309       0.72735254
H       -0.31607168       1.65991489       1.11144371
14
Frame=15 idx=006555 GeodesicLength=1.3545959349650247 rxn_smarts="[O:1]([C@@:2]1([H:9])[C@@:3]2([H:10])[C@:4]3([H:11])[C:5]([H:12])([H:13])[N:6]2[C@:7]13[H:14])[H:8]>>[O:1]=[C:2]([C@@:3]1([H:10])[C:4]2([H:11])[C:5]([H:12])([H:13])[N:6]1[C:7]2([H:8])[H:14])[H:9]"
O        2.41031840      -0.10276402       0.20276232
C        1.50908020       0.00607895      -0.73040789
C        0.16053891      -0.65026934      -0.73080797
C       -0.35005851      -0.60100897       0.72083865
C       -1.69078997      -0.20162000       0.11793109
N       -0.74368824       0.58644148      -0.76192177
C        0.12124503       0.85960061       0.47983395
H        1.91417100       1.07361790       0.81077080
H        1.74097203       0.65082356      -1.59510288
H       -0.05966903      -1.44258738      -1.44676312
H       -0.12231716      -1.29763999       1.52820388
H       -2.25388504      -0.96403882      -0.42613673
H       -2.34132267       0.42789108       0.72685760
H       -0.29459496       1.65547495       1.10394208
14
Frame=16 idx=006555 GeodesicLength=1.4452695036212817 rxn_smarts="[O:1]([C@@:2]1([H:9])[C@@:3]2([H:10])[C@:4]3([H:11])[C:5]([H:12])([H:13])[N:6]2[C@:7]13[H:14])[H:8]>>[O:1]=[C:2]([C@@:3]1([H:10])[C:4]2([H:11])[C:5]([H:12])([H:13])[N:6]1[C:7]2([H:8])[H:14])[H:9]"
O        2.40580588      -0.11876886       0.20858538
C        1.50457426       0.00372267      -0.72417476
C        0.15855897      -0.66074103      -0.73260831
C       -0.35194043      -0.60856133       0.71948319
C       -1.68956035      -0.19960664       0.11663875
N       -0.73859529       0.58275012      -0.76351984
C        0.13154777       0.84776257       0.47496295
H        1.91391418       1.11489602       0.80017353
H        1.72421643       0.67349379      -1.57402819
H       -0.06298025      -1.45294187      -1.44778653
H       -0.12950652      -1.30609771       1.52719232
H       -2.25565652      -0.95859603      -0.42863966
H       -2.33703578       0.43214252       0.72656310
H       -0.27334233       1.65054578       1.09715806
