11
Frame=0 idx=004757 GeodesicLength=0.0 rxn_smarts="[N:1]([C:2](=[O:3])[C:4]([C:5]#[C:6][H:11])([H:9])[H:10])([H:7])[H:8]>>[N:1]([C:2](=[O:3])/[C:4](=[C:5](\[C:6][H:11])[H:10])[H:9])([H:7])[H:8]"
N       -1.22273735       1.10762251       0.19510489
C       -1.28494183      -0.23761544       0.36075769
O       -2.30860296      -0.83723193       0.62070949
C        0.00311606      -0.96631163       0.23250174
C        1.20754590      -0.36822044      -0.09543365
C        2.19247582       0.45120778      -0.15081896
H       -2.04677523       1.64219123       0.40226162
H       -0.34295850       1.57986052       0.09377426
H       -0.06166776      -2.04126755       0.33525182
H        1.14663930      -1.12844392      -0.96340027
H        2.71790658       0.79820891      -1.03070858
11
Frame=1 idx=004757 GeodesicLength=0.06201713305706826 rxn_smarts="[N:1]([C:2](=[O:3])[C:4]([C:5]#[C:6][H:11])([H:9])[H:10])([H:7])[H:8]>>[N:1]([C:2](=[O:3])/[C:4](=[C:5](\[C:6][H:11])[H:10])[H:9])([H:7])[H:8]"
N       -1.21429725       1.10943522       0.20428513
C       -1.28311357      -0.23715548       0.34818773
O       -2.30987761      -0.83725204       0.59429323
C        0.00394703      -0.97095345       0.22060124
C        1.21563792      -0.37635116      -0.08739463
C        2.17300425       0.47498043      -0.15751926
H       -2.03848271       1.64461334       0.40932628
H       -0.33168181       1.57772329       0.10465604
H       -0.06035548      -2.04167338       0.36130173
H        1.13521096      -1.14952407      -0.96125284
H        2.71000826       0.80615730      -1.03648463
11
Frame=2 idx=004757 GeodesicLength=0.12396565923098483 rxn_smarts="[N:1]([C:2](=[O:3])[C:4]([C:5]#[C:6][H:11])([H:9])[H:10])([H:7])[H:8]>>[N:1]([C:2](=[O:3])/[C:4](=[C:5](\[C:6][H:11])[H:10])[H:9])([H:7])[H:8]"
N       -1.20665601       1.11090113       0.21376218
C       -1.28109243      -0.23665407       0.33624238
O       -2.31038874      -0.83751684       0.56928318
C        0.00525044      -0.97506727       0.20894422
C        1.22308073      -0.38335204      -0.08158650
C        2.15307830       0.49769066      -0.16469182
H       -2.03135309       1.64630015       0.41606166
H       -0.32162089       1.57576042       0.11507075
H       -0.05862550      -2.04026732       0.38728867
H        1.12263268      -1.17041871      -0.96047614
H        2.70569451       0.81262389      -1.03989858
11
Frame=3 idx=004757 GeodesicLength=0.18586774101753503 rxn_smarts="[N:1]([C:2](=[O:3])[C:4]([C:5]#[C:6][H:11])([H:9])[H:10])([H:7])[H:8]>>[N:1]([C:2](=[O:3])/[C:4](=[C:5](\[C:6][H:11])[H:10])[H:9])([H:7])[H:8]"
N       -1.19991231       1.11204094       0.22331051
C       -1.27912267      -0.23618545       0.32434090
O       -2.31026528      -0.83804405       0.54615069
C        0.00687856      -0.97873359       0.19743864
C        1.22985539      -0.38926794      -0.07810386
C        2.13283899       0.51948067      -0.17236829
H       -2.02522587       1.64736892       0.42324122
H       -0.31284510       1.57395449       0.12432754
H       -0.05644107      -2.03714779       0.41327107
H        1.10894334      -1.19132373      -0.96100916
H        2.70529602       0.81785752      -1.04059924
11
Frame=4 idx=004757 GeodesicLength=0.24775109796834063 rxn_smarts="[N:1]([C:2](=[O:3])[C:4]([C:5]#[C:6][H:11])([H:9])[H:10])([H:7])[H:8]>>[N:1]([C:2](=[O:3])/[C:4](=[C:5](\[C:6][H:11])[H:10])[H:9])([H:7])[H:8]"
N       -1.19348519       1.11290211       0.23307461
C       -1.27695623      -0.23567385       0.31281462
O       -2.30957891      -0.83857664       0.52448919
C        0.00889611      -0.98221814       0.18654516
C        1.23626309      -0.39468508      -0.07640394
C        2.11266823       0.53987378      -0.18043787
H       -2.01969818       1.64806624       0.42965321
H       -0.30464252       1.57216346       0.13303172
H       -0.05412554      -2.03276743       0.43875939
H        1.09413282      -1.21266139      -0.96239063
H        2.70652632       0.82357693      -1.03913545
11
Frame=5 idx=004757 GeodesicLength=0.3096194686155524 rxn_smarts="[N:1]([C:2](=[O:3])[C:4]([C:5]#[C:6][H:11])([H:9])[H:10])([H:7])[H:8]>>[N:1]([C:2](=[O:3])/[C:4](=[C:5](\[C:6][H:11])[H:10])[H:9])([H:7])[H:8]"
N       -1.18732750       1.11347192       0.24282097
C       -1.27471780      -0.23514711       0.30119943
O       -2.30843901      -0.83909509       0.50419836
C        0.01116110      -0.98558710       0.17610659
C        1.24229347      -0.39971470      -0.07644110
C        2.09267841       0.55892384      -0.18865779
H       -2.01435250       1.64845045       0.43646704
H       -0.29701347       1.57031363       0.14010829
H       -0.05173381      -2.02717257       0.46401559
H        1.07832935      -1.23465216      -0.96442292
H        2.70912176       0.83020891      -1.03539448
11
Frame=6 idx=004757 GeodesicLength=0.37143019209141787 rxn_smarts="[N:1]([C:2](=[O:3])[C:4]([C:5]#[C:6][H:11])([H:9])[H:10])([H:7])[H:8]>>[N:1]([C:2](=[O:3])/[C:4](=[C:5](\[C:6][H:11])[H:10])[H:9])([H:7])[H:8]"
N       -1.18142448       1.11374065       0.25293108
C       -1.27235677      -0.23458590       0.28992922
O       -2.30680318      -0.83963665       0.48566241
C        0.01370283      -0.98879767       0.16618237
C        1.24799436      -0.40431004      -0.07816551
C        2.07280154       0.57688762      -0.19723017
H       -2.00951557       1.64852280       0.44249444
H       -0.28994704       1.56845268       0.14628145
H       -0.04918859      -2.02050430       0.48847735
H        1.06137088      -1.25704474      -0.96714399
H        2.71336602       0.83727555      -1.02941865
11
Frame=7 idx=004757 GeodesicLength=0.43324712721170333 rxn_smarts="[N:1]([C:2](=[O:3])[C:4]([C:5]#[C:6][H:11])([H:9])[H:10])([H:7])[H:8]>>[N:1]([C:2](=[O:3])/[C:4](=[C:5](\[C:6][H:11])[H:10])[H:9])([H:7])[H:8]"
N       -1.17530039       1.11375969       0.26301216
C       -1.26976236      -0.23396054       0.27890583
O       -2.30479773      -0.83992239       0.46852331
C        0.01641215      -0.99218755       0.15672713
C        1.25356114      -0.40910584      -0.08108634
C        2.05365716       0.59308029      -0.20499547
H       -2.00417664       1.64857432       0.44899181
H       -0.28305469       1.56640085       0.14933297
H       -0.04684809      -2.01322674       0.51215495
H        1.04346311      -1.28027306      -0.97022179
H        2.71684634       0.84686097      -1.02134457
11
Frame=8 idx=004757 GeodesicLength=0.49507489431375834 rxn_smarts="[N:1]([C:2](=[O:3])[C:4]([C:5]#[C:6][H:11])([H:9])[H:10])([H:7])[H:8]>>[N:1]([C:2](=[O:3])/[C:4](=[C:5](\[C:6][H:11])[H:10])[H:9])([H:7])[H:8]"
N       -1.16926970       1.11355359       0.27273949
C       -1.26713103      -0.23327744       0.26754723
O       -2.30258821      -0.84016878       0.45174900
C        0.01927639      -0.99553022       0.14771200
C        1.25888703      -0.41371613      -0.08532128
C        2.03483398       0.60821140      -0.21252064
H       -1.99831975       1.64838162       0.45798117
H       -0.27689861       1.56433721       0.14894287
H       -0.04446907      -2.00496286       0.53566659
H        1.02480831      -1.30450252      -0.97323731
H        2.72087066       0.85767414      -1.01125912
11
Frame=9 idx=004757 GeodesicLength=0.5568772393963298 rxn_smarts="[N:1]([C:2](=[O:3])[C:4]([C:5]#[C:6][H:11])([H:9])[H:10])([H:7])[H:8]>>[N:1]([C:2](=[O:3])/[C:4](=[C:5](\[C:6][H:11])[H:10])[H:9])([H:7])[H:8]"
N       -1.16273369       1.11309002       0.28285034
C       -1.26411338      -0.23248749       0.25690261
O       -2.29989487      -0.84010269       0.43676487
C        0.02235077      -0.99907538       0.13903627
C        1.26414495      -0.41861401      -0.09102486
C        2.01675357       0.62179808      -0.21967807
H       -1.99277588       1.64831226       0.46268590
H       -0.27000274       1.56209807       0.15118307
H       -0.04203572      -1.99618576       0.55833444
H        1.00498722      -1.32960581      -0.97669423
H        2.72331978       0.87077271      -1.00036034
11
Frame=10 idx=004757 GeodesicLength=0.6187000869561828 rxn_smarts="[N:1]([C:2](=[O:3])[C:4]([C:5]#[C:6][H:11])([H:9])[H:10])([H:7])[H:8]>>[N:1]([C:2](=[O:3])/[C:4](=[C:5](\[C:6][H:11])[H:10])[H:9])([H:7])[H:8]"
N       -1.15604264       1.11244290       0.29277701
C       -1.26088668      -0.23164886       0.24678016
O       -2.29686743      -0.83992455       0.42333466
C        0.02555761      -1.00275347       0.13058388
C        1.26924086      -0.42361627      -0.09828978
C        1.99926732       0.63420210      -0.22629705
H       -1.98726639       1.64833079       0.46550164
H       -0.26290224       1.55973543       0.15393840
H       -0.03941537      -1.98683741       0.58036328
H        0.98402460      -1.35555887      -0.98050205
H        2.72529037       0.88562822      -0.98819016
11
Frame=11 idx=004757 GeodesicLength=0.6805357885913433 rxn_smarts="[N:1]([C:2](=[O:3])[C:4]([C:5]#[C:6][H:11])([H:9])[H:10])([H:7])[H:8]>>[N:1]([C:2](=[O:3])/[C:4](=[C:5](\[C:6][H:11])[H:10])[H:9])([H:7])[H:8]"
N       -1.15008519       1.11163430       0.30049664
C       -1.25778792      -0.23077018       0.23591190
O       -2.29363992      -0.83994533       0.41002751
C        0.02889582      -1.00609716       0.12233967
C        1.27392428      -0.42797964      -0.10738996
C        1.98160386       0.64645734      -0.23405626
H       -1.98163586       1.64785626       0.47050394
H       -0.25628652       1.55741957       0.15742701
H       -0.03626951      -1.97592161       0.60281777
H        0.96233614      -1.38280947      -0.98378356
H        2.72894481       0.90015590      -0.97429466
11
Frame=12 idx=004757 GeodesicLength=0.7423727119225769 rxn_smarts="[N:1]([C:2](=[O:3])[C:4]([C:5]#[C:6][H:11])([H:9])[H:10])([H:7])[H:8]>>[N:1]([C:2](=[O:3])/[C:4](=[C:5](\[C:6][H:11])[H:10])[H:9])([H:7])[H:8]"
N       -1.14438850       1.11082446       0.30480296
C       -1.25464249      -0.22982301       0.22423310
O       -2.29029943      -0.83978921       0.39682409
C        0.03231652      -1.00952107       0.11426535
C        1.27852669      -0.43249220      -0.11763414
C        1.96470781       0.65757507      -0.24093001
H       -1.97504705       1.64720099       0.47854322
H       -0.24944570       1.55499875       0.16031737
H       -0.03309629      -1.96394171       0.62537149
H        0.94022855      -1.41167014      -0.98619034
H        2.73113988       0.91663806      -0.95960308
11
Frame=13 idx=004757 GeodesicLength=0.8042173803200695 rxn_smarts="[N:1]([C:2](=[O:3])[C:4]([C:5]#[C:6][H:11])([H:9])[H:10])([H:7])[H:8]>>[N:1]([C:2](=[O:3])/[C:4](=[C:5](\[C:6][H:11])[H:10])[H:9])([H:7])[H:8]"
N       -1.13852964       1.11000096       0.30754032
C       -1.25127068      -0.22884377       0.21289864
O       -2.28662619      -0.83943678       0.38523157
C        0.03582209      -1.01313502       0.10619323
C        1.28302838      -0.43729731      -0.12921920
C        1.94880391       0.66742234      -0.24622928
H       -1.96795713       1.64655932       0.48661972
H       -0.24230761       1.55242153       0.16205699
H       -0.02975740      -1.95144041       0.64703448
H        0.91707699      -1.44142440      -0.98855060
H        2.73171727       0.93517355      -0.94357588
11
Frame=14 idx=004757 GeodesicLength=0.8660278101139265 rxn_smarts="[N:1]([C:2](=[O:3])[C:4]([C:5]#[C:6][H:11])([H:9])[H:10])([H:7])[H:8]>>[N:1]([C:2](=[O:3])/[C:4](=[C:5](\[C:6][H:11])[H:10])[H:9])([H:7])[H:8]"
N       -1.13245245       1.10906177       0.31065638
C       -1.24764516      -0.22793336       0.20311252
O       -2.28241415      -0.83912334       0.37698750
C        0.03940882      -1.01687385       0.09790190
C        1.28721946      -0.44213511      -0.14282918
C        1.93362369       0.67637933      -0.25026064
H       -1.96125005       1.64613475       0.49123642
H       -0.23509167       1.54970899       0.16322501
H       -0.02573720      -1.93877202       0.66704007
H        0.89209061      -1.47124012      -0.99184331
H        2.73224811       0.95479296      -0.92522670
11
Frame=15 idx=004757 GeodesicLength=0.9278522886873999 rxn_smarts="[N:1]([C:2](=[O:3])[C:4]([C:5]#[C:6][H:11])([H:9])[H:10])([H:7])[H:8]>>[N:1]([C:2](=[O:3])/[C:4](=[C:5](\[C:6][H:11])[H:10])[H:9])([H:7])[H:8]"
N       -1.12642687       1.10812825       0.31226965
C       -1.24392300      -0.22706348       0.19370483
O       -2.27788441      -0.83881413       0.37059328
C        0.04305782      -1.02066943       0.08940866
C        1.29112998      -0.44696246      -0.15824295
C        1.91925883       0.68445466      -0.25285538
H       -1.95418637       1.64565489       0.49637800
H       -0.22795411       1.54697298       0.16259188
H       -0.02114423      -1.92546141       0.68618011
H        0.86584428      -1.50181057      -0.99512113
H        2.73222809       0.97557070      -0.90490696
11
Frame=16 idx=004757 GeodesicLength=0.9896425171464123 rxn_smarts="[N:1]([C:2](=[O:3])[C:4]([C:5]#[C:6][H:11])([H:9])[H:10])([H:7])[H:8]>>[N:1]([C:2](=[O:3])/[C:4](=[C:5](\[C:6][H:11])[H:10])[H:9])([H:7])[H:8]"
N       -1.12049579       1.10719723       0.31296748
C       -1.24012149      -0.22628446       0.18510671
O       -2.27293134      -0.83864154       0.36675626
C        0.04677147      -1.02445588       0.08056965
C        1.29460890      -0.45156906      -0.17582768
C        1.90553921       0.69186604      -0.25419069
H       -1.94707414       1.64514454       0.50126623
H       -0.22117420       1.54429884       0.15979431
H       -0.01567059      -1.91161725       0.70413178
H        0.83805774      -1.53280221      -0.99866620
H        2.73249024       0.99686376      -0.88190786
