12
Frame=0 idx=003326 GeodesicLength=0.0 rxn_smarts="[C:1](#[C:2][C:3]1([H:8])[C:4]([H:9])([H:10])[O:5][C:6]1([H:11])[H:12])[H:7]>>[C:1]1([H:7])=[C:2]2[C@:3]([H:8])([C:4]([H:9])([H:10])[O:5]1)[C:6]2([H:11])[H:12]"
C        1.39943625       0.01745261      -0.65114019
C        1.40137576      -0.29860971       0.62859572
C       -0.15044096      -0.32591416       0.89828210
C       -0.71337848      -0.82773977      -0.43437908
O       -0.01849485       0.18483929      -1.20331016
C       -0.38116767       1.08821174       0.57484259
H        2.12549413       0.10200026      -1.44435142
H       -0.46192812      -0.72209833       1.86076205
H       -0.41317398      -1.83230209      -0.73463062
H       -1.78696363      -0.67779485      -0.56850525
H       -1.29643575       1.44789390       0.11411725
H        0.29567726       1.84406110       0.95971706
12
Frame=1 idx=003326 GeodesicLength=0.09742222215800138 rxn_smarts="[C:1](#[C:2][C:3]1([H:8])[C:4]([H:9])([H:10])[O:5][C:6]1([H:11])[H:12])[H:7]>>[C:1]1([H:7])=[C:2]2[C@:3]([H:8])([C:4]([H:9])([H:10])[O:5]1)[C:6]2([H:11])[H:12]"
C        1.41758197       0.01010888      -0.65603143
C        1.39294201      -0.27619149       0.62718926
C       -0.15139984      -0.32888612       0.89321070
C       -0.71946612      -0.83176167      -0.43580492
O       -0.03174500       0.18082883      -1.21106567
C       -0.37593002       1.08972574       0.57328694
H        2.15171222       0.09530666      -1.44110907
H       -0.45967905      -0.72492978       1.85621186
H       -0.42163876      -1.83612708      -0.73861127
H       -1.79453269      -0.68865781      -0.56541645
H       -1.29792444       1.45849840       0.13364368
H        0.29007973       1.85208542       0.96449636
12
Frame=2 idx=003326 GeodesicLength=0.1947958442029165 rxn_smarts="[C:1](#[C:2][C:3]1([H:8])[C:4]([H:9])([H:10])[O:5][C:6]1([H:11])[H:12])[H:7]>>[C:1]1([H:7])=[C:2]2[C@:3]([H:8])([C:4]([H:9])([H:10])[O:5]1)[C:6]2([H:11])[H:12]"
C        1.43619080       0.00240703      -0.66066020
C        1.38429575      -0.25403224       0.62485787
C       -0.15220001      -0.33162038       0.88790741
C       -0.72575073      -0.83576525      -0.43722670
O       -0.04555064       0.17687262      -1.21898193
C       -0.37086676       1.09143217       0.57141179
H        2.17883068       0.08872250      -1.43700398
H       -0.45694136      -0.72749569       1.85153787
H       -0.43038558      -1.83991593      -0.74269619
H       -1.80230105      -0.69974636      -0.56203586
H       -1.29947453       1.46905126       0.15369602
H        0.28415344       1.86009027       0.96919389
12
Frame=3 idx=003326 GeodesicLength=0.29213468633419226 rxn_smarts="[C:1](#[C:2][C:3]1([H:8])[C:4]([H:9])([H:10])[O:5][C:6]1([H:11])[H:12])[H:7]>>[C:1]1([H:7])=[C:2]2[C@:3]([H:8])([C:4]([H:9])([H:10])[O:5]1)[C:6]2([H:11])[H:12]"
C        1.45528517      -0.00562542      -0.66500157
C        1.37544533      -0.23211176       0.62157721
C       -0.15284322      -0.33410370       0.88235332
C       -0.73223328      -0.83974297      -0.43865351
O       -0.05996932       0.17300247      -1.22707020
C       -0.36599923       1.09334920       0.56920718
H        2.20686420       0.08215819      -1.43201319
H       -0.45370541      -0.72979309       1.84671807
H       -0.43938579      -1.84364968      -0.74690053
H       -1.81026854      -0.71107712      -0.55834513
H       -1.30109672       1.47953609       0.17431607
H        0.27790681       1.86805777       0.97381227
12
Frame=4 idx=003326 GeodesicLength=0.3894396904399885 rxn_smarts="[C:1](#[C:2][C:3]1([H:8])[C:4]([H:9])([H:10])[O:5][C:6]1([H:11])[H:12])[H:7]>>[C:1]1([H:7])=[C:2]2[C@:3]([H:8])([C:4]([H:9])([H:10])[O:5]1)[C:6]2([H:11])[H:12]"
C        1.47488387      -0.01395144      -0.66904138
C        1.36639944      -0.21040192       0.61731504
C       -0.15332864      -0.33632327       0.87652575
C       -0.73891566      -0.84368793      -0.44009498
O       -0.07506834       0.16925192      -1.23534140
C       -0.36135091       1.09549524       0.56666297
H        2.23582848       0.07551073      -1.42608690
H       -0.44995590      -0.73181942       1.84172534
H       -0.44861155      -1.84730847      -0.75124319
H       -1.81843283      -0.72266930      -0.55432209
H       -1.30279686       1.48993297       0.19555044
H        0.27134889       1.87597090       0.97835039
12
Frame=5 idx=003326 GeodesicLength=0.4867042284362799 rxn_smarts="[C:1](#[C:2][C:3]1([H:8])[C:4]([H:9])([H:10])[O:5][C:6]1([H:11])[H:12])[H:7]>>[C:1]1([H:7])=[C:2]2[C@:3]([H:8])([C:4]([H:9])([H:10])[O:5]1)[C:6]2([H:11])[H:12]"
C        1.49500848      -0.02251806      -0.67274339
C        1.35716295      -0.18886118       0.61204517
C       -0.15365639      -0.33826487       0.87040588
C       -0.74579375      -0.84758740      -0.44156347
O       -0.09090972       0.16566841      -1.24380304
C       -0.35695676       1.09789037       0.56378052
H        2.26574078       0.06862245      -1.41922024
H       -0.44567445      -0.73358011       1.83653574
H       -0.45801933      -1.85086457      -0.75574986
H       -1.82678864      -0.73454449      -0.54994988
H       -1.30459039       1.50022102       0.21744484
H        0.26447721       1.88381843       0.98281772
12
Frame=6 idx=003326 GeodesicLength=0.5839457494958872 rxn_smarts="[C:1](#[C:2][C:3]1([H:8])[C:4]([H:9])([H:10])[O:5][C:6]1([H:11])[H:12])[H:7]>>[C:1]1([H:7])=[C:2]2[C@:3]([H:8])([C:4]([H:9])([H:10])[O:5]1)[C:6]2([H:11])[H:12]"
C        1.51568353      -0.03125487      -0.67608910
C        1.34774179      -0.16743473       0.60571800
C       -0.15382248      -0.33991190       0.86396330
C       -0.75286585      -0.85142955      -0.44307432
O       -0.10758445       0.16230443      -1.25246169
C       -0.35285419       1.10055656       0.56055718
H        2.29661867       0.06130432      -1.41134210
H       -0.44082758      -0.73507922       1.83111206
H       -0.46756614      -1.85428662      -0.76045744
H       -1.83532623      -0.74673332      -0.54520158
H       -1.30648665       1.51037143       0.24006351
H        0.25728959       1.89159348       0.98721217
12
Frame=7 idx=003326 GeodesicLength=0.6811744344264078 rxn_smarts="[C:1](#[C:2][C:3]1([H:8])[C:4]([H:9])([H:10])[O:5][C:6]1([H:11])[H:12])[H:7]>>[C:1]1([H:7])=[C:2]2[C@:3]([H:8])([C:4]([H:9])([H:10])[O:5]1)[C:6]2([H:11])[H:12]"
C        1.53693716      -0.04008810      -0.67903336
C        1.33813553      -0.14606318       0.59828440
C       -0.15382415      -0.34124742       0.85717210
C       -0.76012934      -0.85520035      -0.44464224
O       -0.12517795       0.15922055      -1.26132111
C       -0.34908783       1.10351586       0.55699968
H        2.32848440       0.05335351      -1.40241892
H       -0.43537838      -0.73632628       1.82542403
H       -0.47720489      -1.85753862      -0.76540483
H       -1.84403908      -0.75926883      -0.54005306
H       -1.30849598       1.52035080       0.26345805
H        0.24978050       1.89929208       0.99153527
12
Frame=8 idx=003326 GeodesicLength=0.7784141327036408 rxn_smarts="[C:1](#[C:2][C:3]1([H:8])[C:4]([H:9])([H:10])[O:5][C:6]1([H:11])[H:12])[H:7]>>[C:1]1([H:7])=[C:2]2[C@:3]([H:8])([C:4]([H:9])([H:10])[O:5]1)[C:6]2([H:11])[H:12]"
C        1.55879752      -0.04891064      -0.68155520
C        1.32834143      -0.12466409       0.58967947
C       -0.15365331      -0.34225193       0.84999485
C       -0.76757889      -0.85888273      -0.44628680
O       -0.14380971       0.15649157      -1.27037974
C       -0.34571455       1.10679428       0.55312031
H        2.36136990       0.04448766      -1.39236731
H       -0.42927343      -0.73733359       1.81942232
H       -0.48687649      -1.86057642      -0.77064967
H       -1.85290484      -0.77219845      -0.53446628
H       -1.31063254       1.53012439       0.28770256
H        0.24193490       1.90691997       0.99578549
12
Frame=9 idx=003326 GeodesicLength=0.8760115269398477 rxn_smarts="[C:1](#[C:2][C:3]1([H:8])[C:4]([H:9])([H:10])[O:5][C:6]1([H:11])[H:12])[H:7]>>[C:1]1([H:7])=[C:2]2[C@:3]([H:8])([C:4]([H:9])([H:10])[O:5]1)[C:6]2([H:11])[H:12]"
C        1.58136361      -0.05761636      -0.68360969
C        1.31832712      -0.10311221       0.57984344
C       -0.15330503      -0.34288566       0.84236710
C       -0.77520873      -0.86245101      -0.44804186
O       -0.16375814       0.15425057      -1.27961386
C       -0.34279924       1.11042195       0.54895750
H        2.39538893       0.03429333      -1.38106753
H       -0.42244200      -0.73810212       1.81302767
H       -0.49648467      -1.86329676      -0.77633451
H       -1.86188966      -0.78563547      -0.52835825
H       -1.31295072       1.53961843       0.31292832
H        0.23375853       1.91451530       0.99990166
12
Frame=10 idx=003326 GeodesicLength=0.9736126860407095 rxn_smarts="[C:1](#[C:2][C:3]1([H:8])[C:4]([H:9])([H:10])[O:5][C:6]1([H:11])[H:12])[H:7]>>[C:1]1([H:7])=[C:2]2[C@:3]([H:8])([C:4]([H:9])([H:10])[O:5]1)[C:6]2([H:11])[H:12]"
C        1.60458103      -0.06613367      -0.68519413
C        1.30810124      -0.08138104       0.56866742
C       -0.15276407      -0.34315240       0.83427299
C       -0.78303542      -0.86590521      -0.44990758
O       -0.18502299       0.15249326      -1.28904325
C       -0.34038433       1.11441373       0.54449158
H        2.43053398       0.02273360      -1.36838860
H       -0.41481570      -0.73865222       1.80622702
H       -0.50604671      -1.86571810      -0.78243624
H       -1.87100192      -0.79957000      -0.52171676
H       -1.31540025       1.54882247       0.33913486
H        0.22525513       1.92204958       1.00389271
12
Frame=11 idx=003326 GeodesicLength=1.0712038336321352 rxn_smarts="[C:1](#[C:2][C:3]1([H:8])[C:4]([H:9])([H:10])[O:5][C:6]1([H:11])[H:12])[H:7]>>[C:1]1([H:7])=[C:2]2[C@:3]([H:8])([C:4]([H:9])([H:10])[O:5]1)[C:6]2([H:11])[H:12]"
C        1.62846651      -0.07445483      -0.68627951
C        1.29763841      -0.05944247       0.55606563
C       -0.15203041      -0.34304373       0.82567403
C       -0.79108859      -0.86924909      -0.45188863
O       -0.20775507       0.15124265      -1.29866792
C       -0.33849869       1.11877951       0.53971679
H        2.46688811       0.00980776      -1.35417473
H       -0.40634115      -0.73898183       1.79898088
H       -0.51557287      -1.86782295      -0.78899325
H       -1.88025069      -0.81404819      -0.51448040
H       -1.31794480       1.55769806       0.36635667
H        0.21648924       1.92951510       1.00769045
12
Frame=12 idx=003326 GeodesicLength=1.1687722167420684 rxn_smarts="[C:1](#[C:2][C:3]1([H:8])[C:4]([H:9])([H:10])[O:5][C:6]1([H:11])[H:12])[H:7]>>[C:1]1([H:7])=[C:2]2[C@:3]([H:8])([C:4]([H:9])([H:10])[O:5]1)[C:6]2([H:11])[H:12]"
C        1.65303853      -0.08245856      -0.68685785
C        1.28691354      -0.03720261       0.54191235
C       -0.15108362      -0.34253927       0.81651464
C       -0.79937989      -0.87246778      -0.45400474
O       -0.23214220       0.15057884      -1.30847559
C       -0.33720517       1.12354086       0.53464975
H        2.50450986      -0.00476020      -1.33821085
H       -0.39691164      -0.73910632       1.79122515
H       -0.52502604      -1.86955722      -0.79608674
H       -1.88961076      -0.82914580      -0.50658072
H       -1.32057563       1.56618825       0.39466346
H        0.20747301       1.93692982       1.01125113
12
Frame=13 idx=003326 GeodesicLength=1.2662963788019563 rxn_smarts="[C:1](#[C:2][C:3]1([H:8])[C:4]([H:9])([H:10])[O:5][C:6]1([H:11])[H:12])[H:7]>>[C:1]1([H:7])=[C:2]2[C@:3]([H:8])([C:4]([H:9])([H:10])[O:5]1)[C:6]2([H:11])[H:12]"
C        1.67831903      -0.09026029      -0.68687923
C        1.27588421      -0.01471001       0.52609077
C       -0.14993571      -0.34165216       0.80675153
C       -0.80797562      -0.87558673      -0.45624656
O       -0.25836310       0.15046977      -1.31845729
C       -0.33649562       1.12868841       0.52926142
H        2.54349589      -0.02064295      -1.32026229
H       -0.38648375      -0.73901749       1.78292023
H       -0.53449478      -1.87093820      -0.80373266
H       -1.89911679      -0.84490049      -0.49792586
H       -1.32318189       1.57428051       0.42403291
H        0.19834812       1.94426962       1.01444705
12
Frame=14 idx=003326 GeodesicLength=1.363773971751427 rxn_smarts="[C:1](#[C:2][C:3]1([H:8])[C:4]([H:9])([H:10])[O:5][C:6]1([H:11])[H:12])[H:7]>>[C:1]1([H:7])=[C:2]2[C@:3]([H:8])([C:4]([H:9])([H:10])[O:5]1)[C:6]2([H:11])[H:12]"
C        1.70433184      -0.09771759      -0.68633786
C        1.26451327       0.00815172       0.50840051
C       -0.14855405      -0.34036042       0.79630465
C       -0.81689699      -0.87859255      -0.45863539
O       -0.28666715       0.15100572      -1.32858666
C       -0.33644280       1.13424126       0.52357151
H        2.58390521      -0.03816059      -1.29998795
H       -0.37489420      -0.73873678       1.77397173
H       -0.54395244      -1.87189824      -0.81204266
H       -1.90873508      -0.86140732      -0.48841901
H       -1.32573939       1.58190583       0.45454866
H        0.18913178       1.95156896       1.01721248
12
Frame=15 idx=003326 GeodesicLength=1.4611869012007166 rxn_smarts="[C:1](#[C:2][C:3]1([H:8])[C:4]([H:9])([H:10])[O:5][C:6]1([H:11])[H:12])[H:7]>>[C:1]1([H:7])=[C:2]2[C@:3]([H:8])([C:4]([H:9])([H:10])[O:5]1)[C:6]2([H:11])[H:12]"
C        1.73110724      -0.10489770      -0.68517798
C        1.25274622       0.03136346       0.48863533
C       -0.14693298      -0.33867421       0.78510076
C       -0.82621649      -0.88150417      -0.46117128
O       -0.31730288       0.15217920      -1.33883305
C       -0.33705208       1.14018783       0.51755955
H        2.62580535      -0.05708559      -1.27701182
H       -0.36202994      -0.73827029       1.76430472
H       -0.55348648      -1.87242994      -0.82107490
H       -1.91848412      -0.87872974      -0.47794062
H       -1.32812090       1.58904022       0.48619967
H        0.17996707       1.95882093       1.01940961
12
Frame=16 idx=003326 GeodesicLength=1.5585269398411539 rxn_smarts="[C:1](#[C:2][C:3]1([H:8])[C:4]([H:9])([H:10])[O:5][C:6]1([H:11])[H:12])[H:7]>>[C:1]1([H:7])=[C:2]2[C@:3]([H:8])([C:4]([H:9])([H:10])[O:5]1)[C:6]2([H:11])[H:12]"
C        1.75867331      -0.11176875      -0.68336392
C        1.24051965       0.05497479       0.46651281
C       -0.14504264      -0.33659244       0.77304089
C       -0.83599999      -0.88432847      -0.46386387
O       -0.35057885       0.15402638      -1.34916146
C       -0.33836152       1.14652680       0.51122179
H        2.66927190      -0.07743235      -1.25085188
H       -0.34769884      -0.73763758       1.75381260
H       -0.56315645      -1.87249256      -0.83093594
H       -1.92835406      -0.89695768      -0.46635177
H       -1.33022821       1.59564201       0.51902186
H        0.17095570       1.96603983       1.02091889
