19
Frame=0 idx=009437 GeodesicLength=0.0 rxn_smarts="[C:1]([C:2]([O:3][C@@:4]1([H:13])[C:5]([H:14])([H:15])[C@:6]1([C:7]([H:17])([H:18])[H:19])[H:16])([H:11])[H:12])([H:8])([H:9])[H:10]>>[C:1]([C:2]([O:3][C@@:4]1([H:13])[C:5]([H:14])([H:15])[C:6]1=[C:7]([H:17])[H:19])([H:11])[H:12])([H:8])([H:9])[H:10].[H:16][H:18]"
C        2.84832358       0.56129063       0.17855773
C        1.63640985      -0.20835488      -0.28706595
O        0.70573207      -0.26564772       0.78195949
C       -0.46572347      -0.89759317       0.44199726
C       -1.69240197      -0.54248652       1.22995853
C       -1.55955070      -0.07828056      -0.17748960
C       -1.66633427       1.18774729      -0.78628940
H        3.30625852       0.07399136       1.04027995
H        2.56565734       1.57471245       0.46553536
H        3.58879883       0.62121832      -0.62062968
H        1.91048212      -1.22895579      -0.58814453
H        1.17090238       0.28104628      -1.15035384
H       -0.36907399      -1.92956936       0.11198236
H       -1.58765940       0.24813751       1.96197736
H       -2.38144191      -1.33709106       1.47617046
H       -2.30202415      -1.22378306      -0.87230299
H       -0.98339179       1.47237379      -1.57327265
H       -2.29927613      -0.18976959      -1.17741577
H       -2.42568697       1.88101413      -0.45545408
19
Frame=1 idx=009437 GeodesicLength=0.1076186038429685 rxn_smarts="[C:1]([C:2]([O:3][C@@:4]1([H:13])[C:5]([H:14])([H:15])[C@:6]1([C:7]([H:17])([H:18])[H:19])[H:16])([H:11])[H:12])([H:8])([H:9])[H:10]>>[C:1]([C:2]([O:3][C@@:4]1([H:13])[C:5]([H:14])([H:15])[C:6]1=[C:7]([H:17])[H:19])([H:11])[H:12])([H:8])([H:9])[H:10].[H:16][H:18]"
C        2.85096276       0.56357416       0.18383923
C        1.63885066      -0.20349352      -0.28586929
O        0.70625591      -0.26081311       0.78099230
C       -0.46364800      -0.89672251       0.44001767
C       -1.68942504      -0.54197155       1.22934585
C       -1.56176085      -0.08720260      -0.18222785
C       -1.66911604       1.17556495      -0.79772928
H        3.30655312       0.07354914       1.04527998
H        2.56929871       1.57669965       0.47294091
H        3.59320138       0.62434066      -0.61365074
H        1.91272949      -1.22379245      -0.58826750
H        1.17539301       0.28753960      -1.14940050
H       -0.36334243      -1.92970010       0.11369123
H       -1.58334719       0.24888431       1.96096237
H       -2.37698944      -1.33638434       1.48105638
H       -2.31050505      -1.22895679      -0.88373516
H       -0.99473888       1.45061820      -1.59600523
H       -2.35841087      -0.18895614      -1.18519793
H       -2.38196126       1.89722242      -0.42604245
19
Frame=2 idx=009437 GeodesicLength=0.21529650570186043 rxn_smarts="[C:1]([C:2]([O:3][C@@:4]1([H:13])[C:5]([H:14])([H:15])[C@:6]1([C:7]([H:17])([H:18])[H:19])[H:16])([H:11])[H:12])([H:8])([H:9])[H:10]>>[C:1]([C:2]([O:3][C@@:4]1([H:13])[C:5]([H:14])([H:15])[C:6]1=[C:7]([H:17])[H:19])([H:11])[H:12])([H:8])([H:9])[H:10].[H:16][H:18]"
C        2.85368676       0.56592104       0.18928694
C        1.64126930      -0.19830025      -0.28461169
O        0.70697051      -0.25609321       0.78023698
C       -0.46135427      -0.89605303       0.43837685
C       -1.68624219      -0.54174575       1.22910657
C       -1.56352812      -0.09600020      -0.18625159
C       -1.67290990       1.16275506      -0.80950052
H        3.30709237       0.07275367       1.05010318
H        2.57311479       1.57860789       0.48105443
H        3.59751898       0.62787809      -0.60662277
H        1.91486010      -1.21814473      -0.58889485
H        1.17963498       0.29483357      -1.14798871
H       -0.35754017      -1.92980790       0.11509505
H       -1.57890962       0.24930702       1.96036640
H       -2.37246656      -1.33594680       1.48588402
H       -2.31969896      -1.23201574      -0.89603594
H       -1.00689504       1.42785778      -1.61871296
H       -2.41919075      -0.18739313      -1.19115819
H       -2.33541220       1.91158662      -0.39973321
19
Frame=3 idx=009437 GeodesicLength=0.32301163069210864 rxn_smarts="[C:1]([C:2]([O:3][C@@:4]1([H:13])[C:5]([H:14])([H:15])[C@:6]1([C:7]([H:17])([H:18])[H:19])[H:16])([H:11])[H:12])([H:8])([H:9])[H:10]>>[C:1]([C:2]([O:3][C@@:4]1([H:13])[C:5]([H:14])([H:15])[C:6]1=[C:7]([H:17])[H:19])([H:11])[H:12])([H:8])([H:9])[H:10].[H:16][H:18]"
C        2.85652605       0.56830001       0.19488206
C        1.64368011      -0.19278804      -0.28329466
O        0.70791087      -0.25151518       0.77972229
C       -0.45881440      -0.89560706       0.43712098
C       -1.68283171      -0.54178306       1.22927233
C       -1.56478904      -0.10466955      -0.18955219
C       -1.67777060       1.14937508      -0.82144066
H        3.30791581       0.07156057       1.05472003
H        2.57714799       1.58040756       0.48987122
H        3.60177295       0.63179684      -0.59958159
H        1.91687490      -1.21202422      -0.59005652
H        1.18361665       0.30294523      -1.14609314
H       -0.35165545      -1.92992878       0.11623474
H       -1.57432052       0.24944805       1.96021101
H       -2.36787699      -1.33573757       1.49070623
H       -2.32987605      -1.23279244      -0.90903630
H       -1.01978422       1.40430689      -1.64108759
H       -2.48109724      -0.18511447      -1.19575218
H       -2.28662914       1.92382014      -0.37684606
19
Frame=4 idx=009437 GeodesicLength=0.4307689227436842 rxn_smarts="[C:1]([C:2]([O:3][C@@:4]1([H:13])[C:5]([H:14])([H:15])[C@:6]1([C:7]([H:17])([H:18])[H:19])[H:16])([H:11])[H:12])([H:8])([H:9])[H:10]>>[C:1]([C:2]([O:3][C@@:4]1([H:13])[C:5]([H:14])([H:15])[C:6]1=[C:7]([H:17])[H:19])([H:11])[H:12])([H:8])([H:9])[H:10].[H:16][H:18]"
C        2.85950811       0.57068891       0.20063567
C        1.64610600      -0.18696065      -0.28192630
O        0.70911040      -0.24712071       0.77948289
C       -0.45599399      -0.89542898       0.43628775
C       -1.67916607      -0.54207685       1.22987710
C       -1.56549672      -0.11325354      -0.19214081
C       -1.68372525       1.13549782      -0.83344865
H        3.30907044       0.06988403       1.05912092
H        2.58142254       1.58207905       0.49947561
H        3.60597822       0.63612073      -0.59254999
H        1.91879622      -1.20544413      -0.59182084
H        1.18734154       0.31193166      -1.14370784
H       -0.34564542      -1.93013603       0.11715412
H       -1.56955848       0.24935133       1.96052127
H       -2.36319992      -1.33574013       1.49560311
H       -2.34130263      -1.23113638      -0.92250403
H       -1.03335053       1.38013758      -1.66305088
H       -2.54382352      -0.18225557      -1.19941980
H       -2.23607093       1.93386187      -0.35758930
19
Frame=5 idx=009437 GeodesicLength=0.5385839247450872 rxn_smarts="[C:1]([C:2]([O:3][C@@:4]1([H:13])[C:5]([H:14])([H:15])[C@:6]1([C:7]([H:17])([H:18])[H:19])[H:16])([H:11])[H:12])([H:8])([H:9])[H:10]>>[C:1]([C:2]([O:3][C@@:4]1([H:13])[C:5]([H:14])([H:15])[C:6]1=[C:7]([H:17])[H:19])([H:11])[H:12])([H:8])([H:9])[H:10].[H:16][H:18]"
C        2.86264338       0.57307759       0.20646048
C        1.64856107      -0.18088839      -0.28046170
O        0.71061919      -0.24290114       0.77948835
C       -0.45286888      -0.89546853       0.43586728
C       -1.67520968      -0.54253928       1.23082351
C       -1.56556368      -0.12169941      -0.19407823
C       -1.69068702       1.12110665      -0.84515832
H        3.31054803       0.06794592       1.06326391
H        2.58595212       1.58358136       0.50954054
H        3.61015507       0.64068775      -0.58553112
H        1.92063197      -1.19842094      -0.59397540
H        1.19079883       0.32154726      -1.14076815
H       -0.33954470      -1.93033910       0.11789765
H       -1.56453153       0.24903946       1.96116887
H       -2.35845665      -1.33580722       1.50046039
H       -2.35418833      -1.22707300      -0.93620461
H       -1.04743463       1.35544978      -1.68390001
H       -2.60688560      -0.17844734      -1.20298114
H       -2.18453896       1.94114860      -0.34191229
19
Frame=6 idx=009437 GeodesicLength=0.6463715103619914 rxn_smarts="[C:1]([C:2]([O:3][C@@:4]1([H:13])[C:5]([H:14])([H:15])[C@:6]1([C:7]([H:17])([H:18])[H:19])[H:16])([H:11])[H:12])([H:8])([H:9])[H:10]>>[C:1]([C:2]([O:3][C@@:4]1([H:13])[C:5]([H:14])([H:15])[C:6]1=[C:7]([H:17])[H:19])([H:11])[H:12])([H:8])([H:9])[H:10].[H:16][H:18]"
C        2.86598096       0.57544683       0.21239584
C        1.65110729      -0.17459198      -0.27892442
O        0.71247868      -0.23893934       0.77980026
C       -0.44939055      -0.89582050       0.43590970
C       -1.67093784      -0.54321392       1.23218013
C       -1.56494825      -0.13012281      -0.19537537
C       -1.69860728       1.10635673      -0.85654642
H        3.31242511       0.06559291       1.06717546
H        2.59075519       1.58492756       0.52024984
H        3.61434606       0.64558218      -0.57856446
H        1.92246752      -1.19102748      -0.59664313
H        1.19405261       0.33187701      -1.13732773
H       -0.33326469      -1.93069503       0.11852329
H       -1.55924542       0.24854187       1.96223385
H       -2.35361427      -1.33598851       1.50541814
H       -2.36880823      -1.22042472      -0.94977628
H       -1.06195195       1.33053915      -1.70386619
H       -2.67020437      -0.17397805      -1.20685928
H       -2.13264058       1.94593810      -0.33000322
19
Frame=7 idx=009437 GeodesicLength=0.7541959842358963 rxn_smarts="[C:1]([C:2]([O:3][C@@:4]1([H:13])[C:5]([H:14])([H:15])[C@:6]1([C:7]([H:17])([H:18])[H:19])[H:16])([H:11])[H:12])([H:8])([H:9])[H:10]>>[C:1]([C:2]([O:3][C@@:4]1([H:13])[C:5]([H:14])([H:15])[C:6]1=[C:7]([H:17])[H:19])([H:11])[H:12])([H:8])([H:9])[H:10].[H:16][H:18]"
C        2.86955639       0.57778481       0.21841588
C        1.65378749      -0.16811251      -0.27729383
O        0.71473955      -0.23524762       0.78041985
C       -0.44551249      -0.89648421       0.43641284
C       -1.66631197      -0.54404967       1.23390448
C       -1.56358209      -0.13853968      -0.19611672
C       -1.70737215       1.09125076      -0.86742431
H        3.31473385       0.06288991       1.07084854
H        2.59586024       1.58609710       0.53149939
H        3.61859099       0.65074718      -0.57165328
H        1.92434922      -1.18329101      -0.59973974
H        1.19713954       0.34281296      -1.13336745
H       -0.32676220      -1.93121523       0.11909204
H       -1.55364397       0.24790845       1.96365312
H       -2.34865663      -1.33620942       1.51046976
H       -2.38534508      -1.21126769      -0.96291794
H       -1.07683922       1.30544895      -1.72270806
H       -2.73365705      -0.16856843      -1.21178292
H       -2.08107442       1.94804537      -0.32171166
19
Frame=8 idx=009437 GeodesicLength=0.8620889821000928 rxn_smarts="[C:1]([C:2]([O:3][C@@:4]1([H:13])[C:5]([H:14])([H:15])[C@:6]1([C:7]([H:17])([H:18])[H:19])[H:16])([H:11])[H:12])([H:8])([H:9])[H:10]>>[C:1]([C:2]([O:3][C@@:4]1([H:13])[C:5]([H:14])([H:15])[C:6]1=[C:7]([H:17])[H:19])([H:11])[H:12])([H:8])([H:9])[H:10].[H:16][H:18]"
C        2.87341718       0.58007906       0.22453635
C        1.65665106      -0.16146537      -0.27556383
O        0.71745048      -0.23185129       0.78136417
C       -0.44117993      -0.89749699       0.43738809
C       -1.66128776      -0.54505016       1.23597688
C       -1.56142083      -0.14705624      -0.19636516
C       -1.71689429       1.07581260      -0.87773713
H        3.31753396       0.05979971       1.07428758
H        2.60130885       1.58707380       0.54333929
H        3.62293038       0.65619866      -0.56479428
H        1.92632993      -1.17523128      -0.60327413
H        1.20010701       0.35434977      -1.12888510
H       -0.31995515      -1.93196284       0.11967939
H       -1.54769035       0.24717287       1.96538818
H       -2.34353746      -1.33645450       1.51564949
H       -2.40403050      -1.19954865      -0.97522176
H       -1.09204906       1.28025346      -1.74048859
H       -2.79728772      -0.16219161      -1.21837419
H       -2.03039581       1.94756901      -0.31690526
19
Frame=9 idx=009437 GeodesicLength=0.9700066572326334 rxn_smarts="[C:1]([C:2]([O:3][C@@:4]1([H:13])[C:5]([H:14])([H:15])[C@:6]1([C:7]([H:17])([H:18])[H:19])[H:16])([H:11])[H:12])([H:8])([H:9])[H:10]>>[C:1]([C:2]([O:3][C@@:4]1([H:13])[C:5]([H:14])([H:15])[C:6]1=[C:7]([H:17])[H:19])([H:11])[H:12])([H:8])([H:9])[H:10].[H:16][H:18]"
C        2.87754753       0.58238047       0.23068556
C        1.65973635      -0.15472770      -0.27370090
O        0.72063430      -0.22875373       0.78259641
C       -0.43637332      -0.89884783       0.43880208
C       -1.65586136      -0.54617851       1.23830530
C       -1.55843082      -0.15568304      -0.19622583
C       -1.72701382       1.05996384      -0.88726506
H        3.32079248       0.05659731       1.07749763
H        2.60702495       1.58789789       0.55546806
H        3.62738216       0.66187748      -0.55799191
H        1.92850055      -1.16690312      -0.60701748
H        1.20299952       0.36621149      -1.12389059
H       -0.31282833      -1.93291706       0.12032667
H       -1.54135924       0.24632365       1.96731861
H       -2.33828138      -1.33665963       1.52087214
H       -2.42501141      -1.18539126      -0.98643749
H       -1.10745808       1.25492437      -1.75689501
H       -2.86109449      -0.15446777      -1.22733160
H       -1.98090557       1.94435317      -0.31511659
19
Frame=10 idx=009437 GeodesicLength=1.0779485675436575 rxn_smarts="[C:1]([C:2]([O:3][C@@:4]1([H:13])[C:5]([H:14])([H:15])[C@:6]1([C:7]([H:17])([H:18])[H:19])[H:16])([H:11])[H:12])([H:8])([H:9])[H:10]>>[C:1]([C:2]([O:3][C@@:4]1([H:13])[C:5]([H:14])([H:15])[C:6]1=[C:7]([H:17])[H:19])([H:11])[H:12])([H:8])([H:9])[H:10].[H:16][H:18]"
C        2.88201808       0.58465642       0.23688626
C        1.66310646      -0.14792589      -0.27171510
O        0.72435381      -0.22599009       0.78415503
C       -0.43101564      -0.90060652       0.44069807
C       -1.64995936      -0.54748301       1.24092271
C       -1.55456300      -0.16459734      -0.19571965
C       -1.73766750       1.04375871      -0.89604493
H        3.32460167       0.05316796       1.08049134
H        2.61308277       1.58855870       0.56799632
H        3.63199895       0.66780313      -0.55127183
H        1.93092104      -1.15836946      -0.61103193
H        1.20587910       0.37842360      -1.11841891
H       -0.30526219      -1.93419244       0.12114957
H       -1.53459873       0.24538991       1.96946846
H       -2.33279754      -1.33686035       1.52624332
H       -2.44860525      -1.16860910      -0.99595307
H       -1.12297831       1.22968227      -1.77208036
H       -2.92502963      -0.14546117      -1.23951377
H       -1.93348474       1.93865468      -0.31626154
19
Frame=11 idx=009437 GeodesicLength=1.1859033305475473 rxn_smarts="[C:1]([C:2]([O:3][C@@:4]1([H:13])[C:5]([H:14])([H:15])[C@:6]1([C:7]([H:17])([H:18])[H:19])[H:16])([H:11])[H:12])([H:8])([H:9])[H:10]>>[C:1]([C:2]([O:3][C@@:4]1([H:13])[C:5]([H:14])([H:15])[C:6]1=[C:7]([H:17])[H:19])([H:11])[H:12])([H:8])([H:9])[H:10].[H:16][H:18]"
C        2.88683450       0.58693289       0.24308354
C        1.66679395      -0.14111140      -0.26959873
O        0.72863339      -0.22355358       0.78602730
C       -0.42507225      -0.90278489       0.44307705
C       -1.64355808      -0.54895368       1.24381335
C       -1.54980788      -0.17386490      -0.19491509
C       -1.74876612       1.02711790      -0.90396476
H        3.32896924       0.04964586       1.08326117
H        2.61945482       1.58908975       0.58075630
H        3.63679696       0.67394566      -0.54467241
H        1.93365478      -1.14968684      -0.61520064
H        1.20877831       0.39082390      -1.11250306
H       -0.29719578      -1.93582241       0.12223294
H       -1.52738382       0.24438508       1.97179664
H       -2.32706122      -1.33704004       1.53179155
H       -2.47501747      -1.14924731      -1.00335256
H       -1.13850469       1.20455362      -1.78586893
H       -2.98900904      -0.13492615      -1.25589321
H       -1.88853959       1.93049656      -0.31987045
19
Frame=12 idx=009437 GeodesicLength=1.2938426005728445 rxn_smarts="[C:1]([C:2]([O:3][C@@:4]1([H:13])[C:5]([H:14])([H:15])[C@:6]1([C:7]([H:17])([H:18])[H:19])[H:16])([H:11])[H:12])([H:8])([H:9])[H:10]>>[C:1]([C:2]([O:3][C@@:4]1([H:13])[C:5]([H:14])([H:15])[C:6]1=[C:7]([H:17])[H:19])([H:11])[H:12])([H:8])([H:9])[H:10].[H:16][H:18]"
C        2.89201025       0.58922085       0.24922407
C        1.67081973      -0.13432245      -0.26735801
O        0.73349785      -0.22143845       0.78820652
C       -0.41850870      -0.90540685       0.44596225
C       -1.63661504      -0.55061147       1.24699803
C       -1.54417768      -0.18360959      -0.19382571
C       -1.76025841       1.00997581      -0.91094852
H        3.33392370       0.04609439       1.08577268
H        2.62614234       1.58950821       0.59364590
H        3.64178186       0.68029380      -0.53825193
H        1.93673485      -1.14090362      -0.61946935
H        1.21171293       0.40330776      -1.10617775
H       -0.28856392      -1.93785108       0.12368891
H       -1.51967169       0.24331252       1.97429416
H       -2.32101340      -1.33720729       1.53759732
H       -2.50455223      -1.12719094      -1.00802232
H       -1.15391068       1.17963240      -1.79814076
H       -3.05278998      -0.12280430      -1.27770008
H       -1.84656179       1.92000028      -0.32549541
19
Frame=13 idx=009437 GeodesicLength=1.4017363849525872 rxn_smarts="[C:1]([C:2]([O:3][C@@:4]1([H:13])[C:5]([H:14])([H:15])[C@:6]1([C:7]([H:17])([H:18])[H:19])[H:16])([H:11])[H:12])([H:8])([H:9])[H:10]>>[C:1]([C:2]([O:3][C@@:4]1([H:13])[C:5]([H:14])([H:15])[C:6]1=[C:7]([H:17])[H:19])([H:11])[H:12])([H:8])([H:9])[H:10].[H:16][H:18]"
C        2.89754000       0.59153158       0.25522007
C        1.67518202      -0.12760664      -0.26501344
O        0.73896007      -0.21963453       0.79068527
C       -0.41130636      -0.90849187       0.44939162
C       -1.62908760      -0.55247779       1.25054666
C       -1.53771930      -0.19394200      -0.19242313
C       -1.77212898       0.99226993      -0.91687844
H        3.33948284       0.04258944       1.08796567
H        2.63312935       1.58984085       0.60651444
H        3.64693393       0.68682298      -0.53211346
H        1.94017053      -1.13208574      -0.62378654
H        1.21466717       0.41575044      -1.09949817
H       -0.27932122      -1.94032238       0.12563972
H       -1.51140876       0.24217226       1.97700491
H       -2.31458639      -1.33737811       1.54379956
H       -2.53754871      -1.10225689      -1.00926194
H       -1.16905142       1.15506200      -1.80868662
H       -3.11587044      -0.10914705      -1.30652505
H       -1.80803671       1.90730353      -0.33258113
19
Frame=14 idx=009437 GeodesicLength=1.5095370338914202 rxn_smarts="[C:1]([C:2]([O:3][C@@:4]1([H:13])[C:5]([H:14])([H:15])[C@:6]1([C:7]([H:17])([H:18])[H:19])[H:16])([H:11])[H:12])([H:8])([H:9])[H:10]>>[C:1]([C:2]([O:3][C@@:4]1([H:13])[C:5]([H:14])([H:15])[C:6]1=[C:7]([H:17])[H:19])([H:11])[H:12])([H:8])([H:9])[H:10].[H:16][H:18]"
C        2.90340253       0.59385944       0.26093365
C        1.67984545      -0.12102046      -0.26260808
O        0.74501790      -0.21812196       0.79345330
C       -0.40347152      -0.91204375       0.45342577
C       -1.62093171      -0.55456708       1.25459635
C       -1.53052656      -0.20494975      -0.19061110
C       -1.78441680       0.97396242      -0.92157092
H        3.34565679       0.03919159       1.08972957
H        2.64040215       1.59010695       0.61915586
H        3.65220465       0.69347426      -0.52642603
H        1.94392143      -1.12331573      -0.62812182
H        1.21758155       0.42801863      -1.09253915
H       -0.26945910      -1.94326633       0.12822599
H       -1.50252077       0.24096619       1.98004291
H       -2.30770211      -1.33756491       1.55061711
H       -2.57439683      -1.07412677      -1.00623904
H       -1.18374590       1.13110145      -1.81715949
H       -3.17730464      -0.09427580      -1.34447037
H       -1.77355653       1.89257162      -0.34043451
19
Frame=15 idx=009437 GeodesicLength=1.61718452612288 rxn_smarts="[C:1]([C:2]([O:3][C@@:4]1([H:13])[C:5]([H:14])([H:15])[C@:6]1([C:7]([H:17])([H:18])[H:19])[H:16])([H:11])[H:12])([H:8])([H:9])[H:10]>>[C:1]([C:2]([O:3][C@@:4]1([H:13])[C:5]([H:14])([H:15])[C:6]1=[C:7]([H:17])[H:19])([H:11])[H:12])([H:8])([H:9])[H:10].[H:16][H:18]"
C        2.90955385       0.59616706       0.26615630
C        1.68472315      -0.11463023      -0.26022111
O        0.75164568      -0.21687295       0.79649159
C       -0.39505432      -0.91603903       0.45814863
C       -1.61210505      -0.55687582       1.25937563
C       -1.52276698      -0.21667282      -0.18819736
C       -1.79723832       0.95507120      -0.92474076
H        3.35244343       0.03592299       1.09087437
H        2.64795435       1.59030215       0.63129723
H        3.65750409       0.70013897      -0.52145070
H        1.94786759      -1.11469214      -0.63248874
H        1.22033165       0.43997880      -1.08539862
H       -0.25903757      -1.94668388       0.13159588
H       -1.49289958       0.23970120       1.98362058
H       -2.30027341      -1.33776379       1.55837707
H       -2.61557346      -1.04224574      -0.99794148
H       -1.19777440       1.10818889      -1.82301599
H       -3.23543040      -0.07901645      -1.39431851
H       -1.74387030       1.87602160      -0.34816401
19
Frame=16 idx=009437 GeodesicLength=1.7246302306218915 rxn_smarts="[C:1]([C:2]([O:3][C@@:4]1([H:13])[C:5]([H:14])([H:15])[C@:6]1([C:7]([H:17])([H:18])[H:19])[H:16])([H:11])[H:12])([H:8])([H:9])[H:10]>>[C:1]([C:2]([O:3][C@@:4]1([H:13])[C:5]([H:14])([H:15])[C:6]1=[C:7]([H:17])[H:19])([H:11])[H:12])([H:8])([H:9])[H:10].[H:16][H:18]"
C        2.91590966       0.59835932       0.27056967
C        1.68963965      -0.10851847      -0.25798575
O        0.75877710      -0.21584825       0.79975303
C       -0.38618655      -0.92039440       0.46365924
C       -1.60257260      -0.55935915       1.26521960
C       -1.51471937      -0.22904851      -0.18485211
C       -1.81082100       0.93573158      -0.92592625
H        3.35980936       0.03274918       1.09108128
H        2.65579552       1.59036793       0.64255032
H        3.66267281       0.70661528      -0.51757713
H        1.95174651      -1.10632828      -0.63696087
H        1.22268906       0.45148848      -1.07819942
H       -0.24825555      -1.95049893       0.13587863
H       -1.48237232       0.23838421       1.98807361
H       -2.29221531      -1.33792186       1.56751988
H       -2.66169973      -1.00564959      -0.98312241
H       -1.21087351       1.08707142      -1.82538390
H       -3.28736594      -0.06515092      -1.45974629
H       -1.71995778       1.85795097      -0.35455112
