11
Frame=0 idx=002532 GeodesicLength=0.0 rxn_smarts="[C:1](/[N:2]=[C:3](\[N:4]([H:10])[H:11])[C:5]#[N:6])([H:7])([H:8])[H:9]>>[C:1]1([H:7])([H:8])[N-:2][C:3]([N:4]([H:10])[H:11])=[C:5]=[N+:6]1[H:9]"
C        1.45159892      -0.66324667       0.04292515
N        0.80622412       0.49371181      -0.13265092
C       -0.44420873       0.64281275      -0.06171698
N       -1.13860121       1.78557492      -0.04404179
C       -1.27417804      -0.68453762       0.05306508
N       -0.58603219      -1.69089333       0.07684328
H        2.14229852      -0.97019145      -0.73967685
H        1.73944202      -0.93006942       1.05881716
H        0.12377655      -2.37829375      -0.07813472
H       -0.68120934       2.67591665      -0.08983451
H       -2.13911059       1.71921613      -0.08559490
11
Frame=1 idx=002532 GeodesicLength=0.1312475004013039 rxn_smarts="[C:1](/[N:2]=[C:3](\[N:4]([H:10])[H:11])[C:5]#[N:6])([H:7])([H:8])[H:9]>>[C:1]1([H:7])([H:8])[N-:2][C:3]([N:4]([H:10])[H:11])=[C:5]=[N+:6]1[H:9]"
C        1.43678189      -0.67626017       0.03470623
N        0.79867928       0.47983626      -0.20651388
C       -0.45058356       0.63426692      -0.11210610
N       -1.13502013       1.78092131      -0.01518655
C       -1.28805255      -0.68332576      -0.01524841
N       -0.60963497      -1.69309753       0.07108006
H        2.14728851      -1.00627334      -0.72096655
H        1.73615430      -0.87091332       1.06415000
H        0.16823875      -2.36173374      -0.01287253
H       -0.66783357       2.66773166      -0.01499965
H       -2.13601794       1.72884771      -0.07204263
11
Frame=2 idx=002532 GeodesicLength=0.26282162354181426 rxn_smarts="[C:1](/[N:2]=[C:3](\[N:4]([H:10])[H:11])[C:5]#[N:6])([H:7])([H:8])[H:9]>>[C:1]1([H:7])([H:8])[N-:2][C:3]([N:4]([H:10])[H:11])=[C:5]=[N+:6]1[H:9]"
C        1.42121189      -0.68588306       0.02891294
N        0.79126941       0.46452578      -0.28332133
C       -0.45670835       0.62558643      -0.17294996
N       -1.12858604       1.77118290       0.00633883
C       -1.29975510      -0.68292435      -0.09166354
N       -0.63387154      -1.69216355       0.06862396
H        2.15142544      -1.04088730      -0.69686297
H        1.72940304      -0.80498206       1.06778916
H        0.20606058      -2.33822603       0.05307879
H       -0.64997863       2.64996517       0.06337106
H       -2.13047071       1.73380606      -0.04331695
11
Frame=3 idx=002532 GeodesicLength=0.39383128817169283 rxn_smarts="[C:1](/[N:2]=[C:3](\[N:4]([H:10])[H:11])[C:5]#[N:6])([H:7])([H:8])[H:9]>>[C:1]1([H:7])([H:8])[N-:2][C:3]([N:4]([H:10])[H:11])=[C:5]=[N+:6]1[H:9]"
C        1.40523798      -0.69299994       0.02478258
N        0.78402239       0.44875080      -0.35510239
C       -0.46276477       0.61748021      -0.23222369
N       -1.11967595       1.75815406       0.02675716
C       -1.31041074      -0.68245649      -0.16228761
N       -0.65850017      -1.69146585       0.04834057
H        2.15395308      -1.06957930      -0.67076679
H        1.72100414      -0.73917618       1.06776746
H        0.23840798      -2.30868556       0.12727617
H       -0.62837862       2.62550732       0.13170061
H       -2.12289533       1.73447094      -0.00624407
11
Frame=4 idx=002532 GeodesicLength=0.5250909088555094 rxn_smarts="[C:1](/[N:2]=[C:3](\[N:4]([H:10])[H:11])[C:5]#[N:6])([H:7])([H:8])[H:9]>>[C:1]1([H:7])([H:8])[N-:2][C:3]([N:4]([H:10])[H:11])=[C:5]=[N+:6]1[H:9]"
C        1.38904729      -0.69813823       0.02217113
N        0.77697248       0.43280270      -0.42009649
C       -0.46820106       0.60985323      -0.28565423
N       -1.11005323       1.74318605       0.04051550
C       -1.31945245      -0.68150213      -0.22447281
N       -0.68269143      -1.68922793       0.03215325
H        2.15350846      -1.09370111      -0.64575124
H        1.71384466      -0.67518295       1.06368672
H        0.26535248      -2.27366095       0.19301457
H       -0.60498728       2.59395733       0.20113322
H       -2.11333993       1.73161399       0.02330039
11
Frame=5 idx=002532 GeodesicLength=0.6573656936585827 rxn_smarts="[C:1](/[N:2]=[C:3](\[N:4]([H:10])[H:11])[C:5]#[N:6])([H:7])([H:8])[H:9]>>[C:1]1([H:7])([H:8])[N-:2][C:3]([N:4]([H:10])[H:11])=[C:5]=[N+:6]1[H:9]"
C        1.37367139      -0.70253775       0.02102127
N        0.77047898       0.41758691      -0.47692732
C       -0.47337898       0.60302280      -0.33108062
N       -1.10014579       1.72748608       0.05554863
C       -1.32840153      -0.68018276      -0.27877048
N       -0.70548530      -1.68915118       0.00579954
H        2.15150389      -1.11356037      -0.62212851
H        1.70958157      -0.61611187       1.05629034
H        0.28766725      -2.23503268       0.25973583
H       -0.58174911       2.56072018       0.26017558
H       -2.10374235       1.72776064       0.05033574
11
Frame=6 idx=002532 GeodesicLength=0.7893693506879218 rxn_smarts="[C:1](/[N:2]=[C:3](\[N:4]([H:10])[H:11])[C:5]#[N:6])([H:7])([H:8])[H:9]>>[C:1]1([H:7])([H:8])[N-:2][C:3]([N:4]([H:10])[H:11])=[C:5]=[N+:6]1[H:9]"
C        1.35845503      -0.70571718       0.02123484
N        0.76432769       0.40261552      -0.52819574
C       -0.47794680       0.59650489      -0.37182814
N       -1.09016163       1.71154940       0.06658617
C       -1.33642586      -0.67838219      -0.32757955
N       -0.72731846      -1.68872466      -0.01919752
H        2.14715522      -1.13085494      -0.59966046
H        1.70727846      -0.55930367       1.04607300
H        0.30643209      -2.19308172       0.32151305
H       -0.55835715       2.52283174       0.31860474
H       -2.09343860       1.72256280       0.07244961
11
Frame=7 idx=002532 GeodesicLength=0.9218792891801594 rxn_smarts="[C:1](/[N:2]=[C:3](\[N:4]([H:10])[H:11])[C:5]#[N:6])([H:7])([H:8])[H:9]>>[C:1]1([H:7])([H:8])[N-:2][C:3]([N:4]([H:10])[H:11])=[C:5]=[N+:6]1[H:9]"
C        1.34345904      -0.70753544       0.02255400
N        0.75879049       0.38770900      -0.57671251
C       -0.48198853       0.59047554      -0.41109168
N       -1.07979574       1.69535900       0.07487118
C       -1.34375811      -0.67631138      -0.37485161
N       -0.74851602      -1.68824852      -0.04526664
H        2.14114334      -1.14698026      -0.57728836
H        1.70647301      -0.50304003       1.03309012
H        0.32134685      -2.14697377       0.38346034
H       -0.53464999       2.47994561       0.37718928
H       -2.08250435       1.71560024       0.09404589
11
Frame=8 idx=002532 GeodesicLength=1.0547360155798857 rxn_smarts="[C:1](/[N:2]=[C:3](\[N:4]([H:10])[H:11])[C:5]#[N:6])([H:7])([H:8])[H:9]>>[C:1]1([H:7])([H:8])[N-:2][C:3]([N:4]([H:10])[H:11])=[C:5]=[N+:6]1[H:9]"
C        1.32882324      -0.70867113       0.02531618
N        0.75390030       0.37342791      -0.62028769
C       -0.48542522       0.58494843      -0.44636303
N       -1.06935288       1.67833004       0.08438015
C       -1.35033472      -0.67383003      -0.41961172
N       -0.76839290      -1.68853055      -0.07486544
H        2.13343881      -1.16170373      -0.55548623
H        1.70777979      -0.44997118       1.01813073
H        0.33278984      -2.09752201       0.44438615
H       -0.51180532       2.43639304       0.42877654
H       -2.07142095       1.70712922       0.11562438
11
Frame=9 idx=002532 GeodesicLength=1.1879004720096449 rxn_smarts="[C:1](/[N:2]=[C:3](\[N:4]([H:10])[H:11])[C:5]#[N:6])([H:7])([H:8])[H:9]>>[C:1]1([H:7])([H:8])[N-:2][C:3]([N:4]([H:10])[H:11])=[C:5]=[N+:6]1[H:9]"
C        1.31448600      -0.70891641       0.02919539
N        0.74964665       0.35950844      -0.66065946
C       -0.48831975       0.57990258      -0.47931237
N       -1.05895606       1.66121717       0.09287809
C       -1.35627688      -0.67097998      -0.46241623
N       -0.78744472      -1.68897416      -0.10527908
H        2.12419001      -1.17584440      -0.53405807
H        1.71104034      -0.39883686       1.00096367
H        0.34153674      -2.04487398       0.50419593
H       -0.48965167       2.39019368       0.47852589
H       -2.06025066       1.69760392       0.13596625
11
Frame=10 idx=002532 GeodesicLength=1.321258362512403 rxn_smarts="[C:1](/[N:2]=[C:3](\[N:4]([H:10])[H:11])[C:5]#[N:6])([H:7])([H:8])[H:9]>>[C:1]1([H:7])([H:8])[N-:2][C:3]([N:4]([H:10])[H:11])=[C:5]=[N+:6]1[H:9]"
C        1.30030926      -0.70828793       0.03406009
N        0.74588591       0.34591804      -0.69821186
C       -0.49065911       0.57531393      -0.51007451
N       -1.04852623       1.64411248       0.10051003
C       -1.36156350      -0.66762605      -0.50309342
N       -0.80576303      -1.68939623      -0.13604840
H        2.11335348      -1.18947220      -0.51295715
H        1.71597047      -0.34973880       0.98166616
H        0.34839367      -1.98938456       0.56268618
H       -0.46848435       2.34111277       0.52691360
H       -2.04891658       1.68744854       0.15454926
11
Frame=11 idx=002532 GeodesicLength=1.4548756102801332 rxn_smarts="[C:1](/[N:2]=[C:3](\[N:4]([H:10])[H:11])[C:5]#[N:6])([H:7])([H:8])[H:9]>>[C:1]1([H:7])([H:8])[N-:2][C:3]([N:4]([H:10])[H:11])=[C:5]=[N+:6]1[H:9]"
C        1.28634208      -0.70699790       0.03996066
N        0.74265741       0.33273252      -0.73278737
C       -0.49250931       0.57113639      -0.53846933
N       -1.03825231       1.62671358       0.10842851
C       -1.36628831      -0.66385340      -0.54201408
N       -0.82314576      -1.69018638      -0.16854507
H        2.10101432      -1.20293465      -0.49212488
H        1.72276400      -0.30321637       0.96052000
H        0.35349408      -1.93087649       0.62044413
H       -0.44838734       2.29095514       0.57213809
H       -2.03768886       1.67652755       0.17244933
11
Frame=12 idx=002532 GeodesicLength=1.5887013160973664 rxn_smarts="[C:1](/[N:2]=[C:3](\[N:4]([H:10])[H:11])[C:5]#[N:6])([H:7])([H:8])[H:9]>>[C:1]1([H:7])([H:8])[N-:2][C:3]([N:4]([H:10])[H:11])=[C:5]=[N+:6]1[H:9]"
C        1.27249785      -0.70502157       0.04671374
N        0.73985437       0.31988981      -0.76493146
C       -0.49389704       0.56735799      -0.56486529
N       -1.02810094       1.60922080       0.11625449
C       -1.37049568      -0.65960687      -0.57908911
N       -0.83965436      -1.69125488      -0.20243235
H        2.08710647      -1.21643548      -0.47153851
H        1.73131603      -0.25912535       0.93738070
H        0.35743165      -1.86921963       0.67782257
H       -0.42951657       2.23890262       0.61566820
H       -2.02654178       1.66529255       0.18901703
11
Frame=13 idx=002532 GeodesicLength=1.7227705388448127 rxn_smarts="[C:1](/[N:2]=[C:3](\[N:4]([H:10])[H:11])[C:5]#[N:6])([H:7])([H:8])[H:9]>>[C:1]1([H:7])([H:8])[N-:2][C:3]([N:4]([H:10])[H:11])=[C:5]=[N+:6]1[H:9]"
C        1.25875481      -0.70245971       0.05429264
N        0.73745964       0.30738621      -0.79475843
C       -0.49486686       0.56394414      -0.58933339
N       -1.01815359       1.59155968       0.12428518
C       -1.37425190      -0.65491638      -0.61446459
N       -0.85520199      -1.69274617      -0.23828464
H        2.07157685      -1.23026018      -0.45112976
H        1.74172122      -0.21770654       0.91229459
H        0.36052751      -1.80405059       0.73523352
H       -0.41196685       2.18545039       0.65728780
H       -2.01559887       1.65379915       0.20457708
11
Frame=14 idx=002532 GeodesicLength=1.8570940599684649 rxn_smarts="[C:1](/[N:2]=[C:3](\[N:4]([H:10])[H:11])[C:5]#[N:6])([H:7])([H:8])[H:9]>>[C:1]1([H:7])([H:8])[N-:2][C:3]([N:4]([H:10])[H:11])=[C:5]=[N+:6]1[H:9]"
C        1.24504620      -0.69945234       0.06274738
N        0.73547382       0.29526075      -0.82222794
C       -0.49545058       0.56085664      -0.61184686
N       -1.00853785       1.57351531       0.13294430
C       -1.37756762      -0.64981970      -0.64834213
N       -0.86964040      -1.69482433      -0.27690258
H        2.05430096      -1.24466901      -0.43077796
H        1.75401397      -0.17938546       0.88542272
H        0.36305384      -1.73497339       0.79294253
H       -0.39569813       2.13173518       0.69615017
H       -2.00499422       1.64175634       0.21989036
11
Frame=15 idx=002532 GeodesicLength=1.9917348017602556 rxn_smarts="[C:1](/[N:2]=[C:3](\[N:4]([H:10])[H:11])[C:5]#[N:6])([H:7])([H:8])[H:9]>>[C:1]1([H:7])([H:8])[N-:2][C:3]([N:4]([H:10])[H:11])=[C:5]=[N+:6]1[H:9]"
C        1.23128061      -0.69596872       0.07193892
N        0.73376859       0.28342734      -0.84774012
C       -0.49570718       0.55804424      -0.63266768
N       -0.99922530       1.55520750       0.14188693
C       -1.38051793      -0.64430256      -0.68051709
N       -0.88292746      -1.69741469      -0.31831922
H        2.03503900      -1.25987741      -0.41044417
H        1.76821985      -0.14414181       0.85645812
H        0.36563790      -1.66121015       0.85146053
H       -0.38087437       2.07654306       0.73378781
H       -1.99469369       1.62969319       0.23415597
11
Frame=16 idx=002532 GeodesicLength=2.126709721622953 rxn_smarts="[C:1](/[N:2]=[C:3](\[N:4]([H:10])[H:11])[C:5]#[N:6])([H:7])([H:8])[H:9]>>[C:1]1([H:7])([H:8])[N-:2][C:3]([N:4]([H:10])[H:11])=[C:5]=[N+:6]1[H:9]"
C        1.21739835      -0.69219240       0.08194414
N        0.73234846       0.27192215      -0.87117376
C       -0.49568961       0.55545765      -0.65168751
N       -0.99038893       1.53650782       0.15143412
C       -1.38315860      -0.63844751      -0.71098870
N       -0.89489895      -1.70069431      -0.36343835
H        2.01356791      -1.27621737      -0.39002533
H        1.78449805      -0.11253278       0.82543824
H        0.36881503      -1.58212309       0.91102291
H       -0.36759175       2.02076614       0.76969971
H       -1.98489996       1.61755370       0.24777453
