16
Frame=0 idx=006773 GeodesicLength=0.0 rxn_smarts="[C:1](/[N:2]=[C:3](/[O:4][C:5]([C:6]([O:7][H:16])([H:14])[H:15])([H:12])[H:13])[H:11])([H:8])([H:9])[H:10]>>[C:1]([N:2]([C:3]1([H:11])[O:4][C:5]([H:12])([H:13])[C:6]([H:14])([H:15])[O:7]1)[H:16])([H:8])([H:9])[H:10]"
C        2.08530490      -0.34377142      -1.32750042
N        0.85939773       0.21861620      -0.78883999
C        0.79452959       0.48495843       0.50215659
O       -0.16760718       1.05353506       1.14036165
C       -1.51982613       0.85802342       0.67044130
C       -1.79024954      -0.65621022       0.80216554
O       -0.74171579      -1.33247722       0.29490891
H        2.10185010      -1.42818343      -1.19798503
H        2.15065529      -0.10868470      -2.38857245
H        2.95053598       0.09338739      -0.82897071
H        1.72033755       0.48015361       1.07442054
H       -2.13225691       1.49987813       1.30146568
H       -1.57618542       1.18828212      -0.37108196
H       -1.98428633      -0.87449270       1.87272270
H       -2.75238855      -0.82171168       0.27682502
H        0.00190472      -0.31130295      -1.03251735
16
Frame=1 idx=006773 GeodesicLength=0.08597325388833671 rxn_smarts="[C:1](/[N:2]=[C:3](/[O:4][C:5]([C:6]([O:7][H:16])([H:14])[H:15])([H:12])[H:13])[H:11])([H:8])([H:9])[H:10]>>[C:1]([N:2]([C:3]1([H:11])[O:4][C:5]([H:12])([H:13])[C:6]([H:14])([H:15])[O:7]1)[H:16])([H:8])([H:9])[H:10]"
C        2.09450192      -0.33025463      -1.33166518
N        0.85209172       0.18615696      -0.78765823
C        0.78601402       0.45529768       0.50446737
O       -0.16701289       1.06841223       1.12295952
C       -1.52007339       0.86658133       0.66157727
C       -1.79475847      -0.64383636       0.81483239
O       -0.74936232      -1.33209328       0.30686681
H        2.12875611      -1.41879035      -1.24980777
H        2.16529957      -0.04761541      -2.38092856
H        2.95247320       0.09546555      -0.81022376
H        1.70780058       0.44596932       1.08389192
H       -2.13099756       1.51591693       1.28627991
H       -1.58021864       1.18252030      -0.38409542
H       -1.97854762      -0.85180760       1.88834009
H       -2.75816855      -0.81870325       0.29721596
H       -0.00779767      -0.37321943      -1.02205234
16
Frame=2 idx=006773 GeodesicLength=0.17162426489986488 rxn_smarts="[C:1](/[N:2]=[C:3](/[O:4][C:5]([C:6]([O:7][H:16])([H:14])[H:15])([H:12])[H:13])[H:11])([H:8])([H:9])[H:10]>>[C:1]([N:2]([C:3]1([H:11])[O:4][C:5]([H:12])([H:13])[C:6]([H:14])([H:15])[O:7]1)[H:16])([H:8])([H:9])[H:10]"
C        2.10244565      -0.31668907      -1.33525910
N        0.84517144       0.15339429      -0.78619727
C        0.77758749       0.42634161       0.50685858
O       -0.16553296       1.08239125       1.10474163
C       -1.51953218       0.87472402       0.65209250
C       -1.79873143      -0.63148717       0.82697510
O       -0.75632554      -1.33228175       0.31958964
H        2.15400573      -1.40703877      -1.30253414
H        2.17701897       0.01433670      -2.37025107
H        2.95382470       0.09530659      -0.79148218
H        1.69544890       0.41311486       1.09320758
H       -2.12876505       1.53167214       1.27036043
H       -1.58364601       1.17618841      -0.39753685
H       -1.97300559      -0.82878724       1.90320399
H       -2.76307887      -0.81560010       0.31668931
H       -0.01688525      -0.43558578      -1.01045815
16
Frame=3 idx=006773 GeodesicLength=0.256983325739614 rxn_smarts="[C:1](/[N:2]=[C:3](/[O:4][C:5]([C:6]([O:7][H:16])([H:14])[H:15])([H:12])[H:13])[H:11])([H:8])([H:9])[H:10]>>[C:1]([N:2]([C:3]1([H:11])[O:4][C:5]([H:12])([H:13])[C:6]([H:14])([H:15])[O:7]1)[H:16])([H:8])([H:9])[H:10]"
C        2.10912422      -0.30314102      -1.33829895
N        0.83867089       0.12037245      -0.78442272
C        0.76930540       0.39812688       0.50936255
O       -0.16322500       1.09548895       1.08578350
C       -1.51822617       0.88244356       0.64198226
C       -1.80215194      -0.61917201       0.83854964
O       -0.76254196      -1.33296826       0.33306496
H        2.17734288      -1.39283731      -1.35620730
H        2.18581176       0.07709938      -2.35638693
H        2.95468338       0.09268223      -0.77286878
H        1.68338272       0.38178514       1.10233002
H       -2.12562885       1.54710640       1.25367964
H       -1.58644835       1.16930496      -0.41139969
H       -1.96767300      -0.80547265       1.91726151
H       -2.76709420      -0.81245233       0.33518004
H       -0.02533178      -0.49836638      -0.99760973
16
Frame=4 idx=006773 GeodesicLength=0.34206000388327845 rxn_smarts="[C:1](/[N:2]=[C:3](/[O:4][C:5]([C:6]([O:7][H:16])([H:14])[H:15])([H:12])[H:13])[H:11])([H:8])([H:9])[H:10]>>[C:1]([N:2]([C:3]1([H:11])[O:4][C:5]([H:12])([H:13])[C:6]([H:14])([H:15])[O:7]1)[H:16])([H:8])([H:9])[H:10]"
C        2.11453408      -0.28967307      -1.34080813
N        0.83261995       0.08716755      -0.78229944
C        0.76121761       0.37070322       0.51201094
O       -0.16014214       1.10772052       1.06616818
C       -1.51617545       0.88973435       0.63125630
C       -1.80500245      -0.60690398       0.84949708
O       -0.76795738      -1.33405658       0.34725953
H        2.19854247      -1.37606527      -1.41076119
H        2.19163437       0.14047789      -2.33920795
H        2.95515587       0.08740890      -0.75454787
H        1.67167909       0.35213998       1.11121558
H       -2.12165409       1.56216749       1.23624097
H       -1.58860283       1.16191210      -0.42565921
H       -1.96256130      -0.78193996       1.93043320
H       -2.77018278      -0.80930239       0.35260679
H       -0.03310502      -0.56149073      -0.98340478
16
Frame=5 idx=006773 GeodesicLength=0.42713996331144277 rxn_smarts="[C:1](/[N:2]=[C:3](/[O:4][C:5]([C:6]([O:7][H:16])([H:14])[H:15])([H:12])[H:13])[H:11])([H:8])([H:9])[H:10]>>[C:1]([N:2]([C:3]1([H:11])[O:4][C:5]([H:12])([H:13])[C:6]([H:14])([H:15])[O:7]1)[H:16])([H:8])([H:9])[H:10]"
C        2.11872025      -0.27628602      -1.34285890
N        0.82702798       0.05394333      -0.77982586
C        0.75330659       0.34412537       0.51479272
O       -0.15643090       1.11917494       1.04600842
C       -1.51349732       0.89660029       0.61996448
C       -1.80729736      -0.59470215       0.85982919
O       -0.77253408      -1.33545616       0.36211240
H        2.21744094      -1.35657709      -1.46656803
H        2.19518545       0.20397521      -2.31844090
H        2.95523377       0.07929605      -0.73675341
H        1.66038530       0.32431268       1.11986252
H       -2.11701735       1.57681875       1.21808139
H       -1.59021620       1.15403274      -0.44025976
H       -1.95760679      -0.75822252       1.94277251
H       -2.77239763      -0.80623239       0.36901643
H       -0.04030263      -0.62480303      -0.96773319
16
Frame=6 idx=006773 GeodesicLength=0.5120534645889491 rxn_smarts="[C:1](/[N:2]=[C:3](/[O:4][C:5]([C:6]([O:7][H:16])([H:14])[H:15])([H:12])[H:13])[H:11])([H:8])([H:9])[H:10]>>[C:1]([N:2]([C:3]1([H:11])[O:4][C:5]([H:12])([H:13])[C:6]([H:14])([H:15])[O:7]1)[H:16])([H:8])([H:9])[H:10]"
C        2.12167337      -0.26309028      -1.34445754
N        0.82192974       0.02076493      -0.77698658
C        0.74564846       0.31845977       0.51773652
O       -0.15209943       1.12986583       1.02532934
C       -1.51017534       0.90303446       0.60808953
C       -1.80899860      -0.58258503       0.86946813
O       -0.77621695      -1.33708399       0.37756872
H        2.23373088      -1.33427211      -1.52324238
H        2.19615534       0.26755110      -2.29400115
H        2.95507256       0.06818997      -0.71966926
H        1.64957042       0.29836838       1.12824215
H       -2.11173529       1.59100603       1.19919164
H       -1.59123628       1.14570674      -0.45520983
H       -1.95281963      -0.73440813       1.95416133
H       -2.77367034      -0.80328836       0.38431736
H       -0.04682891      -0.68821931      -0.95053798
16
Frame=7 idx=006773 GeodesicLength=0.5968428609151153 rxn_smarts="[C:1](/[N:2]=[C:3](/[O:4][C:5]([C:6]([O:7][H:16])([H:14])[H:15])([H:12])[H:13])[H:11])([H:8])([H:9])[H:10]>>[C:1]([N:2]([C:3]1([H:11])[O:4][C:5]([H:12])([H:13])[C:6]([H:14])([H:15])[O:7]1)[H:16])([H:8])([H:9])[H:10]"
C        2.12343105      -0.25013937      -1.34564545
N        0.81734177      -0.01222227      -0.77378833
C        0.73827548       0.29377049       0.52084461
O       -0.14722348       1.13984660       1.00419603
C       -1.50626121       0.90903672       0.59565230
C       -1.81009050      -0.57057856       0.87836999
O       -0.77895023      -1.33886263       0.39352634
H        2.24716327      -1.30907150      -1.58059009
H        2.19470628       0.33091675      -2.26576616
H        2.95473479       0.05395986      -0.70355486
H        1.63929972       0.27437399       1.13635468
H       -2.10590396       1.60467643       1.17960558
H       -1.59169406       1.13697935      -0.47047935
H       -1.94816008      -0.71057437       1.96456030
H       -2.77399719      -0.80052980       0.39847856
H       -0.05267165      -0.75158169      -0.93176415
16
Frame=8 idx=006773 GeodesicLength=0.681560282749091 rxn_smarts="[C:1](/[N:2]=[C:3](/[O:4][C:5]([C:6]([O:7][H:16])([H:14])[H:15])([H:12])[H:13])[H:11])([H:8])([H:9])[H:10]>>[C:1]([N:2]([C:3]1([H:11])[O:4][C:5]([H:12])([H:13])[C:6]([H:14])([H:15])[O:7]1)[H:16])([H:8])([H:9])[H:10]"
C        2.12403866      -0.23745803      -1.34646872
N        0.81326152      -0.04485463      -0.77024939
C        0.73119887       0.27009187       0.52411221
O       -0.14186053       1.14915046       0.98269921
C       -1.50179678       0.91461664       0.58270866
C       -1.81057637      -0.55870222       0.88648761
O       -0.78073325      -1.34068764       0.40986613
H        2.25763367      -1.28083631      -1.63826371
H        2.19103035       0.39353533      -2.23373015
H        2.95426119       0.03667397      -0.68871542
H        1.62957330       0.25231365       1.14416287
H       -2.09959388       1.61777956       1.15941877
H       -1.59161328       1.12793591      -0.48600203
H       -1.94360697      -0.68684338       1.97391109
H       -2.77338070      -0.79798780       0.41147170
H       -0.05783582      -0.81472739      -0.91140881
16
Frame=9 idx=006773 GeodesicLength=0.7664830952313301 rxn_smarts="[C:1](/[N:2]=[C:3](/[O:4][C:5]([C:6]([O:7][H:16])([H:14])[H:15])([H:12])[H:13])[H:11])([H:8])([H:9])[H:10]>>[C:1]([N:2]([C:3]1([H:11])[O:4][C:5]([H:12])([H:13])[C:6]([H:14])([H:15])[O:7]1)[H:16])([H:8])([H:9])[H:10]"
C        2.12358864      -0.22503799      -1.34692576
N        0.80967471      -0.07689653      -0.76643556
C        0.72437086       0.24749634       0.52748701
O       -0.13618418       1.15791057       0.96094555
C       -1.49694472       0.91978750       0.56934332
C       -1.81049292      -0.54700088       0.89386526
O       -0.78155276      -1.34251813       0.42648196
H        2.26499940      -1.24942590      -1.69650788
H        2.18619943       0.45469443      -2.19787858
H        2.95357592       0.01633782      -0.67539297
H        1.62039168       0.23222409       1.15167498
H       -2.09301938       1.63027876       1.13873898
H       -1.59118011       1.11861092      -0.50169539
H       -1.93907990      -0.66325829       1.98232685
H       -2.77190952      -0.79576306       0.42339967
H       -0.06243716      -0.87743965      -0.88942743
16
Frame=10 idx=006773 GeodesicLength=0.8513652227754088 rxn_smarts="[C:1](/[N:2]=[C:3](/[O:4][C:5]([C:6]([O:7][H:16])([H:14])[H:15])([H:12])[H:13])[H:11])([H:8])([H:9])[H:10]>>[C:1]([N:2]([C:3]1([H:11])[O:4][C:5]([H:12])([H:13])[C:6]([H:14])([H:15])[O:7]1)[H:16])([H:8])([H:9])[H:10]"
C        2.12213459      -0.21295929      -1.34707491
N        0.80657419      -0.10826374      -0.76236014
C        0.71785344       0.22596589       0.53099796
O       -0.13014461       1.16608657       0.93900562
C       -1.49164766       0.92456951       0.55560265
C       -1.80982887      -0.53548713       0.90038732
O       -0.78143830      -1.34426950       0.44320205
H        2.26925647      -1.21493740      -1.75427877
H        2.17968727       0.51406315      -2.15847235
H        2.95275851      -0.00666818      -0.66392265
H        1.61177660       0.21396416       1.15888714
H       -2.08611961       1.64213539       1.11768689
H       -1.59030441       1.10915247      -0.51750066
H       -1.93460763      -0.63999309       1.98963801
H       -2.76954812      -0.79381195       0.43413213
H       -0.06640186      -0.93954685      -0.86593030
16
Frame=11 idx=006773 GeodesicLength=0.9362867345825105 rxn_smarts="[C:1](/[N:2]=[C:3](/[O:4][C:5]([C:6]([O:7][H:16])([H:14])[H:15])([H:12])[H:13])[H:11])([H:8])([H:9])[H:10]>>[C:1]([N:2]([C:3]1([H:11])[O:4][C:5]([H:12])([H:13])[C:6]([H:14])([H:15])[O:7]1)[H:16])([H:8])([H:9])[H:10]"
C        2.11976168      -0.20122643      -1.34697034
N        0.80393420      -0.13877767      -0.75811026
C        0.71164343       0.20548405       0.53460377
O       -0.12379319       1.17370466       0.91699863
C       -1.48595989       0.92899373       0.54159006
C       -1.80861701      -0.52419139       0.90601980
O       -0.78042759      -1.34590662       0.45981453
H        2.27051589      -1.17754110      -1.81089344
H        2.17179246       0.57104461      -2.11588253
H        2.95175036      -0.03186172      -0.65457632
H        1.60373013       0.19738070       1.16578601
H       -2.07894876       1.65332661       1.09645268
H       -1.58904662       1.09970172      -0.53330872
H       -1.93015971      -0.61718159       1.99583615
H       -2.76636134      -0.79213228       0.44366230
H       -0.06981403      -1.00081728      -0.84102234
16
Frame=12 idx=006773 GeodesicLength=1.021267300071845 rxn_smarts="[C:1](/[N:2]=[C:3](/[O:4][C:5]([C:6]([O:7][H:16])([H:14])[H:15])([H:12])[H:13])[H:11])([H:8])([H:9])[H:10]>>[C:1]([N:2]([C:3]1([H:11])[O:4][C:5]([H:12])([H:13])[C:6]([H:14])([H:15])[O:7]1)[H:16])([H:8])([H:9])[H:10]"
C        2.11656924      -0.18981866      -1.34662631
N        0.80170797      -0.16828164      -0.75374578
C        0.70571819       0.18601593       0.53829360
O       -0.11716661       1.18079252       0.89506562
C       -1.47992650       0.93310274       0.52742394
C       -1.80690019      -0.51313887       0.91073658
O       -0.77859667      -1.34738948       0.47614374
H        2.26895527      -1.13747622      -1.86575077
H        2.16280258       0.62499239      -2.07067577
H        2.95051400      -0.05860676      -0.64753635
H        1.59621157       0.18229428       1.17239810
H       -2.07154960       1.66384412       1.07523984
H       -1.58745571       1.09041412      -0.54900241
H       -1.92572415      -0.59497601       2.00090324
H       -2.76241118      -0.79070113       0.45197785
H       -0.07274822      -1.06106732      -0.81484513
16
Frame=13 idx=006773 GeodesicLength=1.1064586574607627 rxn_smarts="[C:1](/[N:2]=[C:3](/[O:4][C:5]([C:6]([O:7][H:16])([H:14])[H:15])([H:12])[H:13])[H:11])([H:8])([H:9])[H:10]>>[C:1]([N:2]([C:3]1([H:11])[O:4][C:5]([H:12])([H:13])[C:6]([H:14])([H:15])[O:7]1)[H:16])([H:8])([H:9])[H:10]"
C        2.11270073      -0.17878607      -1.34600526
N        0.79985846      -0.19659956      -0.74938288
C        0.70001085       0.16758723       0.54196959
O       -0.11041205       1.18746030       0.87324149
C       -1.47369575       0.93690423       0.51318132
C       -1.80474535      -0.50236213       0.91463244
O       -0.77598670      -1.34872476       0.49216038
H        2.26455304      -1.09487741      -1.91894974
H        2.15371750       0.67568095      -2.02319821
H        2.94903274      -0.08676061      -0.64277323
H        1.58916564       0.16865230       1.17868187
H       -2.06409176       1.67366904       1.05415187
H       -1.58571207       1.08129143      -0.56451062
H       -1.92127107      -0.57336219       2.00499570
H       -2.75779462      -0.78960889       0.45924250
H       -0.07532960      -1.12016386      -0.78743720
16
Frame=14 idx=006773 GeodesicLength=1.1916904585156023 rxn_smarts="[C:1](/[N:2]=[C:3](/[O:4][C:5]([C:6]([O:7][H:16])([H:14])[H:15])([H:12])[H:13])[H:11])([H:8])([H:9])[H:10]>>[C:1]([N:2]([C:3]1([H:11])[O:4][C:5]([H:12])([H:13])[C:6]([H:14])([H:15])[O:7]1)[H:16])([H:8])([H:9])[H:10]"
C        2.10820106      -0.16804447      -1.34522014
N        0.79833801      -0.22376283      -0.74503442
C        0.69455459       0.15002593       0.54567665
O       -0.10341362       1.19360177       0.85171215
C       -1.46716802       0.94047212       0.49898854
C       -1.80219191      -0.49184815       0.91760738
O       -0.77273423      -1.34988238       0.50763292
H        2.25786817      -1.05034716      -1.96922462
H        2.14385938       0.72263471      -1.97435767
H        2.94728398      -0.11511238      -0.64044457
H        1.58256141       0.15604033       1.18470421
H       -2.05641850       1.68285481       1.03342972
H       -1.58368093       1.07259412      -0.57971184
H       -1.91687118      -0.55254563       2.00797496
H       -2.75255873      -0.78867745       0.46530204
H       -0.07762947      -1.17800332      -0.75903532
16
Frame=15 idx=006773 GeodesicLength=1.2770393282520054 rxn_smarts="[C:1](/[N:2]=[C:3](/[O:4][C:5]([C:6]([O:7][H:16])([H:14])[H:15])([H:12])[H:13])[H:11])([H:8])([H:9])[H:10]>>[C:1]([N:2]([C:3]1([H:11])[O:4][C:5]([H:12])([H:13])[C:6]([H:14])([H:15])[O:7]1)[H:16])([H:8])([H:9])[H:10]"
C        2.10316072      -0.15755288      -1.34429181
N        0.79712128      -0.24974446      -0.74075801
C        0.68932984       0.13324366       0.54938564
O       -0.09618983       1.19922682       0.83057360
C       -1.46036627       0.94384515       0.48492543
C       -1.79930575      -0.48160176       0.91968973
O       -0.76892775      -1.35088048       0.52249159
H        2.24920361      -1.00435694      -2.01627726
H        2.13339261       0.76578411      -1.92477126
H        2.94526306      -0.14306480      -0.64045068
H        1.57636328       0.14423917       1.19047484
H       -2.04853226       1.69144333       1.01319709
H       -1.58137409       1.06441423      -0.59454424
H       -1.91257075      -0.53255957       2.00990708
H       -2.74679258      -0.78787647       0.47018128
H       -0.07977514      -1.23455911      -0.72973301
16
Frame=16 idx=006773 GeodesicLength=1.362529626820053 rxn_smarts="[C:1](/[N:2]=[C:3](/[O:4][C:5]([C:6]([O:7][H:16])([H:14])[H:15])([H:12])[H:13])[H:11])([H:8])([H:9])[H:10]>>[C:1]([N:2]([C:3]1([H:11])[O:4][C:5]([H:12])([H:13])[C:6]([H:14])([H:15])[O:7]1)[H:16])([H:8])([H:9])[H:10]"
C        2.09765169      -0.14727353      -1.34323830
N        0.79617029      -0.27455230      -0.73658439
C        0.68430606       0.11714181       0.55308915
O       -0.08874497       1.20433862       0.80991573
C       -1.45330203       0.94706477       0.47105888
C       -1.79614860      -0.47161607       0.92091738
O       -0.76466800      -1.35172917       0.53672958
H        2.23885158      -0.95728391      -2.05993883
H        2.12245319       0.80513098      -1.87507362
H        2.94299423      -0.17008051      -0.64263670
H        1.57050521       0.13302807       1.19603032
H       -2.04042467       1.69949181       0.99354805
H       -1.57878965       1.05683017      -0.60896292
H       -1.90842942      -0.51342582       2.01084541
H       -2.74056472      -0.78716369       0.47390301
H       -0.08186020      -1.28990124      -0.69960274
