17
Frame=0 idx=011651 GeodesicLength=0.0 rxn_smarts="[O:1]([C:2]([C@@:3]1([H:11])[C:4]([H:12])([H:13])[C:5]([H:14])([H:15])[O:6][C:7]1([H:16])[H:17])([H:9])[H:10])[H:8]>>[C:2]([H:9])[H:10].[O:1]([C@@:3]1([H:11])[C:4]([H:12])([H:13])[C:5]([H:14])([H:15])[O:6][C:7]1([H:16])[H:17])[H:8]"
O        1.86367653       0.15212193       0.37182269
C        1.80443896      -1.36202015      -0.02254221
C        0.14819141      -0.21654297       0.37683847
C       -0.39116196       1.21657117       0.50202970
C       -1.85028474       0.95752597       0.16453975
O       -1.81685792       0.03369992      -0.91228790
C       -0.65343770      -0.78018641      -0.78284172
H        2.13067836       0.67871149      -0.38881997
H        2.18072583      -1.41896622      -1.04869808
H        2.52512061      -1.83915433       0.64586299
H        0.02653578      -0.76349728       1.30058804
H       -0.22675003       1.64356721       1.48991850
H        0.04131455       1.87793252      -0.25287719
H       -2.38660333       1.84741018      -0.16493599
H       -2.38568249       0.53042472       1.02409544
H       -0.10114000      -0.73448049      -1.72290820
H       -0.90876387      -1.82311734      -0.57978434
17
Frame=1 idx=011651 GeodesicLength=0.03972262477503089 rxn_smarts="[O:1]([C:2]([C@@:3]1([H:11])[C:4]([H:12])([H:13])[C:5]([H:14])([H:15])[O:6][C:7]1([H:16])[H:17])([H:9])[H:10])[H:8]>>[C:2]([H:9])[H:10].[O:1]([C@@:3]1([H:11])[C:4]([H:12])([H:13])[C:5]([H:14])([H:15])[O:6][C:7]1([H:16])[H:17])[H:8]"
O        1.87121395       0.15985653       0.36548698
C        1.80907153      -1.34906958      -0.03519204
C        0.15443685      -0.21938463       0.37398571
C       -0.39163484       1.20940199       0.51015795
C       -1.84884863       0.96058827       0.15617431
O       -1.80802212       0.04096016      -0.92346080
C       -0.65942458      -0.78879376      -0.77396493
H        2.14282132       0.68486790      -0.39461798
H        2.19108302      -1.40133034      -1.05961066
H        2.51272011      -1.83599362       0.64418031
H        0.03994094      -0.76595446       1.29991089
H       -0.24006896       1.62392919       1.50551428
H        0.04715334       1.88524974      -0.22795421
H       -2.37596761       1.85434730      -0.17795673
H       -2.39771049       0.53646593       1.00845333
H       -0.11112016      -0.77197632      -1.71745943
H       -0.93564366      -1.82316428      -0.55364698
17
Frame=2 idx=011651 GeodesicLength=0.07936389718045869 rxn_smarts="[O:1]([C:2]([C@@:3]1([H:11])[C:4]([H:12])([H:13])[C:5]([H:14])([H:15])[O:6][C:7]1([H:16])[H:17])([H:9])[H:10])[H:8]>>[C:2]([H:9])[H:10].[O:1]([C@@:3]1([H:11])[C:4]([H:12])([H:13])[C:5]([H:14])([H:15])[O:6][C:7]1([H:16])[H:17])[H:8]"
O        1.87867800       0.16766747       0.35926168
C        1.81369250      -1.33590943      -0.04815254
C        0.16069556      -0.22231349       0.37129789
C       -0.39222376       1.20200135       0.51849114
C       -1.84716706       0.96376179       0.14730757
O       -1.79852591       0.04784664      -0.93468109
C       -0.66543364      -0.79761946      -0.76461397
H        2.15496821       0.69134760      -0.40007957
H        2.20082894      -1.38314015      -1.07102871
H        2.50054855      -1.83267493       0.64119018
H        0.05357821      -0.76855594       1.29933442
H       -0.25396966       1.60361632       1.52118022
H        0.05299582       1.89231693      -0.20204472
H       -2.36457787       1.86138076      -0.19193445
H       -2.40993707       0.54316142       0.99200171
H       -0.12147615      -0.81036113      -1.71082851
H       -0.96267466      -1.82252576      -0.52670124
17
Frame=3 idx=011651 GeodesicLength=0.11887351086520952 rxn_smarts="[O:1]([C:2]([C@@:3]1([H:11])[C:4]([H:12])([H:13])[C:5]([H:14])([H:15])[O:6][C:7]1([H:16])[H:17])([H:9])[H:10])[H:8]>>[C:2]([H:9])[H:10].[O:1]([C@@:3]1([H:11])[C:4]([H:12])([H:13])[C:5]([H:14])([H:15])[O:6][C:7]1([H:16])[H:17])[H:8]"
O        1.88605427       0.17554286       0.35316980
C        1.81826400      -1.32253963      -0.06141761
C        0.16695793      -0.22533419       0.36878925
C       -0.39293421       1.19436685       0.52700737
C       -1.84521854       0.96703505       0.13794469
O       -1.78838236       0.05428386      -0.94589855
C       -0.67145472      -0.80665105      -0.75478618
H        2.16711250       0.69814348      -0.40517265
H        2.20989246      -1.36439051      -1.08296280
H        2.48862960      -1.82921517       0.63688893
H        0.06743315      -0.77130440       1.29886427
H       -0.26845698       1.58265476       1.53684732
H        0.05880522       1.89907912      -0.17517680
H       -2.35240099       1.86848032      -0.20686697
H       -2.42231106       0.55053980       0.97474986
H       -0.13220071      -0.84952025      -1.70295047
H       -0.98978956      -1.82117088      -0.49902946
17
Frame=4 idx=011651 GeodesicLength=0.15819445206637742 rxn_smarts="[O:1]([C:2]([C@@:3]1([H:11])[C:4]([H:12])([H:13])[C:5]([H:14])([H:15])[O:6][C:7]1([H:16])[H:17])([H:9])[H:10])[H:8]>>[C:2]([H:9])[H:10].[O:1]([C@@:3]1([H:11])[C:4]([H:12])([H:13])[C:5]([H:14])([H:15])[O:6][C:7]1([H:16])[H:17])[H:8]"
O        1.89332642       0.18346910       0.34723403
C        1.82274467      -1.30896211      -0.07497610
C        0.17321179      -0.22844833       0.36647241
C       -0.39376938       1.18649997       0.53567723
C       -1.84298189       0.97039168       0.12810021
O       -1.77762048       0.06019673      -0.95705927
C       -0.67747734      -0.81587139      -0.74448545
H        2.17924731       0.70524069      -0.40986611
H        2.21820812      -1.34508401      -1.09542032
H        2.47697455      -1.82563766       0.63129739
H        0.08148447      -0.77419686       1.29850617
H       -0.28352306       1.56108346       1.55243363
H        0.06453494       1.90547899      -0.14739817
H       -2.33941154       1.87560708      -0.22273082
H       -2.43476524       0.55861916       0.95672017
H       -0.14327486      -0.88930974      -1.69377165
H       -1.01690849      -1.81907675      -0.47073334
17
Frame=5 idx=011651 GeodesicLength=0.19726920918348292 rxn_smarts="[O:1]([C:2]([C@@:3]1([H:11])[C:4]([H:12])([H:13])[C:5]([H:14])([H:15])[O:6][C:7]1([H:16])[H:17])([H:9])[H:10])[H:8]>>[C:2]([H:9])[H:10].[O:1]([C@@:3]1([H:11])[C:4]([H:12])([H:13])[C:5]([H:14])([H:15])[O:6][C:7]1([H:16])[H:17])[H:8]"
O        1.90048618       0.19143398       0.34148166
C        1.82710577      -1.29518557      -0.08881665
C        0.17944372      -0.23165344       0.36436309
C       -0.39473603       1.17840611       0.54446234
C       -1.84044075       0.97381263       0.11779246
O       -1.76627434       0.06550512      -0.96810151
C       -0.68349224      -0.82525829      -0.73371897
H        2.19137498       0.71262986      -0.41412746
H        2.22574012      -1.32523232      -1.10842183
H        2.46560955      -1.82199770       0.62445334
H        0.09570438      -0.77722790       1.29827498
H       -0.29916523       1.53894734       1.56784214
H        0.07012780       1.91146074      -0.11876556
H       -2.32559458       1.88271774      -0.23949578
H       -2.44723266       0.56741480       0.93794210
H       -0.15469468      -0.92956744      -1.68324234
H       -1.04396197      -1.81620565      -0.44192201
17
Frame=6 idx=011651 GeodesicLength=0.23610963579599206 rxn_smarts="[O:1]([C:2]([C@@:3]1([H:11])[C:4]([H:12])([H:13])[C:5]([H:14])([H:15])[O:6][C:7]1([H:16])[H:17])([H:9])[H:10])[H:8]>>[C:2]([H:9])[H:10].[O:1]([C@@:3]1([H:11])[C:4]([H:12])([H:13])[C:5]([H:14])([H:15])[O:6][C:7]1([H:16])[H:17])[H:8]"
O        1.90753889       0.19939261       0.33593536
C        1.83132436      -1.28120895      -0.10292566
C        0.18563385      -0.23497811       0.36246011
C       -0.39582929       1.17011657       0.55332333
C       -1.83758594       0.97728634       0.10705399
O       -1.75442873       0.07011989      -0.97906055
C       -0.68951674      -0.83481551      -0.72253387
H        2.20353134       0.72024771      -0.41791393
H        2.23248045      -1.30479213      -1.12195322
H        2.45453640      -1.81826737       0.61640723
H        0.11005051      -0.78044303       1.29817870
H       -0.31534983       1.51633921       1.58300431
H        0.07551302       1.91698535      -0.08935888
H       -2.31094198       1.88982591      -0.25710403
H       -2.45961462       0.57692553       0.91851540
H       -0.16645722      -0.97017315      -1.67129953
H       -1.07088446      -1.81256086      -0.41272878
17
Frame=7 idx=011651 GeodesicLength=0.27461355015539146 rxn_smarts="[O:1]([C:2]([C@@:3]1([H:11])[C:4]([H:12])([H:13])[C:5]([H:14])([H:15])[O:6][C:7]1([H:16])[H:17])([H:9])[H:10])[H:8]>>[C:2]([H:9])[H:10].[O:1]([C@@:3]1([H:11])[C:4]([H:12])([H:13])[C:5]([H:14])([H:15])[O:6][C:7]1([H:16])[H:17])[H:8]"
O        1.91448784       0.20737830       0.33052145
C        1.83530517      -1.26710394      -0.11713971
C        0.19183041      -0.23831545       0.36075291
C       -0.39704545       1.16164591       0.56220909
C       -1.83443976       0.98072303       0.09599673
O       -1.74203872       0.07425232      -0.98944327
C       -0.69545947      -0.84436086      -0.71095448
H        2.21573402       0.72803917      -0.42140678
H        2.23831766      -1.28405970      -1.13564746
H        2.44336517      -1.81442139       0.60727049
H        0.12453925      -0.78366418       1.29816228
H       -0.33193069       1.49333676       1.59785537
H        0.08080576       1.92204246      -0.05948754
H       -2.29570263       1.89659344      -0.27532491
H       -2.47187939       0.58688409       0.89837633
H       -0.17835423      -1.01063607      -1.65840650
H       -1.09753493      -1.80833386      -0.38333400
17
Frame=8 idx=011651 GeodesicLength=0.3128154534420699 rxn_smarts="[O:1]([C:2]([C@@:3]1([H:11])[C:4]([H:12])([H:13])[C:5]([H:14])([H:15])[O:6][C:7]1([H:16])[H:17])([H:9])[H:10])[H:8]>>[C:2]([H:9])[H:10].[O:1]([C@@:3]1([H:11])[C:4]([H:12])([H:13])[C:5]([H:14])([H:15])[O:6][C:7]1([H:16])[H:17])[H:8]"
O        1.92129150       0.21532092       0.32535037
C        1.83907275      -1.25279263      -0.13161486
C        0.19794617      -0.24177488       0.35927216
C       -0.39838335       1.15299387       0.57114074
C       -1.83094816       0.98419202       0.08454582
O       -1.72927848       0.07762545      -0.99969374
C       -0.70141356      -0.85405472      -0.69896646
H        2.22795668       0.73600384      -0.42436249
H        2.24331598      -1.26270409      -1.14988490
H        2.43251227      -1.81051888       0.59697970
H        0.13909151      -0.78706082       1.29829545
H       -0.34901063       1.46994222       1.61236928
H        0.08583388       1.92658941      -0.02896797
H       -2.27958524       1.90330246      -0.29433129
H       -2.48394928       0.59755976       0.87764261
H       -0.19052788      -1.05123767      -1.64410197
H       -1.12392413      -1.80338627      -0.35367246
17
Frame=9 idx=011651 GeodesicLength=0.3507833327582435 rxn_smarts="[O:1]([C:2]([C@@:3]1([H:11])[C:4]([H:12])([H:13])[C:5]([H:14])([H:15])[O:6][C:7]1([H:16])[H:17])([H:9])[H:10])[H:8]>>[C:2]([H:9])[H:10].[O:1]([C@@:3]1([H:11])[C:4]([H:12])([H:13])[C:5]([H:14])([H:15])[O:6][C:7]1([H:16])[H:17])[H:8]"
O        1.92796537       0.22325219       0.32039801
C        1.84260023      -1.23827611      -0.14638478
C        0.20401790      -0.24534820       0.35805108
C       -0.39987295       1.14413482       0.58013587
C       -1.82707931       0.98767502       0.07266741
O       -1.71602687       0.08018615      -1.00969896
C       -0.70734829      -0.86388290      -0.68648958
H        2.24018841       0.74421284      -0.42682030
H        2.24736696      -1.24073432      -1.16466851
H        2.42192167      -1.80658526       0.58544375
H        0.15378854      -0.79060259       1.29859693
H       -0.36670420       1.44608813       1.62655138
H        0.09062444       1.93058125       0.00226163
H       -2.26250693       1.90988667      -0.31419158
H       -2.49586127       0.60896714       0.85618480
H       -0.20298267      -1.09190332      -1.62832850
H       -1.15009103      -1.79765150      -0.32370865
17
Frame=10 idx=011651 GeodesicLength=0.38859152875175373 rxn_smarts="[O:1]([C:2]([C@@:3]1([H:11])[C:4]([H:12])([H:13])[C:5]([H:14])([H:15])[O:6][C:7]1([H:16])[H:17])([H:9])[H:10])[H:8]>>[C:2]([H:9])[H:10].[O:1]([C@@:3]1([H:11])[C:4]([H:12])([H:13])[C:5]([H:14])([H:15])[O:6][C:7]1([H:16])[H:17])[H:8]"
O        1.93448128       0.23118015       0.31568454
C        1.84581510      -1.22349187      -0.16151650
C        0.21003683      -0.24903886       0.35714020
C       -0.40151993       1.13503838       0.58922570
C       -1.82276427       0.99118634       0.06031640
O       -1.70233315       0.08188894      -1.01943118
C       -0.71326864      -0.87389622      -0.67343919
H        2.25239549       0.75269846      -0.42873711
H        2.25033449      -1.21800224      -1.18008685
H        2.41158554      -1.80264019       0.57253592
H        0.16866227      -0.79426866       1.29911046
H       -0.38508408       1.42169719       1.64038873
H        0.09513221       1.93396522       0.03429482
H       -2.24427025       1.91634244      -0.33500586
H       -2.50756124       0.62121298       0.83389487
H       -0.21558561      -1.13268295      -1.61100973
H       -1.17605603      -1.79118910      -0.29336521
17
Frame=11 idx=011651 GeodesicLength=0.4262299580643011 rxn_smarts="[O:1]([C:2]([C@@:3]1([H:11])[C:4]([H:12])([H:13])[C:5]([H:14])([H:15])[O:6][C:7]1([H:16])[H:17])([H:9])[H:10])[H:8]>>[C:2]([H:9])[H:10].[O:1]([C@@:3]1([H:11])[C:4]([H:12])([H:13])[C:5]([H:14])([H:15])[O:6][C:7]1([H:16])[H:17])[H:8]"
O        1.94086434       0.23907396       0.31116766
C        1.84872068      -1.20849207      -0.17690290
C        0.21599869      -0.25283184       0.35650103
C       -0.40331744       1.12576205       0.59835978
C       -1.81804401       0.99467420       0.04759095
O       -1.68821876       0.08280642      -1.02878017
C       -0.71918690      -0.88400484      -0.65992499
H        2.26463650       0.76134638      -0.43019933
H        2.25233075      -1.19465012      -1.19593655
H        2.40138451      -1.79862772       0.55846246
H        0.18365486      -0.79805867       1.29980451
H       -0.40402730       1.39692163       1.65383220
H        0.09936450       1.93676922       0.06690720
H       -2.22506585       1.92256277      -0.35656564
H       -2.51897769       0.63412052       0.81089130
H       -0.22841350      -1.17331131      -1.59235427
H       -1.20170338      -1.78406059      -0.26285324
17
Frame=12 idx=011651 GeodesicLength=0.4637416718445907 rxn_smarts="[O:1]([C:2]([C@@:3]1([H:11])[C:4]([H:12])([H:13])[C:5]([H:14])([H:15])[O:6][C:7]1([H:16])[H:17])([H:9])[H:10])[H:8]>>[C:2]([H:9])[H:10].[O:1]([C@@:3]1([H:11])[C:4]([H:12])([H:13])[C:5]([H:14])([H:15])[O:6][C:7]1([H:16])[H:17])[H:8]"
O        1.94708465       0.24694174       0.30687621
C        1.85125614      -1.19322683      -0.19261386
C        0.22189201      -0.25674044       0.35618207
C       -0.40527088       1.11627378       0.60756014
C       -1.81284958       0.99815457       0.03444481
O       -1.67373700       0.08284902      -1.03777862
C       -0.72509329      -0.89425316      -0.64586799
H        2.27686396       0.77020073      -0.43113778
H        2.25321369      -1.17053937      -1.21234283
H        2.39137350      -1.79457834       0.54310823
H        0.19878907      -0.80196566       1.30071668
H       -0.42361602       1.37168650       1.66685129
H        0.10327497       1.93892337       0.10019174
H       -2.20468700       1.92855989      -0.37896383
H       -2.53006773       0.64779884       0.78709100
H       -0.24135997      -1.21382337      -1.57222716
H       -1.22706652      -1.77626127      -0.23209010
17
Frame=13 idx=011651 GeodesicLength=0.5012329216248438 rxn_smarts="[O:1]([C:2]([C@@:3]1([H:11])[C:4]([H:12])([H:13])[C:5]([H:14])([H:15])[O:6][C:7]1([H:16])[H:17])([H:9])[H:10])[H:8]>>[C:2]([H:9])[H:10].[O:1]([C@@:3]1([H:11])[C:4]([H:12])([H:13])[C:5]([H:14])([H:15])[O:6][C:7]1([H:16])[H:17])[H:8]"
O        1.95313924       0.25478019       0.30280736
C        1.85338790      -1.17765545      -0.20870427
C        0.22771949      -0.26078343       0.35621428
C       -0.40739898       1.10656049       0.61686671
C       -1.80712589       1.00162255       0.02084205
O       -1.65886200       0.08197088      -1.04642286
C       -0.73100603      -0.90466728      -0.63120595
H        2.28906937       0.77927789      -0.43154401
H        2.25290820      -1.14555834      -1.22934267
H        2.38153576      -1.79047821       0.52637467
H        0.21410435      -0.80600694       1.30187671
H       -0.44393436       1.34595762       1.67947044
H        0.10684960       1.94042018       0.13421593
H       -2.18298363       1.93431371      -0.40226600
H       -2.54080203       0.66229383       0.76239496
H       -0.25442548      -1.25427053      -1.55055275
H       -1.25217550      -1.76777715      -0.20102462
17
Frame=14 idx=011651 GeodesicLength=0.5388085782459874 rxn_smarts="[O:1]([C:2]([C@@:3]1([H:11])[C:4]([H:12])([H:13])[C:5]([H:14])([H:15])[O:6][C:7]1([H:16])[H:17])([H:9])[H:10])[H:8]>>[C:2]([H:9])[H:10].[O:1]([C@@:3]1([H:11])[C:4]([H:12])([H:13])[C:5]([H:14])([H:15])[O:6][C:7]1([H:16])[H:17])[H:8]"
O        1.95902103       0.26259111       0.29896478
C        1.85507525      -1.16172724      -0.22524478
C        0.23348120      -0.26497557       0.35663752
C       -0.40971827       1.09660249       0.62632383
C       -1.80080480       1.00507429       0.00672698
O       -1.64356594       0.08012616      -1.05470142
C       -0.73694289      -0.91527162      -0.61586236
H        2.30123323       0.78860602      -0.43139313
H        2.25132288      -1.11956522      -1.24700388
H        2.37185854      -1.78632863       0.50813978
H        0.22964185      -0.81019568       1.30331660
H       -0.46507593       1.31967469       1.69170653
H        0.11007469       1.94123938       0.16907439
H       -2.15977290       1.93978651      -0.42656558
H       -2.55114469       0.67766572       0.73667017
H       -0.26761898      -1.29470873      -1.52721846
H       -1.27706427      -1.75859368      -0.16957098
17
Frame=15 idx=011651 GeodesicLength=0.5765974550890042 rxn_smarts="[O:1]([C:2]([C@@:3]1([H:11])[C:4]([H:12])([H:13])[C:5]([H:14])([H:15])[O:6][C:7]1([H:16])[H:17])([H:9])[H:10])[H:8]>>[C:2]([H:9])[H:10].[O:1]([C@@:3]1([H:11])[C:4]([H:12])([H:13])[C:5]([H:14])([H:15])[O:6][C:7]1([H:16])[H:17])[H:8]"
O        1.96471756       0.27038520       0.29534944
C        1.85626420      -1.14537308      -0.24229465
C        0.23917789      -0.26933324       0.35749158
C       -0.41224264       1.08636539       0.63597126
C       -1.79380768       1.00852179      -0.00794805
O       -1.62782294       0.07727810      -1.06260125
C       -0.74291957      -0.92610836      -0.59976714
H        2.31332320       0.79821397      -0.43066433
H        2.24833667      -1.09240828      -1.26537450
H        2.36233176      -1.78209302       0.48828568
H        0.24544848      -0.81454020       1.30506829
H       -0.48712544       1.29274944       1.70355295
H        0.11292562       1.94132818       0.20487351
H       -2.13485034       1.94496665      -0.45194127
H       -2.56105097       0.69400273       0.70978749
H       -0.28092947      -1.33522876      -1.50214706
H       -1.30177633      -1.74872651      -0.13764196
17
Frame=16 idx=011651 GeodesicLength=0.6145529796946642 rxn_smarts="[O:1]([C:2]([C@@:3]1([H:11])[C:4]([H:12])([H:13])[C:5]([H:14])([H:15])[O:6][C:7]1([H:16])[H:17])([H:9])[H:10])[H:8]>>[C:2]([H:9])[H:10].[O:1]([C@@:3]1([H:11])[C:4]([H:12])([H:13])[C:5]([H:14])([H:15])[O:6][C:7]1([H:16])[H:17])[H:8]"
O        1.97021786       0.27813081       0.29194772
C        1.85689518      -1.12863711      -0.25975986
C        0.24479117      -0.27383846       0.35876256
C       -0.41496137       1.07590359       0.64574171
C       -1.78614623       1.01189573      -0.02307800
O       -1.61175338       0.07340740      -1.07004950
C       -0.74890558      -0.93709115      -0.58300424
H        2.32536701       0.80799480      -0.42939757
H        2.24394004      -1.06420435      -1.28431492
H        2.35285349      -1.77777438       0.46697729
H        0.26144811      -0.81900791       1.30711465
H       -0.50997277       1.26534869       1.71488950
H        0.11534319       1.94067456       0.24138528
H       -2.10831765       1.94973015      -0.47817574
H       -2.57037541       0.71116472       0.68189733
H       -0.29424940      -1.37550077      -1.47545763
H       -1.32617423      -1.73819633      -0.10547858
