13
Frame=0 idx=003189 GeodesicLength=0.0 rxn_smarts="[C:1]([O:2][C:3]1([H:9])[C:4]([H:10])([H:11])[C:5]1([H:12])[H:13])([H:6])([H:7])[H:8]>>[C:1]([O:2][C:3](=[C:4]([H:10])[H:11])[H:9])([H:6])([H:7])[H:8].[C:5]([H:12])[H:13]"
C        1.75802078       0.12754368       0.50901080
O        0.52786570      -0.56031391       0.35403666
C       -0.09703734      -0.36780623      -0.83524023
C       -1.17585682      -1.05713124      -1.17793025
C       -1.15035051       1.38995696       1.00887360
H        1.61039507       1.20565209       0.40257123
H        2.49485467      -0.22841068      -0.21663410
H        2.11116036      -0.08990651       1.51465558
H        0.33804813       0.39644502      -1.47442809
H       -1.66332818      -0.85362577      -2.11976514
H       -1.58351903      -1.82182231      -0.52939010
H       -2.12944240       1.05206180       0.62006544
H       -1.04081049       0.80735706       1.94417463
13
Frame=1 idx=003189 GeodesicLength=0.10994851543309322 rxn_smarts="[C:1]([O:2][C:3]1([H:9])[C:4]([H:10])([H:11])[C:5]1([H:12])[H:13])([H:6])([H:7])[H:8]>>[C:1]([O:2][C:3](=[C:4]([H:10])[H:11])[H:9])([H:6])([H:7])[H:8].[C:5]([H:12])[H:13]"
C        1.76333861       0.12792157       0.51432559
O        0.53069034      -0.55500512       0.35952384
C       -0.10120279      -0.34883755      -0.82590969
C       -1.19375608      -1.03130612      -1.15401825
C       -1.14113154       1.33862757       0.96130149
H        1.62301569       1.20755478       0.41372350
H        2.49430363      -0.22888048      -0.21678326
H        2.11737099      -0.09552603       1.51836690
H        0.33675285       0.40507121      -1.47504876
H       -1.67438715      -0.84616397      -2.10330392
H       -1.57416534      -1.82140331      -0.51959084
H       -2.14620531       1.04813299       0.60571231
H       -1.03462390       0.79981447       1.92170107
13
Frame=2 idx=003189 GeodesicLength=0.2200085006455027 rxn_smarts="[C:1]([O:2][C:3]1([H:9])[C:4]([H:10])([H:11])[C:5]1([H:12])[H:13])([H:6])([H:7])[H:8]>>[C:1]([O:2][C:3](=[C:4]([H:10])[H:11])[H:9])([H:6])([H:7])[H:8].[C:5]([H:12])[H:13]"
C        1.76765071       0.12884001       0.51958433
O        0.53336275      -0.55057047       0.36436913
C       -0.10468066      -0.33201581      -0.81772409
C       -1.21032060      -1.00824978      -1.13123745
C       -1.13155278       1.28811991       0.91827251
H        1.63330609       1.20976719       0.42489384
H        2.49352984      -0.22772613      -0.21666231
H        2.12235698      -0.10027402       1.52213813
H        0.33426492       0.41335484      -1.47583261
H       -1.68611493      -0.83921118      -2.08625460
H       -1.56548523      -1.82081697      -0.51065999
H       -2.15761292       1.04841083       0.58900851
H       -1.02870418       0.79037159       1.90010460
13
Frame=3 idx=003189 GeodesicLength=0.330161762049332 rxn_smarts="[C:1]([O:2][C:3]1([H:9])[C:4]([H:10])([H:11])[C:5]1([H:12])[H:13])([H:6])([H:7])[H:8]>>[C:1]([O:2][C:3](=[C:4]([H:10])[H:11])[H:9])([H:6])([H:7])[H:8].[C:5]([H:12])[H:13]"
C        1.77104715       0.13023003       0.52481690
O        0.53588757      -0.54693497       0.36862254
C       -0.10757337      -0.31711676      -0.81059646
C       -1.22562996      -0.98774768      -1.10958198
C       -1.12176436       1.23844662       0.87916886
H        1.64148200       1.21225241       0.43614777
H        2.49255684      -0.22510671      -0.21628057
H        2.12623355      -0.10428966       1.52597906
H        0.33068016       0.42141058      -1.47671681
H       -1.69852173      -0.83260398      -2.06873358
H       -1.55744257      -1.82021074      -0.50246725
H       -2.16410849       1.05225157       0.57033742
H       -1.02284679       0.77941930       1.87930411
13
Frame=4 idx=003189 GeodesicLength=0.44034308778339476 rxn_smarts="[C:1]([O:2][C:3]1([H:9])[C:4]([H:10])([H:11])[C:5]1([H:12])[H:13])([H:6])([H:7])[H:8]>>[C:1]([O:2][C:3](=[C:4]([H:10])[H:11])[H:9])([H:6])([H:7])[H:8].[C:5]([H:12])[H:13]"
C        1.77359589       0.13203752       0.53004157
O        0.53825249      -0.54402602       0.37233546
C       -0.10998149      -0.30394342      -0.80443894
C       -1.23978835      -0.96959600      -1.08900241
C       -1.11190647       1.18960384       0.84350295
H        1.64772529       1.21498684       0.44751281
H        2.49139083      -0.22116435      -0.21564411
H        2.12909104      -0.10767990       1.52989044
H        0.32606506       0.42933234      -1.47766491
H       -1.71156417      -0.82626377      -2.05090077
H       -1.54999463      -1.81973036      -0.49493718
H       -2.16595444       1.05916274       0.55006119
H       -1.01693105       0.76728055       1.85924391
13
Frame=5 idx=003189 GeodesicLength=0.550517090471741 rxn_smarts="[C:1]([O:2][C:3]1([H:9])[C:4]([H:10])([H:11])[C:5]1([H:12])[H:13])([H:6])([H:7])[H:8]>>[C:1]([O:2][C:3](=[C:4]([H:10])[H:11])[H:9])([H:6])([H:7])[H:8].[C:5]([H:12])[H:13]"
C        1.77532874       0.13420090       0.53528162
O        0.54043978      -0.54179244       0.37554763
C       -0.11202274      -0.29230187      -0.79916251
C       -1.25289960      -0.95357632      -1.06949255
C       -1.10207599       1.14157171       0.81083280
H        1.65215623       1.21791654       0.45906422
H        2.48999116      -0.21601810      -0.21477999
H        2.13099338      -0.11055910       1.53387435
H        0.32044335       0.43719336      -1.47857557
H       -1.72518973      -0.82015614      -2.03282942
H       -1.54300087      -1.81955872      -0.48808671
H       -2.16346143       1.06873177       0.52847223
H       -1.01070228       0.75434842       1.83985391
13
Frame=6 idx=003189 GeodesicLength=0.6606760060205307 rxn_smarts="[C:1]([O:2][C:3]1([H:9])[C:4]([H:10])([H:11])[C:5]1([H:12])[H:13])([H:6])([H:7])[H:8]>>[C:1]([O:2][C:3](=[C:4]([H:10])[H:11])[H:9])([H:6])([H:7])[H:8].[C:5]([H:12])[H:13]"
C        1.77629430       0.13668831       0.54054363
O        0.54242928      -0.54016071       0.37831153
C       -0.11379242      -0.28203149      -0.79468167
C       -1.26513392      -0.93949464      -1.05093723
C       -1.09235229       1.09433149       0.78080432
H        1.65491993       1.22103158       0.47079292
H        2.48835004      -0.20978338      -0.21369635
H        2.13201564      -0.11298608       1.53792661
H        0.31386783       0.44505159      -1.47943374
H       -1.73931983      -0.81427038      -2.01468315
H       -1.53639567      -1.81982867      -0.48189961
H       -2.15671782       1.08062891       0.50585612
H       -1.00416507       0.74082346       1.82109661
13
Frame=7 idx=003189 GeodesicLength=0.7708707500453333 rxn_smarts="[C:1]([O:2][C:3]1([H:9])[C:4]([H:10])([H:11])[C:5]1([H:12])[H:13])([H:6])([H:7])[H:8]>>[C:1]([O:2][C:3](=[C:4]([H:10])[H:11])[H:9])([H:6])([H:7])[H:8].[C:5]([H:12])[H:13]"
C        1.77652977       0.13947260       0.54583307
O        0.54420588      -0.53906003       0.38067141
C       -0.11536578      -0.27298053      -0.79091837
C       -1.27663002      -0.92714919      -1.03323742
C       -1.08284126       1.04785131       0.75305322
H        1.65614178       1.22432059       0.48267644
H        2.48645088      -0.20256957      -0.21238785
H        2.13220720      -0.11500472       1.54204321
H        0.30642229       0.45292171      -1.48025425
H       -1.75389227      -0.80858455      -1.99654231
H       -1.53012263      -1.82059810      -0.47637412
H       -2.14574400       1.09447896       0.48254425
H       -0.99736182       0.72690151       1.80289274
13
Frame=8 idx=003189 GeodesicLength=0.8811211203940229 rxn_smarts="[C:1]([O:2][C:3]1([H:9])[C:4]([H:10])([H:11])[C:5]1([H:12])[H:13])([H:6])([H:7])[H:8]>>[C:1]([O:2][C:3](=[C:4]([H:10])[H:11])[H:9])([H:6])([H:7])[H:8].[C:5]([H:12])[H:13]"
C        1.77605141       0.14253000       0.55116312
O        0.54575446      -0.53844071       0.38266026
C       -0.11682226      -0.26501942      -0.78781277
C       -1.28750408      -0.91638144      -1.01635678
C       -1.07357086       1.00210363       0.72728951
H        1.65589046       1.22775795       0.49474562
H        2.48426278      -0.19444485      -0.21087072
H        2.13161061      -0.11665466       1.54623141
H        0.29812413       0.46081434      -1.48097440
H       -1.76885950      -0.80309935      -1.97845636
H       -1.52411855      -1.82193014      -0.47152615
H       -2.13063332       1.10998725       0.45871565
H       -0.99018527       0.71277739       1.78519160
13
Frame=9 idx=003189 GeodesicLength=0.9907419459082574 rxn_smarts="[C:1]([O:2][C:3]1([H:9])[C:4]([H:10])([H:11])[C:5]1([H:12])[H:13])([H:6])([H:7])[H:8]>>[C:1]([O:2][C:3](=[C:4]([H:10])[H:11])[H:9])([H:6])([H:7])[H:8].[C:5]([H:12])[H:13]"
C        1.77492362       0.14582979       0.55650525
O        0.54703797      -0.53813123       0.38430709
C       -0.11804384      -0.25808311      -0.78541632
C       -1.29770267      -0.90707763      -1.00032039
C       -1.06433834       0.95756906       0.70331098
H        1.65444833       1.23133364       0.50675701
H        2.48182088      -0.18568882      -0.20905110
H        2.13018875      -0.11788380       1.55050715
H        0.28913742       0.46876171      -1.48170737
H       -1.78418046      -0.79766115      -1.96037613
H       -1.51858408      -1.82344579      -0.46712619
H       -2.11179799       1.12608307       0.43465294
H       -0.98290958       0.69839425       1.76795707
13
Frame=10 idx=003189 GeodesicLength=1.1004059188015496 rxn_smarts="[C:1]([O:2][C:3]1([H:9])[C:4]([H:10])([H:11])[C:5]1([H:12])[H:13])([H:6])([H:7])[H:8]>>[C:1]([O:2][C:3](=[C:4]([H:10])[H:11])[H:9])([H:6])([H:7])[H:8].[C:5]([H:12])[H:13]"
C        1.77315090       0.14934308       0.56190316
O        0.54807399      -0.53820311       0.38565683
C       -0.11927589      -0.25199018      -0.78354832
C       -1.30748474      -0.89903333      -0.98499436
C       -1.05534894       0.91381539       0.68078611
H        1.65173805       1.23501260       0.51895568
H        2.47907742      -0.17620796      -0.20703509
H        2.12806881      -0.11882250       1.55486239
H        0.27941679       0.47675417      -1.48230179
H       -1.79977788      -0.79241556      -1.94247600
H       -1.51325780      -1.82554820      -0.46339877
H       -2.08925226       1.14308895       0.41051284
H       -0.97512845       0.68420665       1.75107731
13
Frame=11 idx=003189 GeodesicLength=1.210129982990996 rxn_smarts="[C:1]([O:2][C:3]1([H:9])[C:4]([H:10])([H:11])[C:5]1([H:12])[H:13])([H:6])([H:7])[H:8]>>[C:1]([O:2][C:3](=[C:4]([H:10])[H:11])[H:9])([H:6])([H:7])[H:8].[C:5]([H:12])[H:13]"
C        1.77074522       0.15305393       0.56735555
O        0.54884483      -0.53860743       0.38674227
C       -0.12055195      -0.24664579      -0.78214967
C       -1.31690293      -0.89213313      -0.97032130
C       -1.04669766       0.87082731       0.65951189
H        1.64783270       1.23878726       0.53129072
H        2.47600925      -0.16608803      -0.20480384
H        2.12525512      -0.11947908       1.55929574
H        0.26901709       0.48477337      -1.48278548
H       -1.81561242      -0.78733826      -1.92477810
H       -1.50810092      -1.82823250      -0.46037551
H       -2.06297026       1.16070119       0.38656649
H       -0.96686808       0.67038114       1.73445126
13
Frame=12 idx=003189 GeodesicLength=1.3199288350191707 rxn_smarts="[C:1]([O:2][C:3]1([H:9])[C:4]([H:10])([H:11])[C:5]1([H:12])[H:13])([H:6])([H:7])[H:8]>>[C:1]([O:2][C:3](=[C:4]([H:10])[H:11])[H:9])([H:6])([H:7])[H:8].[C:5]([H:12])[H:13]"
C        1.76774307       0.15694835       0.57286317
O        0.54935766      -0.53929866       0.38758736
C       -0.12188179      -0.24196917      -0.78118315
C       -1.32602134      -0.88624437      -0.95624742
C       -1.03836216       0.82866676       0.63927142
H        1.64282173       1.24264777       0.54372960
H        2.47263257      -0.15540286      -0.20234701
H        2.12177731      -0.11985673       1.56381406
H        0.25803590       0.49278977      -1.48319477
H       -1.83164472      -0.78238228      -1.90729367
H       -1.50316859      -1.83138456      -0.45799619
H       -2.03312617       1.17847766       0.36302367
H       -0.95816348       0.65700831       1.71797294
13
Frame=13 idx=003189 GeodesicLength=1.429869740017311 rxn_smarts="[C:1]([O:2][C:3]1([H:9])[C:4]([H:10])([H:11])[C:5]1([H:12])[H:13])([H:6])([H:7])[H:8]>>[C:1]([O:2][C:3](=[C:4]([H:10])[H:11])[H:9])([H:6])([H:7])[H:8].[C:5]([H:12])[H:13]"
C        1.76416175       0.16099839       0.57843230
O        0.54960015      -0.54022498       0.38822725
C       -0.12330380      -0.23785573      -0.78058964
C       -1.33487487      -0.88126466      -0.94277020
C       -1.03033739       0.78735962       0.61992105
H        1.63678889       1.24656076       0.55625620
H        2.46891579      -0.14425094      -0.19966457
H        2.11765620      -0.11997385       1.56843076
H        0.24648332       0.50081073      -1.48346239
H       -1.84785639      -0.77751025      -1.89000853
H       -1.49840537      -1.83499514      -0.45627515
H       -1.99989457       1.19605233       0.34005298
H       -0.94893371       0.64429372       1.70144994
13
Frame=14 idx=003189 GeodesicLength=1.5400126537469052 rxn_smarts="[C:1]([O:2][C:3]1([H:9])[C:4]([H:10])([H:11])[C:5]1([H:12])[H:13])([H:6])([H:7])[H:8]>>[C:1]([O:2][C:3](=[C:4]([H:10])[H:11])[H:9])([H:6])([H:7])[H:8].[C:5]([H:12])[H:13]"
C        1.76006566       0.16521899       0.58405091
O        0.54961249      -0.54133880       0.38866401
C       -0.12476215      -0.23426750      -0.78037893
C       -1.34353696      -0.87701719      -0.92978454
C       -1.02255717       0.74702082       0.60120942
H        1.62983361       1.25055342       0.56879848
H        2.46493188      -0.13267243      -0.19673593
H        2.11292903      -0.11978998       1.57314765
H        0.23455384       0.50874241      -1.48374138
H       -1.86420497      -0.77267220      -1.87291656
H       -1.49398610      -1.83881556      -0.45501864
H       -1.96345701       1.21302092       0.31785575
H       -0.93942215       0.63201709       1.68484974
13
Frame=15 idx=003189 GeodesicLength=1.6503991958465734 rxn_smarts="[C:1]([O:2][C:3]1([H:9])[C:4]([H:10])([H:11])[C:5]1([H:12])[H:13])([H:6])([H:7])[H:8]>>[C:1]([O:2][C:3](=[C:4]([H:10])[H:11])[H:9])([H:6])([H:7])[H:8].[C:5]([H:12])[H:13]"
C        1.75550947       0.16959772       0.58971475
O        0.54942146      -0.54258643       0.38891282
C       -0.12622685      -0.23113868      -0.78053748
C       -1.35202855      -0.87335584      -0.91725503
C       -1.01491816       0.70779047       0.58296250
H        1.62207314       1.25461473       0.58130977
H        2.46071221      -0.12075074      -0.19355386
H        2.10763351      -0.11929606       1.57797573
H        0.22235677       0.51652714      -1.48406701
H       -1.88068001      -0.76779846      -1.85596717
H       -1.48996333      -1.84269597      -0.45410372
H       -1.92416098       1.22898449       0.29657514
H       -0.92972869       0.62010764       1.66803358
13
Frame=16 idx=003189 GeodesicLength=1.7610335113565259 rxn_smarts="[C:1]([O:2][C:3]1([H:9])[C:4]([H:10])([H:11])[C:5]1([H:12])[H:13])([H:6])([H:7])[H:8]>>[C:1]([O:2][C:3](=[C:4]([H:10])[H:11])[H:9])([H:6])([H:7])[H:8].[C:5]([H:12])[H:13]"
C        1.75055761       0.17412379       0.59541288
O        0.54906160      -0.54391036       0.38898536
C       -0.12764866      -0.22841526      -0.78106272
C       -1.36035688      -0.87012325      -0.90512701
C       -1.00731229       0.66984763       0.56500670
H        1.61364151       1.25873819       0.59372706
H        2.45630161      -0.10857363      -0.19011200
H        2.10181054      -0.11848032       1.58292008
H        0.21002451       0.52408582      -1.48451516
H       -1.89725376      -0.76281980      -1.83911319
H       -1.48639947      -1.84646832      -0.45338207
H       -1.88242567       1.24358697       0.27634757
H       -0.92000064       0.60840854       1.65091251
