11
Frame=0 idx=005471 GeodesicLength=0.0 rxn_smarts="[C:1]([N:2]([C:3](=[O:4])[C:5]#[C:6][H:11])[H:10])([H:7])([H:8])[H:9]>>[C:1]([O:4]/[C:3](=[N:2]/[H:10])[C:5]#[C:6][H:11])([H:7])([H:8])[H:9]"
C       -2.04819818       0.12752191       0.13924816
N       -0.27667158      -0.87175815      -0.43123715
C        0.38422040       0.10546873       0.08810321
O       -0.29045499       1.01657247       0.63490056
C        1.82808079       0.19073978       0.05580299
C        3.02215246       0.25726580       0.02488014
H       -2.43618595      -0.87445208       0.04746548
H       -2.17561663       0.74198543      -0.73907504
H       -2.30667229       0.60631077       1.07261275
H        0.21484058      -1.62549963      -0.89505375
H        4.08450544       0.32584502       0.00235269
11
Frame=1 idx=005471 GeodesicLength=0.030571118065235207 rxn_smarts="[C:1]([N:2]([C:3](=[O:4])[C:5]#[C:6][H:11])[H:10])([H:7])([H:8])[H:9]>>[C:1]([O:4]/[C:3](=[N:2]/[H:10])[C:5]#[C:6][H:11])([H:7])([H:8])[H:9]"
C       -2.03774642       0.12188282       0.14241320
N       -0.28078927      -0.84848081      -0.46531022
C        0.38366339       0.12418368       0.06119388
O       -0.29033339       1.02159179       0.63287880
C        1.82940242       0.17507520       0.08011173
C        3.02248954       0.25023161       0.03280716
H       -2.42669564      -0.88255874       0.07621669
H       -2.19629176       0.72461565      -0.73987778
H       -2.30393973       0.61205496       1.06814172
H        0.21550758      -1.61846357      -0.89529945
H        4.08473330       0.31986741       0.00672426
11
Frame=2 idx=005471 GeodesicLength=0.06136268039203066 rxn_smarts="[C:1]([N:2]([C:3](=[O:4])[C:5]#[C:6][H:11])[H:10])([H:7])([H:8])[H:9]>>[C:1]([O:4]/[C:3](=[N:2]/[H:10])[C:5]#[C:6][H:11])([H:7])([H:8])[H:9]"
C       -2.02666598       0.11599603       0.14566214
N       -0.28443532      -0.82549737      -0.49707541
C        0.38351176       0.14350109       0.03500407
O       -0.29001609       1.02668391       0.63088430
C        1.82903182       0.16435954       0.09523839
C        3.02223913       0.23846033       0.04792978
H       -2.41485595      -0.89094644       0.10611948
H       -2.21633100       0.70517923      -0.74055071
H       -2.30108276       0.61778623       1.06319550
H        0.21480579      -1.60904339      -0.89722678
H        4.08379860       0.31352084       0.01081924
11
Frame=3 idx=005471 GeodesicLength=0.09219169270326052 rxn_smarts="[C:1]([N:2]([C:3](=[O:4])[C:5]#[C:6][H:11])[H:10])([H:7])([H:8])[H:9]>>[C:1]([O:4]/[C:3](=[N:2]/[H:10])[C:5]#[C:6][H:11])([H:7])([H:8])[H:9]"
C       -2.01534069       0.11084577       0.14784606
N       -0.28801984      -0.80446256      -0.52462312
C        0.38365537       0.16009875       0.01411074
O       -0.28927043       1.02936053       0.63272588
C        1.82797804       0.15574379       0.10483187
C        3.02153628       0.22672627       0.06028325
H       -2.40292091      -0.89783382       0.13393069
H       -2.23299151       0.68595671      -0.74210326
H       -2.29967991       0.62404576       1.05648321
H        0.21274613      -1.59917187      -0.89911255
H        4.08230747       0.30869066       0.01562722
11
Frame=4 idx=005471 GeodesicLength=0.12307367580247522 rxn_smarts="[C:1]([N:2]([C:3](=[O:4])[C:5]#[C:6][H:11])[H:10])([H:7])([H:8])[H:9]>>[C:1]([O:4]/[C:3](=[N:2]/[H:10])[C:5]#[C:6][H:11])([H:7])([H:8])[H:9]"
C       -2.00399873       0.10581080       0.14978912
N       -0.29146240      -0.78444036      -0.54923317
C        0.38382186       0.17600931      -0.00431714
O       -0.28859690       1.03158154       0.63558934
C        1.82643787       0.14915322       0.11115826
C        3.02043420       0.21598803       0.07051710
H       -2.39006654      -0.90431136       0.16202077
H       -2.24857305       0.66532574      -0.74403931
H       -2.29903765       0.63071926       1.04877715
H        0.21025717      -1.58763061      -0.90283282
H        4.08078417       0.30179443       0.02257071
11
Frame=5 idx=005471 GeodesicLength=0.15405037390902873 rxn_smarts="[C:1]([N:2]([C:3](=[O:4])[C:5]#[C:6][H:11])[H:10])([H:7])([H:8])[H:9]>>[C:1]([O:4]/[C:3](=[N:2]/[H:10])[C:5]#[C:6][H:11])([H:7])([H:8])[H:9]"
C       -1.99262950       0.10067497       0.15211990
N       -0.29506803      -0.76487910      -0.57228979
C        0.38384954       0.19207936      -0.02234369
O       -0.28790597       1.03417988       0.63783000
C        1.82448086       0.14452701       0.11368630
C        3.01895580       0.20618577       0.07762507
H       -2.37580310      -0.91070762       0.19165893
H       -2.26440434       0.64274646      -0.74554124
H       -2.29834149       0.63762082       1.04089694
H        0.20731616      -1.57455438      -0.90877711
H        4.07955007       0.29212683       0.03513470
11
Frame=6 idx=005471 GeodesicLength=0.1851948666307463 rxn_smarts="[C:1]([N:2]([C:3](=[O:4])[C:5]#[C:6][H:11])[H:10])([H:7])([H:8])[H:9]>>[C:1]([O:4]/[C:3](=[N:2]/[H:10])[C:5]#[C:6][H:11])([H:7])([H:8])[H:9]"
C       -1.98114782       0.09517389       0.15515534
N       -0.29885749      -0.74506848      -0.59485894
C        0.38363450       0.20923202      -0.04127538
O       -0.28739177       1.03833894       0.63785445
C        1.82199315       0.14191162       0.11319993
C        3.01702197       0.19664462       0.08352636
H       -2.35923568      -0.91743889       0.22384114
H       -2.28150061       0.61741672      -0.74610517
H       -2.29713888       0.64451078       1.03324420
H        0.20425490      -1.55945979      -0.91758176
H        4.07836774       0.27873857       0.05299983
11
Frame=7 idx=005471 GeodesicLength=0.2165820434030432 rxn_smarts="[C:1]([N:2]([C:3](=[O:4])[C:5]#[C:6][H:11])[H:10])([H:7])([H:8])[H:9]>>[C:1]([O:4]/[C:3](=[N:2]/[H:10])[C:5]#[C:6][H:11])([H:7])([H:8])[H:9]"
C       -1.96944106       0.08921734       0.15898100
N       -0.30285942      -0.72474012      -0.61730064
C        0.38311049       0.22776618      -0.06145695
O       -0.28716996       1.04457029       0.63509626
C        1.81891900       0.14139086       0.11010449
C        3.01450754       0.18741513       0.08882677
H       -2.33983413      -0.92451610       0.25883272
H       -2.30008448       0.58888414      -0.74543399
H       -2.29530513       0.65124762       1.02590112
H        0.20129501      -1.54214429      -0.92951718
H        4.07686215       0.26090897       0.07596641
11
Frame=8 idx=005471 GeodesicLength=0.24794388958205055 rxn_smarts="[C:1]([N:2]([C:3](=[O:4])[C:5]#[C:6][H:11])[H:10])([H:7])([H:8])[H:9]>>[C:1]([O:4]/[C:3](=[N:2]/[H:10])[C:5]#[C:6][H:11])([H:7])([H:8])[H:9]"
C       -1.95803066       0.08453193       0.16088611
N       -0.30664103      -0.70589178      -0.63661713
C        0.38282509       0.24364245      -0.07656105
O       -0.28672123       1.04755030       0.63745374
C        1.81605074       0.13919708       0.10933156
C        3.01200881       0.17807024       0.09358847
H       -2.32191299      -0.92920113       0.28956538
H       -2.31500941       0.56229218      -0.74632120
H       -2.29546742       0.65824715       1.01620632
H        0.19819836      -1.52614378      -0.93899226
H        4.07469975       0.24770536       0.09146006
11
Frame=9 idx=005471 GeodesicLength=0.2793058979102848 rxn_smarts="[C:1]([N:2]([C:3](=[O:4])[C:5]#[C:6][H:11])[H:10])([H:7])([H:8])[H:9]>>[C:1]([O:4]/[C:3](=[N:2]/[H:10])[C:5]#[C:6][H:11])([H:7])([H:8])[H:9]"
C       -1.94700283       0.08077572       0.16129050
N       -0.31011322      -0.68803043      -0.65344987
C        0.38272549       0.25771348      -0.08769352
O       -0.28624406       1.04808539       0.64370544
C        1.81332894       0.13589130       0.11066881
C        3.00955118       0.16867596       0.09873391
H       -2.30518353      -0.93207730       0.31715821
H       -2.32733690       0.53686923      -0.74855427
H       -2.29723571       0.66544589       1.00454279
H        0.19519067      -1.51088401      -0.94670567
H        4.07231998       0.23753476       0.10030366
11
Frame=10 idx=005471 GeodesicLength=0.3107363265856016 rxn_smarts="[C:1]([N:2]([C:3](=[O:4])[C:5]#[C:6][H:11])[H:10])([H:7])([H:8])[H:9]>>[C:1]([O:4]/[C:3](=[N:2]/[H:10])[C:5]#[C:6][H:11])([H:7])([H:8])[H:9]"
C       -1.93629563       0.07764060       0.16059278
N       -0.31320342      -0.67059578      -0.66854042
C        0.38277940       0.27077771      -0.09592873
O       -0.28593494       1.04719987       0.65237386
C        1.81058922       0.13181730       0.11412847
C        3.00703143       0.15875162       0.10568479
H       -2.28899617      -0.93366448       0.34276636
H       -2.33802967       0.51176026      -0.75178899
H       -2.30011660       0.67276017       0.99128276
H        0.19246300      -1.49571615      -0.95350827
H        4.06971339       0.22926888       0.10293738
11
Frame=11 idx=005471 GeodesicLength=0.34226664046735067 rxn_smarts="[C:1]([N:2]([C:3](=[O:4])[C:5]#[C:6][H:11])[H:10])([H:7])([H:8])[H:9]>>[C:1]([O:4]/[C:3](=[N:2]/[H:10])[C:5]#[C:6][H:11])([H:7])([H:8])[H:9]"
C       -1.92583312       0.07484493       0.15928478
N       -0.31601673      -0.65327991      -0.68247032
C        0.38287885       0.28345364      -0.10239776
O       -0.28584186       1.04557854       0.66231180
C        1.80776478       0.12768431       0.11854551
C        3.00438305       0.14898885       0.11326284
H       -2.27279224      -0.93434926       0.36749662
H       -2.34789692       0.48620148      -0.75545659
H       -2.30360644       0.68007412       0.97694465
H        0.19002070      -1.48025321      -0.96009637
H        4.06693993       0.22105650       0.10257484
11
Frame=12 idx=005471 GeodesicLength=0.37394064058305676 rxn_smarts="[C:1]([N:2]([C:3](=[O:4])[C:5]#[C:6][H:11])[H:10])([H:7])([H:8])[H:9]>>[C:1]([O:4]/[C:3](=[N:2]/[H:10])[C:5]#[C:6][H:11])([H:7])([H:8])[H:9]"
C       -1.91553471       0.07214300       0.15766345
N       -0.31855947      -0.63570289      -0.69573100
C        0.38294748       0.29632452      -0.10785226
O       -0.28612298       1.04399535       0.67254046
C        1.80473884       0.12401964       0.12357109
C        3.00150089       0.13967623       0.12140355
H       -2.25596399      -0.93446425       0.39211042
H       -2.35753703       0.45949300      -0.75914194
H       -2.30742820       0.68719536       0.96185447
H        0.18799446      -1.46404938      -0.96699284
H        4.06396470       0.21136943       0.10057460
11
Frame=13 idx=005471 GeodesicLength=0.4058174740814946 rxn_smarts="[C:1]([N:2]([C:3](=[O:4])[C:5]#[C:6][H:11])[H:10])([H:7])([H:8])[H:9]>>[C:1]([O:4]/[C:3](=[N:2]/[H:10])[C:5]#[C:6][H:11])([H:7])([H:8])[H:9]"
C       -1.90529984       0.06935401       0.15597891
N       -0.32088726      -0.61755240      -0.70876150
C        0.38292953       0.30983045      -0.11293646
O       -0.28686134       1.04313585       0.68220007
C        1.80139046       0.12111559       0.12893399
C        2.99826725       0.13077873       0.13017161
H       -2.23792500      -0.93421072       0.41726500
H       -2.36739126       0.43100060      -0.76243121
H       -2.31134148       0.69398426       0.94628047
H        0.18642507      -1.44671985      -0.97475698
H        4.06069388       0.19928347       0.09805609
11
Frame=14 idx=005471 GeodesicLength=0.43796671991106967 rxn_smarts="[C:1]([N:2]([C:3](=[O:4])[C:5]#[C:6][H:11])[H:10])([H:7])([H:8])[H:9]>>[C:1]([O:4]/[C:3](=[N:2]/[H:10])[C:5]#[C:6][H:11])([H:7])([H:8])[H:9]"
C       -1.89500593       0.06627993       0.15447350
N       -0.32306007      -0.59847285      -0.72200260
C        0.38276576       0.32445690      -0.11830136
O       -0.28816109       1.04380828       0.69036391
C        1.79756902       0.11930669       0.13440374
C        2.99451880       0.12221484       0.13971197
H       -2.21797273      -0.93377371       0.44359575
H       -2.37786660       0.40001003      -0.76483677
H       -2.31515848       0.70021441       0.93049876
H        0.18537497      -1.42780161      -0.98398144
H        4.05699634       0.18375708       0.09607453
11
Frame=15 idx=005471 GeodesicLength=0.47026659361913226 rxn_smarts="[C:1]([N:2]([C:3](=[O:4])[C:5]#[C:6][H:11])[H:10])([H:7])([H:8])[H:9]>>[C:1]([O:4]/[C:3](=[N:2]/[H:10])[C:5]#[C:6][H:11])([H:7])([H:8])[H:9]"
C       -1.88479325       0.06325906       0.15278230
N       -0.32511020      -0.57908868      -0.73484302
C        0.38252954       0.33935805      -0.12311097
O       -0.28975530       1.04471405       0.69849485
C        1.79353969       0.11803586       0.13991275
C        2.99051508       0.11408520       0.14909389
H       -2.19736164      -0.93262254       0.46981125
H       -2.38802115       0.36775644      -0.76677931
H       -2.31910457       0.70603098       0.91425388
H        0.18459256      -1.40825937      -0.99347554
H        4.05296924       0.16673096       0.09385992
11
Frame=16 idx=005471 GeodesicLength=0.5026516086532413 rxn_smarts="[C:1]([N:2]([C:3](=[O:4])[C:5]#[C:6][H:11])[H:10])([H:7])([H:8])[H:9]>>[C:1]([O:4]/[C:3](=[N:2]/[H:10])[C:5]#[C:6][H:11])([H:7])([H:8])[H:9]"
C       -1.87470008       0.06034627       0.15087912
N       -0.32710037      -0.55961301      -0.74716278
C        0.38220348       0.35433516      -0.12732595
O       -0.29154976       1.04553299       0.70684318
C        1.78939793       0.11728197       0.14513182
C        2.98634972       0.10659573       0.15780894
H       -2.17651796      -0.93065371       0.49557299
H       -2.39761483       0.33462172      -0.76824540
H       -2.32313723       0.71140949       0.89763158
H        0.18396703      -1.38840429      -1.00291853
H        4.04870206       0.14854769       0.09178503
