10
Frame=0 idx=003197 GeodesicLength=0.0 rxn_smarts="[O:1]([C:2]([C:3](=[O:4])[H:9])([C:5](=[O:6])[H:10])[H:8])[H:7]>>[O:1]([C@@:2]1([H:8])[C@@:3]2([H:9])[O:4][C@:5]1([H:10])[O:6]2)[H:7]"
O       -0.24579682      -0.71185552      -1.63062176
C        0.36956115       0.05658076      -0.67203197
C        0.65125385      -0.46602097       0.72578232
O        0.76286492       0.66846863       1.35462949
C       -0.54902730       0.79244410       0.31020403
O       -1.20485270      -0.23727807       0.80918964
H       -1.04007889      -1.07649012      -1.21851450
H        1.21754210       0.58863391      -1.09877173
H        1.00123066      -1.41768231       1.12973691
H       -0.96269697       1.80319959       0.29039758
10
Frame=1 idx=003197 GeodesicLength=0.04651608563996796 rxn_smarts="[O:1]([C:2]([C:3](=[O:4])[H:9])([C:5](=[O:6])[H:10])[H:8])[H:7]>>[O:1]([C@@:2]1([H:8])[C@@:3]2([H:9])[O:4][C@:5]1([H:10])[O:6]2)[H:7]"
O       -0.23852510      -0.72451217      -1.62430269
C        0.36838267       0.05542814      -0.66956061
C        0.65324193      -0.46657203       0.72924989
O        0.77029607       0.66792405       1.35814797
C       -0.55576387       0.79349712       0.30587028
O       -1.21518955      -0.23469755       0.80334790
H       -1.04352788      -1.07456719      -1.22053623
H        1.21111867       0.59574283      -1.09669636
H        1.00757170      -1.42108665       1.12265882
H       -0.95760463       1.80884345       0.29182101
10
Frame=2 idx=003197 GeodesicLength=0.09303455924049278 rxn_smarts="[O:1]([C:2]([C:3](=[O:4])[H:9])([C:5](=[O:6])[H:10])[H:8])[H:7]>>[O:1]([C@@:2]1([H:8])[C@@:3]2([H:9])[O:4][C@:5]1([H:10])[O:6]2)[H:7]"
O       -0.23138262      -0.73706290      -1.61777202
C        0.36715553       0.05424556      -0.66702016
C        0.65518365      -0.46711862       0.73280347
O        0.77790619       0.66738247       1.36167274
C       -0.56259642       0.79457654       0.30144500
O       -1.22567399      -0.23206852       0.79736353
H       -1.04681305      -1.07261517      -1.22279585
H        1.20463592       0.60260193      -1.09463049
H        1.01406273      -1.42432534       1.11555755
H       -0.95247794       1.81438404       0.29337623
10
Frame=3 idx=003197 GeodesicLength=0.13954464029159883 rxn_smarts="[O:1]([C:2]([C:3](=[O:4])[H:9])([C:5](=[O:6])[H:10])[H:8])[H:7]>>[O:1]([C@@:2]1([H:8])[C@@:3]2([H:9])[O:4][C@:5]1([H:10])[O:6]2)[H:7]"
O       -0.22436669      -0.74951324      -1.61102959
C        0.36587787       0.05303035      -0.66440711
C        0.65707392      -0.46766011       0.73644679
O        0.78570243       0.66684203       1.36520187
C       -0.56952440       0.79568121       0.29692605
O       -1.23630700      -0.22938817       0.79122897
H       -1.04993625      -1.07063428      -1.22529038
H        1.19808739       0.60921841      -1.09256971
H        1.02070128      -1.42739002       1.10842675
H       -0.94730854       1.81981382       0.29506636
10
Frame=4 idx=003197 GeodesicLength=0.18606398470797755 rxn_smarts="[O:1]([C:2]([C:3](=[O:4])[H:9])([C:5](=[O:6])[H:10])[H:8])[H:7]>>[O:1]([C@@:2]1([H:8])[C@@:3]2([H:9])[O:4][C@:5]1([H:10])[O:6]2)[H:7]"
O       -0.21749464      -0.76184884      -1.60408493
C        0.36454705       0.05178687      -0.66172227
C        0.65890512      -0.46819784       0.74018256
O        0.79369463       0.66629864       1.36873526
C       -0.57654923       0.79682165       0.29230873
O       -1.24710095      -0.22664664       0.78493544
H       -1.05287214      -1.06866957      -1.22800235
H        1.19147698       0.61560315      -1.09051257
H        1.02748350      -1.43029125       1.10125903
H       -0.94209032       1.82514382       0.29690110
10
Frame=5 idx=003197 GeodesicLength=0.23259451368153325 rxn_smarts="[O:1]([C:2]([C:3](=[O:4])[H:9])([C:5](=[O:6])[H:10])[H:8])[H:7]>>[O:1]([C@@:2]1([H:8])[C@@:3]2([H:9])[O:4][C@:5]1([H:10])[O:6]2)[H:7]"
O       -0.21075639      -0.77408331      -1.59693070
C        0.36316412       0.05050968      -0.65895822
C        0.66067698      -0.46873778       0.74401303
O        0.80189248       0.66574647       1.37226718
C       -0.58367273       0.79799260       0.28758978
O       -1.25805928      -0.22384549       0.77847170
H       -1.05564141      -1.06668786      -1.23092534
H        1.18480424       0.62176313      -1.08845230
H        1.03441588      -1.43301101       1.09405199
H       -0.93682390       1.83035357       0.29887288
10
Frame=6 idx=003197 GeodesicLength=0.2791211051598782 rxn_smarts="[O:1]([C:2]([C:3](=[O:4])[H:9])([C:5](=[O:6])[H:10])[H:8])[H:7]>>[O:1]([C@@:2]1([H:8])[C@@:3]2([H:9])[O:4][C@:5]1([H:10])[O:6]2)[H:7]"
O       -0.20417933      -0.78617565      -1.58958019
C        0.36172489       0.04920690      -0.65611692
C        0.66239280      -0.46926961       0.74793449
O        0.81031135       0.66518499       1.37578521
C       -0.59089313       0.79919794       0.28276079
O       -1.26917644      -0.22097819       0.77182690
H       -1.05821435      -1.06474096      -1.23404712
H        1.17807686       0.62768763      -1.08638304
H        1.04147176      -1.43555328       1.08681669
H       -0.93151442       1.83544023       0.30100319
10
Frame=7 idx=003197 GeodesicLength=0.3256607334349607 rxn_smarts="[O:1]([C:2]([C:3](=[O:4])[H:9])([C:5](=[O:6])[H:10])[H:8])[H:7]>>[O:1]([C@@:2]1([H:8])[C@@:3]2([H:9])[O:4][C@:5]1([H:10])[O:6]2)[H:7]"
O       -0.19775550      -0.79814407      -1.58204462
C        0.36023127       0.04787552      -0.65319949
C        0.66404659      -0.46980047       0.75195252
O        0.81895822       0.66461587       1.37929493
C       -0.59821232       0.80044363       0.27782340
O       -1.28046309      -0.21804566       0.76500087
H       -1.06060171      -1.06282210      -1.23736199
H        1.17130201       0.63338774      -1.08431112
H        1.04865739      -1.43791442       1.07954955
H       -0.92616286       1.84040396       0.30329595
10
Frame=8 idx=003197 GeodesicLength=0.37221327635319135 rxn_smarts="[O:1]([C:2]([C:3](=[O:4])[H:9])([C:5](=[O:6])[H:10])[H:8])[H:7]>>[O:1]([C@@:2]1([H:8])[C@@:3]2([H:9])[O:4][C@:5]1([H:10])[O:6]2)[H:7]"
O       -0.19148644      -0.80999195      -1.57432178
C        0.35868088       0.04651481      -0.65020147
C        0.66563394      -0.47033192       0.75607170
O        0.82784325       0.66403378       1.38279239
C       -0.60563123       0.80173161       0.27277370
O       -1.29192331      -0.21504284       0.75798274
H       -1.06280352      -1.06093088      -1.24086603
H        1.16447806       0.63886866      -1.08223311
H        1.05597539      -1.44008731       1.07224745
H       -0.92076702       1.84523603       0.30575442
10
Frame=9 idx=003197 GeodesicLength=0.4187823797357892 rxn_smarts="[O:1]([C:2]([C:3](=[O:4])[H:9])([C:5](=[O:6])[H:10])[H:8])[H:7]>>[O:1]([C@@:2]1([H:8])[C@@:3]2([H:9])[O:4][C@:5]1([H:10])[O:6]2)[H:7]"
O       -0.18536901      -0.82171612      -1.56640572
C        0.35707049       0.04512648      -0.64711639
C        0.66715197      -0.47085584       0.76029531
O        0.83698500       0.66343477       1.38626696
C       -0.61315144       0.80305844       0.26759873
O       -1.30356083      -0.21196461       0.75075689
H       -1.06482383      -1.05907781      -1.24455271
H        1.15759957       0.64413150      -1.08013067
H        1.06342182      -1.44206641       1.06490076
H       -0.91532374       1.84992961       0.30838683
10
Frame=10 idx=003197 GeodesicLength=0.46536005405410785 rxn_smarts="[O:1]([C:2]([C:3](=[O:4])[H:9])([C:5](=[O:6])[H:10])[H:8])[H:7]>>[O:1]([C@@:2]1([H:8])[C@@:3]2([H:9])[O:4][C@:5]1([H:10])[O:6]2)[H:7]"
O       -0.17941885      -0.83330086      -1.55831613
C        0.35540143       0.04371430      -0.64394770
C        0.66860276      -0.47137938       0.76462061
O        0.84638964       0.66281265       1.38971498
C       -0.62077295       0.80443472       0.26230494
O       -1.31537795      -0.20880775       0.74332194
H       -1.06664555      -1.05727931      -1.24840244
H        1.15068099       0.64918141      -1.07801656
H        1.07098066      -1.44384787       1.05752293
H       -0.90984018       1.85447207       0.31119743
10
Frame=11 idx=003197 GeodesicLength=0.5119529537254016 rxn_smarts="[O:1]([C:2]([C:3](=[O:4])[H:9])([C:5](=[O:6])[H:10])[H:8])[H:7]>>[O:1]([C@@:2]1([H:8])[C@@:3]2([H:9])[O:4][C@:5]1([H:10])[O:6]2)[H:7]"
O       -0.17363357      -0.84474765      -1.55004998
C        0.35367154       0.04227988      -0.64069261
C        0.66998435      -0.47189557       0.76905126
O        0.85607531       0.66217147       1.39313043
C       -0.62849653       0.80585835       0.25688242
O       -1.32737742      -0.20557233       0.73566447
H       -1.06827319      -1.05554509      -1.25241472
H        1.14372229       0.65401948      -1.07588456
H        1.07864459      -1.44543079       1.05011124
H       -0.90431736       1.85886225       0.31420204
10
Frame=12 idx=003197 GeodesicLength=0.5585733904067036 rxn_smarts="[O:1]([C:2]([C:3](=[O:4])[H:9])([C:5](=[O:6])[H:10])[H:8])[H:7]>>[O:1]([C@@:2]1([H:8])[C@@:3]2([H:9])[O:4][C@:5]1([H:10])[O:6]2)[H:7]"
O       -0.16800065      -0.85607639      -1.54160801
C        0.35187516       0.04082249      -0.63734752
C        0.67129338      -0.47240642       0.77359273
O        0.86606771       0.66150311       1.39650554
C       -0.63632290       0.80733037       0.25132286
O       -1.33955819      -0.20225653       0.72777139
H       -1.06970918      -1.05385282      -1.25657773
H        1.13671464       0.65865832      -1.07373121
H        1.08639908      -1.44680072       1.04266625
H       -0.89875905       1.86307859       0.31740570
10
Frame=13 idx=003197 GeodesicLength=0.6052071678565183 rxn_smarts="[O:1]([C:2]([C:3](=[O:4])[H:9])([C:5](=[O:6])[H:10])[H:8])[H:7]>>[O:1]([C@@:2]1([H:8])[C@@:3]2([H:9])[O:4][C@:5]1([H:10])[O:6]2)[H:7]"
O       -0.16253018      -0.86726355      -1.53299671
C        0.35001762       0.03934851      -0.63391132
C        0.67254107      -0.47290566       0.77824145
O        0.87637625       0.66080880       1.39982747
C       -0.64425222       0.80885490       0.24563060
O       -1.35192244      -0.19885790       0.71964125
H       -1.07094739      -1.05223532      -1.26088515
H        1.12966837       0.66309895      -1.07155572
H        1.09422087      -1.44796445       1.03519338
H       -0.89317194       1.86711572       0.32081474
10
Frame=14 idx=003197 GeodesicLength=0.651851498884339 rxn_smarts="[O:1]([C:2]([C:3](=[O:4])[H:9])([C:5](=[O:6])[H:10])[H:8])[H:7]>>[O:1]([C@@:2]1([H:8])[C@@:3]2([H:9])[O:4][C@:5]1([H:10])[O:6]2)[H:7]"
O       -0.15722691      -0.87829722      -1.52422824
C        0.34809714       0.03786476      -0.63038604
C        0.67373403      -0.47338930       0.78299335
O        0.88702409       0.66008498       1.40308783
C       -0.65228134       0.81043402       0.23979949
O       -1.36446228      -0.19537700       0.71126508
H       -1.07197948      -1.05070305      -1.26531727
H        1.12258743       0.66734911      -1.06936012
H        1.10207853      -1.44892564       1.02770902
H       -0.88757120       1.87095933       0.32443691
10
Frame=15 idx=003197 GeodesicLength=0.6985035760256407 rxn_smarts="[O:1]([C:2]([C:3](=[O:4])[H:9])([C:5](=[O:6])[H:10])[H:8])[H:7]>>[O:1]([C@@:2]1([H:8])[C@@:3]2([H:9])[O:4][C@:5]1([H:10])[O:6]2)[H:7]"
O       -0.15209048      -0.88916767      -1.51531272
C        0.34611373       0.03637834      -0.62677286
C        0.67488230      -0.47385075       0.78784462
O        0.89803487       0.65933046       1.40627408
C       -0.66040945       0.81206897       0.23382598
O       -1.37717171      -0.19181594       0.70263697
H       -1.07280031      -1.04926732      -1.26985841
H        1.11547525       0.67141756      -1.06714570
H        1.10993530      -1.44968854       1.02022721
H       -0.88196951       1.87459489       0.32828083
10
Frame=16 idx=003197 GeodesicLength=0.7451605796035091 rxn_smarts="[O:1]([C:2]([C:3](=[O:4])[H:9])([C:5](=[O:6])[H:10])[H:8])[H:7]>>[O:1]([C@@:2]1([H:8])[C@@:3]2([H:9])[O:4][C@:5]1([H:10])[O:6]2)[H:7]"
O       -0.14711920      -0.89986626      -1.50625987
C        0.34406763       0.03489673      -0.62307307
C        0.67599700      -0.47428248       0.79279119
O        0.90943292       0.65854425       1.40937300
C       -0.66863591       0.81376093       0.22770658
O       -1.39004442      -0.18817729       0.69375138
H       -1.07340549      -1.04793813      -1.27449363
H        1.10833457       0.67531422      -1.06491446
H        1.11775291      -1.45025907       1.01276366
H       -0.87638001       1.87800711       0.33235523
