10
Frame=0 idx=004440 GeodesicLength=0.0 rxn_smarts="[N:1]#[C:2][C:3]1([H:6])[C:4]([H:7])([H:8])[C:5]1([H:9])[H:10]>>[N:1]1=[C:2]=[C:3]([H:6])[C:4]([H:7])([H:8])[C:5]1([H:9])[H:10]"
N        2.02261582       0.91913143      -0.00577679
C        1.24508702       0.10414030       0.41848840
C        0.34007054      -0.87120326       0.77313618
C       -0.79479088      -0.55310605      -0.16902117
C       -0.13609664       0.74823152      -0.54727404
H        0.28014005      -1.30921752       1.75727553
H       -1.75153801      -0.34545364       0.31682654
H       -0.95262747      -1.25830698      -0.98814444
H       -0.44059385       1.62505952       0.00757993
H        0.18773342       0.94072469      -1.56309014
10
Frame=1 idx=004440 GeodesicLength=0.06360774544653511 rxn_smarts="[N:1]#[C:2][C:3]1([H:6])[C:4]([H:7])([H:8])[C:5]1([H:9])[H:10]>>[N:1]1=[C:2]=[C:3]([H:6])[C:4]([H:7])([H:8])[C:5]1([H:9])[H:10]"
N        2.03362973       0.88664897      -0.04772827
C        1.27635824       0.06619631       0.39861893
C        0.32728952      -0.84909873       0.79064777
C       -0.79016400      -0.55921599      -0.17970519
C       -0.13723311       0.75461353      -0.52706259
H        0.25295712      -1.25605280       1.78671711
H       -1.76071411      -0.37445881       0.28693304
H       -0.91363390      -1.26179850      -1.00631169
H       -0.44265576       1.62005568       0.04548427
H        0.15416628       0.97311034      -1.54759338
10
Frame=2 idx=004440 GeodesicLength=0.12735570388595682 rxn_smarts="[N:1]#[C:2][C:3]1([H:6])[C:4]([H:7])([H:8])[C:5]1([H:9])[H:10]>>[N:1]1=[C:2]=[C:3]([H:6])[C:4]([H:7])([H:8])[C:5]1([H:9])[H:10]"
N        2.04157355       0.85492765      -0.08561373
C        1.30458475       0.02923556       0.38168565
C        0.31628787      -0.82706752       0.80525652
C       -0.78576440      -0.56450027      -0.18940116
C       -0.13796108       0.76033087      -0.50821632
H        0.22885199      -1.20534988       1.81118388
H       -1.76786815      -0.40150470       0.26008424
H       -0.87759565      -1.26383751      -1.02224079
H       -0.44610784       1.61543071       0.07885421
H        0.12399897       1.00233507      -1.53159250
10
Frame=3 idx=004440 GeodesicLength=0.19122802187536475 rxn_smarts="[N:1]#[C:2][C:3]1([H:6])[C:4]([H:7])([H:8])[C:5]1([H:9])[H:10]>>[N:1]1=[C:2]=[C:3]([H:6])[C:4]([H:7])([H:8])[C:5]1([H:9])[H:10]"
N        2.04706988       0.82373761      -0.12015702
C        1.33028621      -0.00652665       0.36769977
C        0.30689390      -0.80525424       0.81741149
C       -0.78151335      -0.56900417      -0.19823810
C       -0.13838466       0.76563405      -0.49059630
H        0.20737686      -1.15727800       1.83140971
H       -1.77327791      -0.42687453       0.23603291
H       -0.84414684      -1.26456530      -1.03634042
H       -0.45106826       1.61134249       0.10822372
H        0.09676417       1.02878874      -1.51544575
10
Frame=4 idx=004440 GeodesicLength=0.2551980024718081 rxn_smarts="[N:1]#[C:2][C:3]1([H:6])[C:4]([H:7])([H:8])[C:5]1([H:9])[H:10]>>[N:1]1=[C:2]=[C:3]([H:6])[C:4]([H:7])([H:8])[C:5]1([H:9])[H:10]"
N        2.05060195       0.79282339      -0.15207752
C        1.35395642      -0.04113404       0.35644407
C        0.29890655      -0.78371486       0.82754092
C       -0.77733253      -0.57281261      -0.20635636
C       -0.13859351       0.77073645      -0.47402171
H        0.18805624      -1.11167375       1.84814799
H       -1.77720254      -0.45089866       0.21443751
H       -0.81283933      -1.26414231      -1.04899520
H       -0.45754029       1.60785468       0.13423300
H        0.07198705       1.05296170      -1.49935270
10
Frame=5 idx=004440 GeodesicLength=0.31935375897648866 rxn_smarts="[N:1]#[C:2][C:3]1([H:6])[C:4]([H:7])([H:8])[C:5]1([H:9])[H:10]>>[N:1]1=[C:2]=[C:3]([H:6])[C:4]([H:7])([H:8])[C:5]1([H:9])[H:10]"
N        2.05234305       0.76174868      -0.18185061
C        1.37596605      -0.07464394       0.34772533
C        0.29218969      -0.76235070       0.83598070
C       -0.77312037      -0.57591234      -0.21389290
C       -0.13869351       0.77574010      -0.45831459
H        0.17064176      -1.06825733       1.86190777
H       -1.77974517      -0.47378104       0.19485524
H       -0.78325020      -1.26254731      -1.06044896
H       -0.46547888       1.60481110       0.15737542
H        0.04914758       1.07519278      -1.48333739
10
Frame=6 idx=004440 GeodesicLength=0.38363211942613007 rxn_smarts="[N:1]#[C:2][C:3]1([H:6])[C:4]([H:7])([H:8])[C:5]1([H:9])[H:10]>>[N:1]1=[C:2]=[C:3]([H:6])[C:4]([H:7])([H:8])[C:5]1([H:9])[H:10]"
N        2.05264642       0.73042009      -0.21001066
C        1.39665662      -0.10727241       0.34119956
C        0.28658007      -0.74123109       0.84300230
C       -0.76885108      -0.57844357      -0.22093971
C       -0.13872455       0.78081636      -0.44332755
H        0.15470220      -1.02669130       1.87327822
H       -1.78114466      -0.49585049       0.17708429
H       -0.75503160      -1.25999056      -1.07099792
H       -0.47483882       1.60229491       0.17819977
H        0.02800538       1.09594807      -1.46748831
10
Frame=7 idx=004440 GeodesicLength=0.44806773403988054 rxn_smarts="[N:1]#[C:2][C:3]1([H:6])[C:4]([H:7])([H:8])[C:5]1([H:9])[H:10]>>[N:1]1=[C:2]=[C:3]([H:6])[C:4]([H:7])([H:8])[C:5]1([H:9])[H:10]"
N        2.05164066       0.69854648      -0.23701201
C        1.41623531      -0.13914060       0.33673123
C        0.28197828      -0.72032501       0.84882372
C       -0.76445843      -0.58044599      -0.22759525
C       -0.13874486       0.78604325      -0.42891272
H        0.13999115      -0.98661628       1.88265166
H       -1.78146821      -0.51732492       0.16081696
H       -0.72785972      -1.25648241      -1.08084819
H       -0.48554998       1.60019372       0.19712248
H        0.00823580       1.11555176      -1.45177788
10
Frame=8 idx=004440 GeodesicLength=0.5127520299689982 rxn_smarts="[N:1]#[C:2][C:3]1([H:6])[C:4]([H:7])([H:8])[C:5]1([H:9])[H:10]>>[N:1]1=[C:2]=[C:3]([H:6])[C:4]([H:7])([H:8])[C:5]1([H:9])[H:10]"
N        2.04935577       0.66588453      -0.26309499
C        1.43490364      -0.17035985       0.33410566
C        0.27831126      -0.69960491       0.85359660
C       -0.75990692      -0.58194967      -0.23392989
C       -0.13879684       0.79148960      -0.41495842
H        0.12634902      -0.94771988       1.89031520
H       -1.78079328      -0.53837572       0.14584068
H       -0.70148017      -1.25204156      -1.09015481
H       -0.49756910       1.59842798       0.21445233
H       -0.01037339       1.13424949      -1.43617235
10
Frame=9 idx=004440 GeodesicLength=0.5777010212563348 rxn_smarts="[N:1]#[C:2][C:3]1([H:6])[C:4]([H:7])([H:8])[C:5]1([H:9])[H:10]>>[N:1]1=[C:2]=[C:3]([H:6])[C:4]([H:7])([H:8])[C:5]1([H:9])[H:10]"
N        2.04599162       0.63239775      -0.28842586
C        1.45289465      -0.20103338       0.33313306
C        0.27553300      -0.67910598       0.85751881
C       -0.75525882      -0.58301931      -0.24002776
C       -0.13889688       0.79721906      -0.40141619
H        0.11365623      -0.90975361       1.89670151
H       -1.77931026      -0.55925173       0.13200662
H       -0.67583279      -1.24666821      -1.09916451
H       -0.51080751       1.59690883       0.23046562
H       -0.02796924       1.15230659      -1.42079129
10
Frame=10 idx=004440 GeodesicLength=0.6429437161596432 rxn_smarts="[N:1]#[C:2][C:3]1([H:6])[C:4]([H:7])([H:8])[C:5]1([H:9])[H:10]>>[N:1]1=[C:2]=[C:3]([H:6])[C:4]([H:7])([H:8])[C:5]1([H:9])[H:10]"
N        2.04115741       0.59745098      -0.31348087
C        1.46988268      -0.23118498       0.33391494
C        0.27355836      -0.65869535       0.86046472
C       -0.75019989      -0.58355589      -0.24585172
C       -0.13912480       0.80322444      -0.38806980
H        0.10172216      -0.87243283       1.90137566
H       -1.77655755      -0.57978501       0.11908490
H       -0.65028603      -1.24031195      -1.10759331
H       -0.52536829       1.59554134       0.24533000
H       -0.04478405       1.16974924      -1.40517451
10
Frame=11 idx=004440 GeodesicLength=0.7084485172528447 rxn_smarts="[N:1]#[C:2][C:3]1([H:6])[C:4]([H:7])([H:8])[C:5]1([H:9])[H:10]>>[N:1]1=[C:2]=[C:3]([H:6])[C:4]([H:7])([H:8])[C:5]1([H:9])[H:10]"
N        2.03523955       0.56188362      -0.33747910
C        1.48641602      -0.26092910       0.33594561
C        0.27241951      -0.63848168       0.86267367
C       -0.74512179      -0.58365810      -0.25146135
C       -0.13943242       0.80955709      -0.37515288
H        0.09079327      -0.83609721       1.90496934
H       -1.77312083      -0.60013800       0.10727459
H       -0.62552197      -1.23310224      -1.11578523
H       -0.54106794       1.59432542       0.25896561
H       -0.06060341       1.18664020      -1.38995027
10
Frame=12 idx=004440 GeodesicLength=0.7742312872245753 rxn_smarts="[N:1]#[C:2][C:3]1([H:6])[C:4]([H:7])([H:8])[C:5]1([H:9])[H:10]>>[N:1]1=[C:2]=[C:3]([H:6])[C:4]([H:7])([H:8])[C:5]1([H:9])[H:10]"
N        2.02810015       0.52565862      -0.36034916
C        1.50234537      -0.29040943       0.33904322
C        0.27208303      -0.61840080       0.86408776
C       -0.73993884      -0.58329299      -0.25683758
C       -0.13984138       0.81619771      -0.36259631
H        0.08084461      -0.80062028       1.90733779
H       -1.76882980      -0.62024269       0.09652099
H       -0.60137642      -1.22503568      -1.12364514
H       -0.55787773       1.59319611       0.27141829
H       -0.07550901       1.20294942      -1.37497984
10
Frame=13 idx=004440 GeodesicLength=0.840298759390945 rxn_smarts="[N:1]#[C:2][C:3]1([H:6])[C:4]([H:7])([H:8])[C:5]1([H:9])[H:10]>>[N:1]1=[C:2]=[C:3]([H:6])[C:4]([H:7])([H:8])[C:5]1([H:9])[H:10]"
N        2.01984740       0.48856966      -0.38234006
C        1.51769706      -0.31946632       0.34326600
C        0.27251166      -0.59842251       0.86479895
C       -0.73465698      -0.58246691      -0.26200973
C       -0.14037893       0.82317898      -0.35035274
H        0.07180233      -0.76600615       1.90860414
H       -1.76373201      -0.64016650       0.08670220
H       -0.57772502      -1.21612576      -1.13121507
H       -0.57575371       1.59208561       0.28283618
H       -0.08961181       1.21881991      -1.36028986
10
Frame=14 idx=004440 GeodesicLength=0.9066410159616171 rxn_smarts="[N:1]#[C:2][C:3]1([H:6])[C:4]([H:7])([H:8])[C:5]1([H:9])[H:10]>>[N:1]1=[C:2]=[C:3]([H:6])[C:4]([H:7])([H:8])[C:5]1([H:9])[H:10]"
N        2.01054193       0.45109887      -0.40294416
C        1.53249361      -0.34835297       0.34823164
C        0.27370922      -0.57857992       0.86478708
C       -0.72936773      -0.58119357      -0.26696271
C       -0.14103966       0.83046970      -0.33848525
H        0.06377324      -0.73228563       1.90881856
H       -1.75789830      -0.65986368       0.07792115
H       -0.55477232      -1.20642581      -1.13850056
H       -0.59460379       1.59094650       0.29313028
H       -0.10283619       1.23418651      -1.34599603
10
Frame=15 idx=004440 GeodesicLength=0.9732296805808419 rxn_smarts="[N:1]#[C:2][C:3]1([H:6])[C:4]([H:7])([H:8])[C:5]1([H:9])[H:10]>>[N:1]1=[C:2]=[C:3]([H:6])[C:4]([H:7])([H:8])[C:5]1([H:9])[H:10]"
N        2.00029739       0.41341020      -0.42203397
C        1.54670788      -0.37707517       0.35380468
C        0.27565386      -0.55885442       0.86407326
C       -0.72411628      -0.57948129      -0.27169906
C       -0.14183091       0.83805510      -0.32700229
H        0.05676873      -0.69952876       1.90802584
H       -1.75136939      -0.67931580       0.07016839
H       -0.53257150      -1.19599625      -1.14550107
H       -0.61432265       1.58973589       0.30232189
H       -0.11521713       1.24905049      -1.33215767
10
Frame=16 idx=004440 GeodesicLength=1.0400392459790082 rxn_smarts="[N:1]#[C:2][C:3]1([H:6])[C:4]([H:7])([H:8])[C:5]1([H:9])[H:10]>>[N:1]1=[C:2]=[C:3]([H:6])[C:4]([H:7])([H:8])[C:5]1([H:9])[H:10]"
N        1.98923105       0.37570174      -0.43948305
C        1.56031119      -0.40566458       0.35984107
C        0.27832117      -0.53924681       0.86267867
C       -0.71894677      -0.57734794      -0.27621954
C       -0.14276012       0.84591780      -0.31591776
H        0.05078769      -0.66779273       1.90628400
H       -1.74418898      -0.69850482       0.06343600
H       -0.51117363      -1.18490749      -1.15221642
H       -0.63478770       1.58842350       0.31042832
H       -0.12679391       1.26342133      -1.31883130
