11
Frame=0 idx=001681 GeodesicLength=0.0 rxn_smarts="[O:1]([C@@:2]1([H:8])[C:3]([H:9])([H:10])[O:4]/[C:5]1=[N:6]\[H:11])[H:7]>>[O:1]([C:2]/[C:5]([O:4][C:3]([H:8])([H:9])[H:10])=[N:6]/[H:11])[H:7]"
O        0.00948678       1.81647462       0.93363229
C        0.30965531       1.06905279      -0.10271472
C        1.13023559      -0.92299477       0.01045745
O        0.04468676      -1.05344916      -0.85845518
C       -0.66815053       0.06137810      -0.50633923
N       -1.91786504       0.22267494      -0.46427828
H       -0.83723275       1.52166285       1.31560440
H        1.38254590       0.43664374      -0.13813137
H        2.05081720      -1.32106317      -0.41115239
H        0.92209448      -1.24442333       1.02947754
H       -2.42627374      -0.58595665      -0.80810050
11
Frame=1 idx=001681 GeodesicLength=0.0561613306579392 rxn_smarts="[O:1]([C@@:2]1([H:8])[C:3]([H:9])([H:10])[O:4]/[C:5]1=[N:6]\[H:11])[H:7]>>[O:1]([C:2]/[C:5]([O:4][C:3]([H:8])([H:9])[H:10])=[N:6]/[H:11])[H:7]"
O        0.00374415       1.80499247       0.95076757
C        0.31309051       1.06122301      -0.08662419
C        1.13604082      -0.91787977       0.01127755
O        0.03724382      -1.06068187      -0.84405196
C       -0.67015885       0.05974847      -0.50550359
N       -1.91878862       0.22752173      -0.46618076
H       -0.86208558       1.52898466       1.30412356
H        1.40588669       0.43942046      -0.16367524
H        2.04514986      -1.33276337      -0.41885582
H        0.94076095      -1.23415839       1.03449167
H       -2.43088374      -0.57640739      -0.81576880
11
Frame=2 idx=001681 GeodesicLength=0.11235500474838983 rxn_smarts="[O:1]([C@@:2]1([H:8])[C:3]([H:9])([H:10])[O:4]/[C:5]1=[N:6]\[H:11])[H:7]>>[O:1]([C:2]/[C:5]([O:4][C:3]([H:8])([H:9])[H:10])=[N:6]/[H:11])[H:7]"
O       -0.00246485       1.79336147       0.96825040
C        0.31661036       1.05274081      -0.06959370
C        1.14221057      -0.91299386       0.01173568
O        0.02962049      -1.06816547      -0.82875674
C       -0.67223331       0.05774346      -0.50371746
N       -1.91969826       0.23237159      -0.46802268
H       -0.88699370       1.53846397       1.29119202
H        1.42812189       0.44182723      -0.18848057
H        2.03956096      -1.34377980      -0.42730509
H        0.96062655      -1.22505168       1.03881795
H       -2.43536068      -0.56651772      -0.82411979
11
Frame=3 idx=001681 GeodesicLength=0.16857411237306638 rxn_smarts="[O:1]([C@@:2]1([H:8])[C:3]([H:9])([H:10])[O:4]/[C:5]1=[N:6]\[H:11])[H:7]>>[O:1]([C:2]/[C:5]([O:4][C:3]([H:8])([H:9])[H:10])=[N:6]/[H:11])[H:7]"
O       -0.00921604       1.78154319       0.98609436
C        0.32015808       1.04365469      -0.05166254
C        1.14868024      -0.90832175       0.01185603
O        0.02183714      -1.07588076      -0.81256878
C       -0.67438153       0.05538477      -0.50104783
N       -1.92059989       0.23714746      -0.46971152
H       -0.91170185       1.54997900       1.27680550
H        1.44927841       0.44395390      -0.21257529
H        2.03400355      -1.35413439      -0.43645582
H        0.98159254      -1.21701378       1.04247874
H       -2.43965064      -0.55631231      -0.83321284
11
Frame=4 idx=001681 GeodesicLength=0.22480769747624665 rxn_smarts="[O:1]([C@@:2]1([H:8])[C:3]([H:9])([H:10])[O:4]/[C:5]1=[N:6]\[H:11])[H:7]>>[O:1]([C:2]/[C:5]([O:4][C:3]([H:8])([H:9])[H:10])=[N:6]/[H:11])[H:7]"
O       -0.01659663       1.76948929       1.00431096
C        0.32369545       1.03401932      -0.03286903
C        1.15537544      -0.90384347       0.01165860
O        0.01392924      -1.08378024      -0.79553442
C       -0.67659195       0.05272624      -0.49762093
N       -1.92148260       0.24181692      -0.47123860
H       -0.93596881       1.56337995       1.26094586
H        1.46939658       0.44588527      -0.23594857
H        2.02842596      -1.36384985      -0.44624388
H        1.00351104      -1.20997195       1.04547694
H       -2.44369371      -0.54587148      -0.84293693
11
Frame=5 idx=001681 GeodesicLength=0.28104299968334207 rxn_smarts="[O:1]([C@@:2]1([H:8])[C:3]([H:9])([H:10])[O:4]/[C:5]1=[N:6]\[H:11])[H:7]>>[O:1]([C:2]/[C:5]([O:4][C:3]([H:8])([H:9])[H:10])=[N:6]/[H:11])[H:7]"
O       -0.02469095       1.75713236       1.02293028
C        0.32718615       1.02387489      -0.01323201
C        1.16222805      -0.89954324       0.01115408
O        0.00593446      -1.09181402      -0.77771242
C       -0.67885131       0.04981476      -0.49354830
N       -1.92233452       0.24634036      -0.47257937
H       -0.95958388       1.57859316       1.24355257
H        1.48852230       0.44769685      -0.25856721
H        2.02278300      -1.37293995      -0.45662294
H        1.02624456      -1.20387577       1.04780003
H       -2.44743787      -0.53527938      -0.85317472
11
Frame=6 idx=001681 GeodesicLength=0.3372654661819465 rxn_smarts="[O:1]([C@@:2]1([H:8])[C:3]([H:9])([H:10])[O:4]/[C:5]1=[N:6]\[H:11])[H:7]>>[O:1]([C:2]/[C:5]([O:4][C:3]([H:8])([H:9])[H:10])=[N:6]/[H:11])[H:7]"
O       -0.03360540       1.74444798       1.04190832
C        0.33060451       1.01328053       0.00718988
C        1.16915533      -0.89539053       0.01036711
O       -0.00210328      -1.09991073      -0.75919743
C       -0.68113358       0.04673229      -0.48901867
N       -1.92313933       0.25070674      -0.47375597
H       -0.98227374       1.59539157       1.22465029
H        1.50672138       0.44946760      -0.28038020
H        2.01702277      -1.38142151      -0.46749725
H        1.04959467      -1.19865665       1.04944726
H       -2.45084332      -0.52464729      -0.86371334
11
Frame=7 idx=001681 GeodesicLength=0.3934554676003025 rxn_smarts="[O:1]([C@@:2]1([H:8])[C:3]([H:9])([H:10])[O:4]/[C:5]1=[N:6]\[H:11])[H:7]>>[O:1]([C:2]/[C:5]([O:4][C:3]([H:8])([H:9])[H:10])=[N:6]/[H:11])[H:7]"
O       -0.04344173       1.73139666       1.06121809
C        0.33392143       1.00227464       0.02836201
C        1.17608425      -0.89135973       0.00931311
O       -0.01014107      -1.10800137      -0.74009037
C       -0.68341143       0.04354581      -0.48419044
N       -1.92387645       0.25489433      -0.47476397
H       -1.00380314       1.61363555       1.20422633
H        1.52406529       0.45126461      -0.30132359
H        2.01110060      -1.38930225      -0.47879744
H        1.07338519      -1.19426571       1.05040719
H       -2.45388295      -0.51408254      -0.87436093
11
Frame=8 idx=001681 GeodesicLength=0.44959533397705076 rxn_smarts="[O:1]([C@@:2]1([H:8])[C:3]([H:9])([H:10])[O:4]/[C:5]1=[N:6]\[H:11])[H:7]>>[O:1]([C:2]/[C:5]([O:4][C:3]([H:8])([H:9])[H:10])=[N:6]/[H:11])[H:7]"
O       -0.05429830       1.71803763       1.08070046
C        0.33711634       0.99092127       0.05017956
C        1.18292747      -0.88740658       0.00803189
O       -0.01814064      -1.11600424      -0.72050950
C       -0.68564912       0.04035235      -0.47929498
N       -1.92452712       0.25890908      -0.47563428
H       -1.02387514       1.63293643       1.18245069
H        1.54064930       0.45315142      -0.32134538
H        2.00496564      -1.39659943      -0.49038896
H        1.09738491      -1.19060612       1.05070413
H       -2.45655333      -0.50369179      -0.88489362
11
Frame=9 idx=001681 GeodesicLength=0.5056892147609062 rxn_smarts="[O:1]([C@@:2]1([H:8])[C:3]([H:9])([H:10])[O:4]/[C:5]1=[N:6]\[H:11])[H:7]>>[O:1]([C:2]/[C:5]([O:4][C:3]([H:8])([H:9])[H:10])=[N:6]/[H:11])[H:7]"
O       -0.06623330       1.70446186       1.10017638
C        0.34016046       0.97927340       0.07253914
C        1.18962151      -0.88349050       0.00656711
O       -0.02609017      -1.12387147      -0.70051101
C       -0.68782966       0.03721675      -0.47450044
N       -1.92509900       0.26274111      -0.47635524
H       -1.04224445       1.65291211       1.15954041
H        1.55656779       0.45518151      -0.34043593
H        1.99857414      -1.40333443      -0.50216574
H        1.12144269      -1.18757082       1.05038368
H       -2.45887002      -0.49351952      -0.89523835
11
Frame=10 idx=001681 GeodesicLength=0.5617217624075072 rxn_smarts="[O:1]([C@@:2]1([H:8])[C:3]([H:9])([H:10])[O:4]/[C:5]1=[N:6]\[H:11])[H:7]>>[O:1]([C:2]/[C:5]([O:4][C:3]([H:8])([H:9])[H:10])=[N:6]/[H:11])[H:7]"
O       -0.07925520       1.69088928       1.11931232
C        0.34305441       0.96742769       0.09524459
C        1.19607366      -0.87955516       0.00498147
O       -0.03395937      -1.13149873      -0.68024051
C       -0.68989516       0.03427106      -0.47010714
N       -1.92555017       0.26649848      -0.47710807
H       -1.05870701       1.67284789       1.13595309
H        1.57196502       0.45738329      -0.35857420
H        1.99187798      -1.40955401      -0.51391924
H        1.14527330      -1.18501474       1.04951384
H       -2.46087745      -0.48369506      -0.90505616
11
Frame=11 idx=001681 GeodesicLength=0.6177078419094912 rxn_smarts="[O:1]([C@@:2]1([H:8])[C:3]([H:9])([H:10])[O:4]/[C:5]1=[N:6]\[H:11])[H:7]>>[O:1]([C:2]/[C:5]([O:4][C:3]([H:8])([H:9])[H:10])=[N:6]/[H:11])[H:7]"
O       -0.09331086       1.67748348       1.13788964
C        0.34578037       0.95543995       0.11817430
C        1.20224372      -0.87556838       0.00331764
O       -0.04175001      -1.13884411      -0.65974120
C       -0.69182139       0.03156830      -0.46624766
N       -1.92586891       0.27024979      -0.47800357
H       -1.07321503       1.69229765       1.11202761
H        1.58696242       0.45977209      -0.37578661
H        1.98484657      -1.41530434      -0.52555012
H        1.16876291      -1.18282788       1.04815565
H       -2.46262980      -0.47426654      -0.91423568
11
Frame=12 idx=001681 GeodesicLength=0.6736442344063086 rxn_smarts="[O:1]([C@@:2]1([H:8])[C:3]([H:9])([H:10])[O:4]/[C:5]1=[N:6]\[H:11])[H:7]>>[O:1]([C:2]/[C:5]([O:4][C:3]([H:8])([H:9])[H:10])=[N:6]/[H:11])[H:7]"
O       -0.10834007       1.66425339       1.15585410
C        0.34831150       0.94330433       0.14130965
C        1.20810833      -0.87152201       0.00158070
O       -0.04943759      -1.14584147      -0.63912358
C       -0.69358769       0.02912077      -0.46295604
N       -1.92602945       0.27402985      -0.47911150
H       -1.08583515       1.71121893       1.08782412
H        1.60166773       0.46234938      -0.39204990
H        1.97747953      -1.42058300      -0.53703128
H        1.19182571      -1.18101033       1.04631284
H       -2.46416285      -0.46531984      -0.92260912
11
Frame=13 idx=001681 GeodesicLength=0.7295455821903299 rxn_smarts="[O:1]([C@@:2]1([H:8])[C:3]([H:9])([H:10])[O:4]/[C:5]1=[N:6]\[H:11])[H:7]>>[O:1]([C:2]/[C:5]([O:4][C:3]([H:8])([H:9])[H:10])=[N:6]/[H:11])[H:7]"
O       -0.12417562       1.65146426       1.17291545
C        0.35063640       0.93110877       0.16445630
C        1.21363870      -0.86737505      -0.00017057
O       -0.05704703      -1.15247649      -0.61837074
C       -0.69518136       0.02696064      -0.46032499
N       -1.92602094       0.27793686      -0.48058275
H       -1.09662523       1.72897432       1.06388755
H        1.61619900       0.46510010      -0.40748191
H        1.96973945      -1.42547504      -0.54823061
H        1.21437948      -1.17937863       1.04408722
H       -2.46554285      -0.45683973      -0.93018495
11
Frame=14 idx=001681 GeodesicLength=0.785423403684922 rxn_smarts="[O:1]([C@@:2]1([H:8])[C:3]([H:9])([H:10])[O:4]/[C:5]1=[N:6]\[H:11])[H:7]>>[O:1]([C:2]/[C:5]([O:4][C:3]([H:8])([H:9])[H:10])=[N:6]/[H:11])[H:7]"
O       -0.14072154       1.63909398       1.18909618
C        0.35273111       0.91884078       0.18762528
C        1.21883594      -0.86313128      -0.00194316
O       -0.06454656      -1.15869374      -0.59761585
C       -0.69659271       0.02507542      -0.45832437
N       -1.92582354       0.28200272      -0.48247830
H       -1.10574793       1.74566516       1.04019788
H        1.63066455       0.46801249      -0.42206959
H        1.96165358      -1.42998238      -0.55914529
H        1.23636517      -1.17797000       1.04146937
H       -2.46681807      -0.44891316      -0.93681216
11
Frame=15 idx=001681 GeodesicLength=0.8412827632704252 rxn_smarts="[O:1]([C@@:2]1([H:8])[C:3]([H:9])([H:10])[O:4]/[C:5]1=[N:6]\[H:11])[H:7]>>[O:1]([C:2]/[C:5]([O:4][C:3]([H:8])([H:9])[H:10])=[N:6]/[H:11])[H:7]"
O       -0.15785347       1.62717980       1.20436131
C        0.35456838       0.90650569       0.21077941
C        1.22370303      -0.85878061      -0.00372694
O       -0.07192215      -1.16447056      -0.57693315
C       -0.69783184       0.02343244      -0.45689730
N       -1.92544343       0.28621662      -0.48478457
H       -1.11333297       1.76126417       1.01685470
H        1.64514966       0.47106862      -0.43586994
H        1.95323871      -1.43412171      -0.56974636
H        1.25774848      -1.17675651       1.03848293
H       -2.46802439      -0.44153796      -0.94252008
11
Frame=16 idx=001681 GeodesicLength=0.8971279900488789 rxn_smarts="[O:1]([C@@:2]1([H:8])[C:3]([H:9])([H:10])[O:4]/[C:5]1=[N:6]\[H:11])[H:7]>>[O:1]([C:2]/[C:5]([O:4][C:3]([H:8])([H:9])[H:10])=[N:6]/[H:11])[H:7]"
O       -0.17543636       1.61576349       1.21867979
C        0.35612600       0.89411679       0.23386927
C        1.22824417      -0.85430935      -0.00550869
O       -0.07915629      -1.16978712      -0.55641134
C       -0.69891321       0.02199957      -0.45598651
N       -1.92489295       0.29055982      -0.48747260
H       -1.11951485       1.77572896       0.99396780
H        1.65973695       0.47424222      -0.44895688
H        1.94451957      -1.43791215      -0.57998967
H        1.27848192      -1.17570202       1.03515911
H       -2.46919496      -0.43470022      -0.94735028
