14
Frame=0 idx=006251 GeodesicLength=0.0 rxn_smarts="[C:1]([C@@:2]1([H:10])[C:3]([H:11])([H:12])[C@:4]1([C:5](=[O:6])[H:14])[H:13])([H:7])([H:8])[H:9]>>[C:1]([C:2]([C:3]([H:11])([H:12])[H:14])([C:4](=[C:5]=[O:6])[H:13])[H:10])([H:7])([H:8])[H:9]"
C       -1.35069620      -0.91304247      -0.49842221
C       -0.44592193       0.30505663      -0.42323894
C       -0.25228301       0.91448318       0.89329382
C        1.01206898       0.14252061      -0.72339963
C        1.76866151      -0.12768096       0.41740219
O        2.94455476      -0.16554697       0.69061669
H       -1.00653812      -1.67946534       0.19915379
H       -2.38254865      -0.65374293      -0.24897457
H       -1.33466612      -1.34472199      -1.49978705
H       -0.79186086       1.08894317      -1.11073989
H       -0.69625937       0.52108585       1.80236263
H        0.10920201       1.93229260       0.93984373
H        1.45026227       0.32301748      -1.69945713
H        0.97602467      -0.34319890       1.26134660
14
Frame=1 idx=006251 GeodesicLength=0.07616983405343142 rxn_smarts="[C:1]([C@@:2]1([H:10])[C:3]([H:11])([H:12])[C@:4]1([C:5](=[O:6])[H:14])[H:13])([H:7])([H:8])[H:9]>>[C:1]([C:2]([C:3]([H:11])([H:12])[H:14])([C:4](=[C:5]=[O:6])[H:13])[H:10])([H:7])([H:8])[H:9]"
C       -1.34472829      -0.91676758      -0.49681073
C       -0.45146999       0.30934686      -0.42640823
C       -0.24408642       0.91662299       0.89086702
C        1.01003655       0.15841626      -0.71621239
C        1.77379164      -0.14621033       0.41074926
O        2.94905396      -0.20034764       0.67622680
H       -0.99881805      -1.67759210       0.20592318
H       -2.37874781      -0.66338047      -0.25040703
H       -1.32289884      -1.35331794      -1.49602249
H       -0.80474423       1.09017478      -1.11255311
H       -0.70906060       0.53401319       1.79384052
H        0.10863083       1.93785623       0.93685767
H        1.44789169       0.34692230      -1.69052539
H        0.96514956      -0.33573657       1.27447491
14
Frame=2 idx=006251 GeodesicLength=0.15231959403924134 rxn_smarts="[C:1]([C@@:2]1([H:10])[C:3]([H:11])([H:12])[C@:4]1([C:5](=[O:6])[H:14])[H:13])([H:7])([H:8])[H:9]>>[C:1]([C:2]([C:3]([H:11])([H:12])[H:14])([C:4](=[C:5]=[O:6])[H:13])[H:10])([H:7])([H:8])[H:9]"
C       -1.33871823      -0.92035332      -0.49525432
C       -0.45686965       0.31354913      -0.42940422
C       -0.23608852       0.91858920       0.88865174
C        1.00808464       0.17391399      -0.70864099
C        1.77869381      -0.16474972       0.40360727
O        2.95312120      -0.23470952       0.66113960
H       -0.99135765      -1.67562121       0.21265949
H       -2.37490214      -0.67281335      -0.25213950
H       -1.31088692      -1.36166219      -1.49229602
H       -0.81724165       1.09132690      -1.11421602
H       -0.72164916       0.54689273       1.78517163
H        0.10755806       1.94328167       0.93412562
H        1.44551403       0.37018750      -1.68123495
H        0.95474218      -0.32783179       1.28783067
14
Frame=3 idx=006251 GeodesicLength=0.22844646265147353 rxn_smarts="[C:1]([C@@:2]1([H:10])[C:3]([H:11])([H:12])[C@:4]1([C:5](=[O:6])[H:14])[H:13])([H:7])([H:8])[H:9]>>[C:1]([C:2]([C:3]([H:11])([H:12])[H:14])([C:4](=[C:5]=[O:6])[H:13])[H:10])([H:7])([H:8])[H:9]"
C       -1.33271384      -0.92378942      -0.49376409
C       -0.46210517       0.31765619      -0.43223413
C       -0.22827549       0.92036495       0.88666216
C        1.00623653       0.18895546      -0.70071154
C        1.78341031      -0.18326438       0.39597352
O        2.95680787      -0.26832716       0.64546605
H       -0.98422013      -1.67357891       0.21932295
H       -2.37105131      -0.68199657      -0.25415034
H       -1.29872576      -1.36972577      -1.48863602
H       -0.82931031       1.09241272      -1.11573585
H       -0.73399310       0.55966991       1.77639211
H        0.10602768       1.94854403       0.93167158
H        1.44314391       0.39265740      -1.67164574
H        0.94476881      -0.31957846       1.30138934
14
Frame=4 idx=006251 GeodesicLength=0.3045113507873156 rxn_smarts="[C:1]([C@@:2]1([H:10])[C:3]([H:11])([H:12])[C@:4]1([C:5](=[O:6])[H:14])[H:13])([H:7])([H:8])[H:9]>>[C:1]([C:2]([C:3]([H:11])([H:12])[H:14])([C:4](=[C:5]=[O:6])[H:13])[H:10])([H:7])([H:8])[H:9]"
C       -1.32671445      -0.92701832      -0.49233734
C       -0.46716305       0.32165115      -0.43490968
C       -0.22062300       0.92190888       0.88488226
C        1.00443239       0.20347269      -0.69241460
C        1.78793322      -0.20176343       0.38785564
O        2.96015440      -0.30088971       0.62932775
H       -0.97740716      -1.67141019       0.22590767
H       -2.36714954      -0.69084881      -0.25643047
H       -1.28647728      -1.37740829      -1.48503094
H       -0.84092425       1.09340807      -1.11714045
H       -0.74602550       0.57223080       1.76746487
H        0.10408069       1.95353736       0.92946257
H        1.44070881       0.41419481      -1.66178888
H        0.93517471      -0.31106500       1.31515161
14
Frame=5 idx=006251 GeodesicLength=0.3805029398246679 rxn_smarts="[C:1]([C@@:2]1([H:10])[C:3]([H:11])([H:12])[C@:4]1([C:5](=[O:6])[H:14])[H:13])([H:7])([H:8])[H:9]>>[C:1]([C:2]([C:3]([H:11])([H:12])[H:14])([C:4](=[C:5]=[O:6])[H:13])[H:10])([H:7])([H:8])[H:9]"
C       -1.32076047      -0.93010445      -0.49096562
C       -0.47204154       0.32553972      -0.43743988
C       -0.21313084       0.92325778       0.88330586
C        1.00275405       0.21746452      -0.68381176
C        1.79232731      -0.22015724       0.37925101
O        2.96319005      -0.33252281       0.61276011
H       -0.97096883      -1.66920220       0.23241897
H       -2.36326982      -0.69941829      -0.25895425
H       -1.27416879      -1.38482863      -1.48147602
H       -0.85209160       1.09433616      -1.11843365
H       -0.75777796       0.58467417       1.75844883
H        0.10176451       1.95834468       0.92749411
H        1.43827698       0.43497773      -1.65166526
H        0.92589696      -0.30236112       1.32906753
14
Frame=6 idx=006251 GeodesicLength=0.4565170714535415 rxn_smarts="[C:1]([C@@:2]1([H:10])[C:3]([H:11])([H:12])[C@:4]1([C:5](=[O:6])[H:14])[H:13])([H:7])([H:8])[H:9]>>[C:1]([C:2]([C:3]([H:11])([H:12])[H:14])([C:4](=[C:5]=[O:6])[H:13])[H:10])([H:7])([H:8])[H:9]"
C       -1.31487295      -0.93301203      -0.48965149
C       -0.47673071       0.32930879      -0.43983478
C       -0.20577538       0.92439273       0.88193555
C        1.00116447       0.23087154      -0.67490465
C        1.79661300      -0.23846395       0.37014064
O        2.96601217      -0.36292048       0.59586683
H       -0.96492820      -1.66693076       0.23884438
H       -2.35940995      -0.70764460      -0.26170429
H       -1.26187987      -1.39192100      -1.47797770
H       -0.86279109       1.09518744      -1.11963511
H       -0.76922011       0.59691583       1.74932059
H        0.09914112       1.96288978       0.92575067
H        1.43582861       0.45488796      -1.64132921
H        0.91684889      -0.29356125       1.34317857
14
Frame=7 idx=006251 GeodesicLength=0.5324132666327239 rxn_smarts="[C:1]([C@@:2]1([H:10])[C:3]([H:11])([H:12])[C@:4]1([C:5](=[O:6])[H:14])[H:13])([H:7])([H:8])[H:9]>>[C:1]([C:2]([C:3]([H:11])([H:12])[H:14])([C:4](=[C:5]=[O:6])[H:13])[H:10])([H:7])([H:8])[H:9]"
C       -1.30905858      -0.93576857      -0.48838249
C       -0.48123659       0.33295848      -0.44210892
C       -0.19855613       0.92532734       0.88074935
C        0.99968196       0.24369536      -0.66572843
C        1.80080872      -0.25663499       0.36053514
O        2.96864190      -0.39221056       0.57868385
H       -0.95929100      -1.66461249       0.24520993
H       -2.35558234      -0.71556016      -0.26466589
H       -1.24961281      -1.39874762      -1.47451436
H       -0.87304186       1.09595319      -1.12076805
H       -0.78035590       0.60900558       1.74009955
H        0.09625493       1.96719481       0.92420204
H        1.43337284       0.47409468      -1.63076370
H        0.90797487      -0.28469504       1.35745197
14
Frame=8 idx=006251 GeodesicLength=0.6083518672959378 rxn_smarts="[C:1]([C@@:2]1([H:10])[C:3]([H:11])([H:12])[C@:4]1([C:5](=[O:6])[H:14])[H:13])([H:7])([H:8])[H:9]>>[C:1]([C:2]([C:3]([H:11])([H:12])[H:14])([C:4](=[C:5]=[O:6])[H:13])[H:10])([H:7])([H:8])[H:9]"
C       -1.30335399      -0.93836120      -0.48716122
C       -0.48555003       0.33647138      -0.44426764
C       -0.19143636       0.92604703       0.87974277
C        0.99829303       0.25587473      -0.65630638
C        1.80498378      -0.27468292       0.35040516
O        2.97118072      -0.42009193       0.56132716
H       -0.95410526      -1.66225514       0.25149379
H       -2.35180695      -0.72311345      -0.26782274
H       -1.23745637      -1.40528408      -1.47109499
H       -0.88282648       1.09662973      -1.12183464
H       -0.79116993       0.62091442       1.73078111
H        0.09320269       1.97120380       0.92284007
H        1.43089246       0.49252948      -1.62001403
H        0.89915269      -0.27588186       1.37191160
14
Frame=9 idx=006251 GeodesicLength=0.6841587418916789 rxn_smarts="[C:1]([C@@:2]1([H:10])[C:3]([H:11])([H:12])[C@:4]1([C:5](=[O:6])[H:14])[H:13])([H:7])([H:8])[H:9]>>[C:1]([C:2]([C:3]([H:11])([H:12])[H:14])([C:4](=[C:5]=[O:6])[H:13])[H:10])([H:7])([H:8])[H:9]"
C       -1.29776504      -0.94081216      -0.48597408
C       -0.48968153       0.33985011      -0.44632605
C       -0.18441951       0.92656340       0.87889879
C        0.99700285       0.26741133      -0.64666224
C        1.80913622      -0.29258880       0.33974740
O        2.97367199      -0.44667944       0.54381471
H       -0.94937323      -1.65987146       0.25772996
H       -2.34809853      -0.73032746      -0.27117341
H       -1.22540619      -1.41158808      -1.46769098
H       -0.89217078       1.09721438      -1.12286009
H       -0.80166404       0.63267702       1.72136495
H        0.09002475       1.97493576       0.92162772
H        1.42840274       0.51035707      -1.60904748
H        0.89034030      -0.26714168       1.38655081
14
Frame=10 idx=006251 GeodesicLength=0.7599992650473166 rxn_smarts="[C:1]([C@@:2]1([H:10])[C:3]([H:11])([H:12])[C@:4]1([C:5](=[O:6])[H:14])[H:13])([H:7])([H:8])[H:9]>>[C:1]([C:2]([C:3]([H:11])([H:12])[H:14])([C:4](=[C:5]=[O:6])[H:13])[H:10])([H:7])([H:8])[H:9]"
C       -1.29231783      -0.94311239      -0.48481961
C       -0.49362076       0.34307806      -0.44828925
C       -0.17746683       0.92685705       0.87820790
C        0.99580284       0.27826471      -0.63683889
C        1.81333904      -0.31034846       0.32851647
O        2.97620154      -0.47171479       0.52627889
H       -0.94512747      -1.65746984       0.26389393
H       -2.34446686      -0.73716618      -0.27467663
H       -1.21354323      -1.41763016      -1.46431265
H       -0.90106171       1.09770211      -1.12383751
H       -0.81183531       0.64428747       1.71184552
H        0.08683207       1.97833197       0.92055168
H        1.42587817       0.52752008      -1.59791565
H        0.88138635      -0.25859962       1.40139579
14
Frame=11 idx=006251 GeodesicLength=0.835766994509572 rxn_smarts="[C:1]([C@@:2]1([H:10])[C:3]([H:11])([H:12])[C@:4]1([C:5](=[O:6])[H:14])[H:13])([H:7])([H:8])[H:9]>>[C:1]([C:2]([C:3]([H:11])([H:12])[H:14])([C:4](=[C:5]=[O:6])[H:13])[H:10])([H:7])([H:8])[H:9]"
C       -1.28700648      -0.94529289      -0.48368935
C       -0.49738109       0.34616468      -0.45016769
C       -0.17058504       0.92695616       0.87766636
C        0.99469438       0.28845894      -0.62684234
C        1.81759820      -0.32796183       0.31669626
O        2.97879745      -0.49537630       0.50868925
H       -0.94136269      -1.65506381       0.27003130
H       -2.34091819      -0.74366925      -0.27835160
H       -1.20183256      -1.42348883      -1.46093766
H       -0.90953599       1.09809736      -1.12479091
H       -0.82169934       0.65579787       1.70222616
H        0.08365631       1.98143552       0.91959368
H        1.42333187       0.54418797      -1.58659635
H        0.87224317      -0.25024559       1.41647288
14
Frame=12 idx=006251 GeodesicLength=0.9114874898847471 rxn_smarts="[C:1]([C@@:2]1([H:10])[C:3]([H:11])([H:12])[C@:4]1([C:5](=[O:6])[H:14])[H:13])([H:7])([H:8])[H:9]>>[C:1]([C:2]([C:3]([H:11])([H:12])[H:14])([C:4](=[C:5]=[O:6])[H:13])[H:10])([H:7])([H:8])[H:9]"
C       -1.28181131      -0.94736561      -0.48256060
C       -0.50096986       0.34910583      -0.45196022
C       -0.16377840       0.92687332       0.87724696
C        0.99367029       0.29802079      -0.61667081
C        1.82191979      -0.34544351       0.30423712
O        2.98147891      -0.51783998       0.49100193
H       -0.93805488      -1.65262714       0.27617597
H       -2.33743938      -0.74987307      -0.28219711
H       -1.19022829      -1.42919715      -1.45751284
H       -0.91762412       1.09836889      -1.12571749
H       -0.83129315       0.66724505       1.69246713
H        0.08052968       1.98423885       0.91871429
H        1.42077970       0.56053648      -1.57503783
H        0.86282102      -0.24204276       1.43181350
14
Frame=13 idx=006251 GeodesicLength=0.987166410026534 rxn_smarts="[C:1]([C@@:2]1([H:10])[C:3]([H:11])([H:12])[C@:4]1([C:5](=[O:6])[H:14])[H:13])([H:7])([H:8])[H:9]>>[C:1]([C:2]([C:3]([H:11])([H:12])[H:14])([C:4](=[C:5]=[O:6])[H:13])[H:10])([H:7])([H:8])[H:9]"
C       -1.27676270      -0.94933162      -0.48143801
C       -0.50438520       0.35189595      -0.45367795
C       -0.15701568       0.92659014       0.87695217
C        0.99272928       0.30691892      -0.60637414
C        1.82637519      -0.36276560       0.29109840
O        2.98432430      -0.53888058       0.47336111
H       -0.93523012      -1.65019256       0.28230017
H       -2.33405157      -0.75575081      -0.28618169
H       -1.17881246      -1.43474357      -1.45406539
H       -0.92532376       1.09853540      -1.12661953
H       -0.84059498       0.67864436       1.68258317
H        0.07756070       1.98671453       0.91791099
H        1.41818217       0.57648399      -1.56328331
H        0.85300482      -0.23411856       1.44743402
14
Frame=14 idx=006251 GeodesicLength=1.0628196870001483 rxn_smarts="[C:1]([C@@:2]1([H:10])[C:3]([H:11])([H:12])[C@:4]1([C:5](=[O:6])[H:14])[H:13])([H:7])([H:8])[H:9]>>[C:1]([C:2]([C:3]([H:11])([H:12])[H:14])([C:4](=[C:5]=[O:6])[H:13])[H:10])([H:7])([H:8])[H:9]"
C       -1.27184229      -0.95121822      -0.48030915
C       -0.50763442       0.35453676      -0.45532626
C       -0.15030399       0.92613377       0.87677483
C        0.99186711       0.31518057      -0.59594732
C        1.83096442      -0.37996772       0.27722266
O        2.98734082      -0.55868854       0.45570647
H       -0.93286769      -1.64776215       0.28844366
H       -2.33074296      -0.76134839      -0.29031247
H       -1.16754072      -1.44018826      -1.45056816
H       -0.93266321       1.09858606      -1.12751328
H       -0.84963466       0.69004498       1.67256320
H        0.07477694       1.98889302       0.91716274
H        1.41556051       0.59221477      -1.55129521
H        0.84272014      -0.22641665       1.46339831
14
Frame=15 idx=006251 GeodesicLength=1.1384607584199358 rxn_smarts="[C:1]([C@@:2]1([H:10])[C:3]([H:11])([H:12])[C@:4]1([C:5](=[O:6])[H:14])[H:13])([H:7])([H:8])[H:9]>>[C:1]([C:2]([C:3]([H:11])([H:12])[H:14])([C:4](=[C:5]=[O:6])[H:13])[H:10])([H:7])([H:8])[H:9]"
C       -1.26703688      -0.95304755      -0.47915928
C       -0.51072239       0.35702546      -0.45690845
C       -0.14364195       0.92551409       0.87670632
C        0.99108592       0.32283147      -0.58540023
C        1.83570730      -0.39705090       0.26254126
O        2.99053283      -0.57741902       0.43800119
H       -0.93095565      -1.64532979       0.29463870
H       -2.32750901      -0.76670201      -0.29459184
H       -1.15637625      -1.44558358      -1.44698703
H       -0.93967105       1.09850329      -1.12840077
H       -0.85844190       0.70150365       1.66238228
H        0.07221784       1.99078488       0.91644166
H        1.41292780       0.60788895      -1.53901555
H        0.83188338      -0.21891894       1.47975173
14
Frame=16 idx=006251 GeodesicLength=1.2140889547617708 rxn_smarts="[C:1]([C@@:2]1([H:10])[C:3]([H:11])([H:12])[C@:4]1([C:5](=[O:6])[H:14])[H:13])([H:7])([H:8])[H:9]>>[C:1]([C:2]([C:3]([H:11])([H:12])[H:14])([C:4](=[C:5]=[O:6])[H:13])[H:10])([H:7])([H:8])[H:9]"
C       -1.26231448      -0.95483212      -0.47796696
C       -0.51365041       0.35936226      -0.45842833
C       -0.13703270       0.92473937       0.87673242
C        0.99037198       0.32989504      -0.57473213
C        1.84059185      -0.41404682       0.24697426
O        2.99386640      -0.59523074       0.42019812
H       -0.92946584      -1.64288437       0.30092784
H       -2.32431419      -0.77184310      -0.29902127
H       -1.14526027      -1.45096246      -1.44327673
H       -0.94636610       1.09827723      -1.12929082
H       -0.86703676       0.71305111       1.65200454
H        0.06990956       1.99239405       0.91571340
H        1.41028348       0.62366390      -1.52638110
H        0.82041749      -0.21158335       1.49654675
