17
Frame=0 idx=011160 GeodesicLength=0.0 rxn_smarts="[C:1]1([H:8])([H:9])[C@:2]2([H:10])[C@@:3]1([H:11])[C@:4]1([H:12])[C:5]([H:13])([H:14])[C:6]([H:15])([H:16])[C@:7]21[H:17]>>[C:1]1([H:8])([H:9])[C@@:2]2([H:10])[C@:3]1([H:11])[C:4][C:5]([H:13])([H:14])[C:6]([H:15])([H:16])[C:7]2([H:12])[H:17]"
C        1.25265664      -0.35443845       1.07542969
C        1.24593690       0.60734116      -0.06388029
C        1.16946726      -0.86818913      -0.33968712
C       -0.17530451      -0.92352369      -1.04301120
C       -1.36825643      -0.83839455      -0.07816371
C       -1.35615592       0.67678345       0.19704488
C       -0.10778708       1.04605376      -0.60998459
H        2.21371898      -0.48759502       1.55469792
H        0.41193692      -0.42962346       1.75209159
H        2.12055281       1.21129955      -0.26673385
H        1.98808092      -1.45927230      -0.73034835
H       -0.24658524       0.30291669      -1.60685293
H       -1.20254503      -1.44755139       0.81305586
H       -2.29655731      -1.17762763      -0.53940859
H       -2.23344320       1.15348150      -0.24056885
H       -1.30650489       0.97833243       1.24582075
H       -0.10921085       2.01000715      -1.11950113
17
Frame=1 idx=011160 GeodesicLength=0.061541268070128205 rxn_smarts="[C:1]1([H:8])([H:9])[C@:2]2([H:10])[C@@:3]1([H:11])[C@:4]1([H:12])[C:5]([H:13])([H:14])[C:6]([H:15])([H:16])[C@:7]21[H:17]>>[C:1]1([H:8])([H:9])[C@@:2]2([H:10])[C@:3]1([H:11])[C:4][C:5]([H:13])([H:14])[C:6]([H:15])([H:16])[C:7]2([H:12])[H:17]"
C        1.25585806      -0.34984541       1.07593708
C        1.24572654       0.60905879      -0.06473303
C        1.17149660      -0.86914191      -0.33747783
C       -0.17400994      -0.93080685      -1.03294846
C       -1.37080773      -0.83861059      -0.07674891
C       -1.35535964       0.67640728       0.19986513
C       -0.10912769       1.04255841      -0.61276521
H        2.21724549      -0.48319614       1.55448977
H        0.41586839      -0.42631171       1.75329855
H        2.12086295       1.21097244      -0.27159740
H        1.99208428      -1.45822863      -0.72691229
H       -0.24825231       0.29907541      -1.62542265
H       -1.22311620      -1.45259492       0.81404380
H       -2.29277141      -1.17153638      -0.55602605
H       -2.23467441       1.15579542      -0.23078911
H       -1.30019488       0.97439934       1.24925443
H       -0.11082810       2.01200544      -1.11146782
17
Frame=2 idx=011160 GeodesicLength=0.1230759657806942 rxn_smarts="[C:1]1([H:8])([H:9])[C@:2]2([H:10])[C@@:3]1([H:11])[C@:4]1([H:12])[C:5]([H:13])([H:14])[C:6]([H:15])([H:16])[C@:7]21[H:17]>>[C:1]1([H:8])([H:9])[C@@:2]2([H:10])[C@:3]1([H:11])[C:4][C:5]([H:13])([H:14])[C:6]([H:15])([H:16])[C:7]2([H:12])[H:17]"
C        1.25910287      -0.34521906       1.07645012
C        1.24550355       0.61080090      -0.06556797
C        1.17353957      -0.87006871      -0.33523617
C       -0.17270133      -0.93803720      -1.02275282
C       -1.37338832      -0.83882482      -0.07536853
C       -1.35454484       0.67601660       0.20275411
C       -0.11048920       1.03905393      -0.61551258
H        2.22082843      -0.47874446       1.55426540
H        0.41985939      -0.42299030       1.75452628
H        2.12113615       1.21066438      -0.27646772
H        1.99607969      -1.45713537      -0.72349889
H       -0.24988864       0.29509002      -1.64412377
H       -1.24412215      -1.45758097       0.81470220
H       -2.28870925      -1.16532290      -0.57252384
H       -2.23584294       1.15810490      -0.22088635
H       -1.29387555       0.97038395       1.25273353
H       -0.11248740       2.01380911      -1.10349299
17
Frame=3 idx=011160 GeodesicLength=0.1846056302344513 rxn_smarts="[C:1]1([H:8])([H:9])[C@:2]2([H:10])[C@@:3]1([H:11])[C@:4]1([H:12])[C:5]([H:13])([H:14])[C:6]([H:15])([H:16])[C@:7]21[H:17]>>[C:1]1([H:8])([H:9])[C@@:2]2([H:10])[C@:3]1([H:11])[C:4][C:5]([H:13])([H:14])[C:6]([H:15])([H:16])[C:7]2([H:12])[H:17]"
C        1.26239391      -0.34055805       1.07696924
C        1.24526841       0.61256692      -0.06638566
C        1.17559603      -0.87096982      -0.33296079
C       -0.17137968      -0.94521901      -1.01241586
C       -1.37599761      -0.83903798      -0.07401901
C       -1.35371228       0.67561006       0.20571480
C       -0.11187226       1.03554008      -0.61822093
H        2.22447169      -0.47423896       1.55402279
H        0.42391506      -0.41965452       1.75577819
H        2.12137223       1.21037459      -0.28134755
H        2.00006615      -1.45599349      -0.72010820
H       -0.25149288       0.29096038      -1.66296538
H       -1.26557170      -1.46250201       0.81501561
H       -2.28437020      -1.15898813      -0.58890206
H       -2.23694800       1.16040660      -0.21085937
H       -1.28754881       0.96628295       1.25626116
H       -0.11419006       2.01542039      -1.09557699
17
Frame=4 idx=011160 GeodesicLength=0.24613085911749397 rxn_smarts="[C:1]1([H:8])([H:9])[C@:2]2([H:10])[C@@:3]1([H:11])[C@:4]1([H:12])[C:5]([H:13])([H:14])[C:6]([H:15])([H:16])[C@:7]21[H:17]>>[C:1]1([H:8])([H:9])[C@@:2]2([H:10])[C@:3]1([H:11])[C:4][C:5]([H:13])([H:14])[C:6]([H:15])([H:16])[C:7]2([H:12])[H:17]"
C        1.26573389      -0.33586122       1.07749490
C        1.24502166       0.61435613      -0.06718665
C        1.17766575      -0.87184565      -0.33065025
C       -0.17004613      -0.95235594      -1.00192910
C       -1.37863553      -0.83925081      -0.07269711
C       -1.35286274       0.67518632       0.20875007
C       -0.11327734       1.03201648      -0.62088462
H        2.22817913      -0.46967886       1.55376022
H        0.42804029      -0.41629957       1.75705762
H        2.12157107       1.21010209      -0.28623959
H        2.00404221      -1.45480438      -0.71674032
H       -0.25306410       0.28668708      -1.68195686
H       -1.28747270      -1.46734976       0.81496839
H       -2.27975240      -1.15253469      -0.60516007
H       -2.23798926       1.16269763      -0.20070703
H       -1.28121633       0.96209326       1.25984041
H       -0.11593746       2.01684189      -1.08772001
17
Frame=5 idx=011160 GeodesicLength=0.3076539620171053 rxn_smarts="[C:1]1([H:8])([H:9])[C@:2]2([H:10])[C@@:3]1([H:11])[C@:4]1([H:12])[C:5]([H:13])([H:14])[C:6]([H:15])([H:16])[C@:7]21[H:17]>>[C:1]1([H:8])([H:9])[C@@:2]2([H:10])[C@:3]1([H:11])[C:4][C:5]([H:13])([H:14])[C:6]([H:15])([H:16])[C:7]2([H:12])[H:17]"
C        1.26912548      -0.33112736       1.07802772
C        1.24476369       0.61616767      -0.06797144
C        1.17974827      -0.87269676      -0.32830294
C       -0.16870162      -0.95945233      -0.99128371
C       -1.38130229      -0.83946395      -0.07139994
C       -1.35199693       0.67474393       0.21186305
C       -0.11470515       1.02848244      -0.62349819
H        2.23195425      -0.46506319       1.55347573
H        0.43223992      -0.41292051       1.75836796
H        2.12173228       1.20984561      -0.29114654
H        2.00800642      -1.45356950      -0.71339505
H       -0.25460119       0.28227196      -1.70110850
H       -1.30983143      -1.47211634       0.81454468
H       -2.27485442      -1.14596452      -0.62129656
H       -2.23896632       1.16497517      -0.19042809
H       -1.27487989       0.95781160       1.26347415
H       -0.11773107       2.01807608      -1.07992234
17
Frame=6 idx=011160 GeodesicLength=0.3691782522529564 rxn_smarts="[C:1]1([H:8])([H:9])[C@:2]2([H:10])[C@@:3]1([H:11])[C@:4]1([H:12])[C:5]([H:13])([H:14])[C:6]([H:15])([H:16])[C@:7]21[H:17]>>[C:1]1([H:8])([H:9])[C@@:2]2([H:10])[C@:3]1([H:11])[C:4][C:5]([H:13])([H:14])[C:6]([H:15])([H:16])[C:7]2([H:12])[H:17]"
C        1.27257116      -0.32635521       1.07856783
C        1.24449460       0.61800060      -0.06874065
C        1.18184289      -0.87352375      -0.32591742
C       -0.16734800      -0.96651175      -0.98046967
C       -1.38399844      -0.83967800      -0.07012568
C       -1.35111612       0.67428121       0.21505652
C       -0.11615663       1.02493749      -0.62605618
H        2.23580069      -0.46039097       1.55316708
H        0.43651868      -0.40951219       1.75971259
H        2.12185520       1.20960376      -0.29607151
H        2.01195678      -1.45229032      -0.71007268
H       -0.25610224       0.27771523      -1.72043155
H       -1.33265591      -1.47679149       0.81372855
H       -2.26967039      -1.13927974      -0.63730960
H       -2.23987853       1.16723592      -0.18002056
H       -1.26854139       0.95343393       1.26716566
H       -0.11957237       2.01912527      -1.07218273
17
Frame=7 idx=011160 GeodesicLength=0.4307008312384548 rxn_smarts="[C:1]1([H:8])([H:9])[C@:2]2([H:10])[C@@:3]1([H:11])[C@:4]1([H:12])[C:5]([H:13])([H:14])[C:6]([H:15])([H:16])[C@:7]21[H:17]>>[C:1]1([H:8])([H:9])[C@@:2]2([H:10])[C@:3]1([H:11])[C:4][C:5]([H:13])([H:14])[C:6]([H:15])([H:16])[C:7]2([H:12])[H:17]"
C        1.27607355      -0.32154348       1.07911587
C        1.24421475       0.61985418      -0.06949468
C        1.18394888      -0.87432719      -0.32349192
C       -0.16598674      -0.97353698      -0.96947866
C       -1.38672462      -0.83989339      -0.06887103
C       -1.35022105       0.67379691       0.21833412
C       -0.11763257       1.02138114      -0.62855315
H        2.23972209      -0.45566109       1.55283247
H        0.44088141      -0.40606936       1.76109500
H        2.12193944       1.20937512      -0.30101745
H        2.01589119      -1.45096880      -0.70677294
H       -0.25756612       0.27301647      -1.73993613
H       -1.35595031      -1.48136689       0.81250320
H       -2.26419830      -1.13248200      -0.65319896
H       -2.24072623       1.16947683      -0.16948270
H       -1.26220249       0.94895686       1.27091855
H       -0.12146287       2.01999168      -1.06450162
17
Frame=8 idx=011160 GeodesicLength=0.492227325437718 rxn_smarts="[C:1]1([H:8])([H:9])[C@:2]2([H:10])[C@@:3]1([H:11])[C@:4]1([H:12])[C:5]([H:13])([H:14])[C:6]([H:15])([H:16])[C@:7]21[H:17]>>[C:1]1([H:8])([H:9])[C@@:2]2([H:10])[C@:3]1([H:11])[C:4][C:5]([H:13])([H:14])[C:6]([H:15])([H:16])[C:7]2([H:12])[H:17]"
C        1.27963550      -0.31669085       1.07967233
C        1.24392422       0.62172711      -0.07023432
C        1.18606555      -0.87510790      -0.32102454
C       -0.16461918      -0.98053220      -0.95829919
C       -1.38948101      -0.84011157      -0.06763263
C       -1.34931264       0.67328881       0.22169931
C       -0.11913406       1.01781203      -0.63098363
H        2.24372246      -0.45087207       1.55246964
H        0.44533345      -0.40258651       1.76251908
H        2.12198407       1.20915775      -0.30598810
H        2.01980752      -1.44960694      -0.70349563
H       -0.25899207       0.26817856      -1.75963449
H       -1.37972373      -1.48582966       0.81084778
H       -2.25843177      -1.12557557      -0.66896202
H       -2.24150915       1.17169500      -0.15881215
H       -1.25586452       0.94437680       1.27473603
H       -0.12340465       2.02067721      -1.05687744
17
Frame=9 idx=011160 GeodesicLength=0.5537486542511159 rxn_smarts="[C:1]1([H:8])([H:9])[C@:2]2([H:10])[C@@:3]1([H:11])[C@:4]1([H:12])[C:5]([H:13])([H:14])[C:6]([H:15])([H:16])[C@:7]21[H:17]>>[C:1]1([H:8])([H:9])[C@@:2]2([H:10])[C@:3]1([H:11])[C:4][C:5]([H:13])([H:14])[C:6]([H:15])([H:16])[C:7]2([H:12])[H:17]"
C        1.28325874      -0.31179656       1.08023778
C        1.24362312       0.62361871      -0.07095964
C        1.18819153      -0.87586670      -0.31851371
C       -0.16324694      -0.98749888      -0.94692455
C       -1.39227012      -0.84033260      -0.06640902
C       -1.34839210       0.67275571       0.22515532
C       -0.12066200       1.01422944      -0.63334232
H        2.24780433      -0.44602334       1.55207743
H        0.44987832      -0.39905888       1.76398789
H        2.12198863       1.20895023      -0.31098604
H        2.02370289      -1.44820734      -0.70024050
H       -0.26037820       0.26320098      -1.77953707
H       -1.40397505      -1.49017237       0.80874687
H       -2.25236709      -1.11856244      -0.68459509
H       -2.24222740       1.17388821      -0.14800708
H       -1.24952888       0.93969068       1.27862100
H       -0.12539979       2.02118517      -1.04931128
17
Frame=10 idx=011160 GeodesicLength=0.6152726208739946 rxn_smarts="[C:1]1([H:8])([H:9])[C@:2]2([H:10])[C@@:3]1([H:11])[C@:4]1([H:12])[C:5]([H:13])([H:14])[C:6]([H:15])([H:16])[C@:7]21[H:17]>>[C:1]1([H:8])([H:9])[C@@:2]2([H:10])[C@:3]1([H:11])[C:4][C:5]([H:13])([H:14])[C:6]([H:15])([H:16])[C:7]2([H:12])[H:17]"
C        1.28694696      -0.30685862       1.08081270
C        1.24331165       0.62552764      -0.07167148
C        1.19032628      -0.87660450      -0.31595696
C       -0.16187136      -0.99444194      -0.93534130
C       -1.39509084      -0.84055836      -0.06519452
C       -1.34746001       0.67219509       0.22870686
C       -0.12221766       1.01063183      -0.63562357
H        2.25197291      -0.44111246       1.55165294
H        0.45452272      -0.39548034       1.76550578
H        2.12195201       1.20875025      -0.31601604
H        2.02757518      -1.44677237      -0.69700681
H       -0.26172293       0.25808522      -1.79965718
H       -1.42871643      -1.49437825       0.80617219
H       -2.24599929      -1.11144792      -0.70009569
H       -2.24288167       1.17605217      -0.13706419
H       -1.24319671       0.93489468       1.28257788
H       -0.12745080       2.02151786      -1.04180060
17
Frame=11 idx=011160 GeodesicLength=0.6767980009776358 rxn_smarts="[C:1]1([H:8])([H:9])[C@:2]2([H:10])[C@@:3]1([H:11])[C@:4]1([H:12])[C:5]([H:13])([H:14])[C:6]([H:15])([H:16])[C@:7]21[H:17]>>[C:1]1([H:8])([H:9])[C@@:2]2([H:10])[C@:3]1([H:11])[C:4][C:5]([H:13])([H:14])[C:6]([H:15])([H:16])[C:7]2([H:12])[H:17]"
C        1.29070231      -0.30187593       1.08139752
C        1.24298989       0.62745279      -0.07237006
C        1.19246855      -0.87732230      -0.31335235
C       -0.16049375      -1.00136401      -0.92353940
C       -1.39794484      -0.84078956      -0.06398783
C       -1.34651773       0.67160519       0.23235760
C       -0.12380196       1.00701830      -0.63782205
H        2.25623142      -0.43613832       1.55119446
H        0.45927093      -0.39184579       1.76707600
H        2.12187350       1.20855571      -0.32108154
H        2.03142154      -1.44530470      -0.69379421
H       -0.26302443       0.25283193      -1.82000821
H       -1.45394914      -1.49843396       0.80310460
H       -2.23932424      -1.10423754      -0.71545999
H       -2.24347280       1.17818493      -0.12598032
H       -1.23686942       0.92998464       1.28661035
H       -0.12955983       2.02167860      -1.03434459
17
Frame=12 idx=011160 GeodesicLength=0.738324357994967 rxn_smarts="[C:1]1([H:8])([H:9])[C@:2]2([H:10])[C@@:3]1([H:11])[C@:4]1([H:12])[C:5]([H:13])([H:14])[C:6]([H:15])([H:16])[C@:7]21[H:17]>>[C:1]1([H:8])([H:9])[C@@:2]2([H:10])[C@:3]1([H:11])[C:4][C:5]([H:13])([H:14])[C:6]([H:15])([H:16])[C:7]2([H:12])[H:17]"
C        1.29452767      -0.29684676       1.08199289
C        1.24265736       0.62939276      -0.07305616
C        1.19461659      -0.87802133      -0.31069721
C       -0.15911622      -1.00826880      -0.91150636
C       -1.40083334      -0.84102795      -0.06278439
C       -1.34556643       0.67098339       0.23611226
C       -0.12541688       1.00338699      -0.63993226
H        2.26058414      -0.43109864       1.55069940
H        0.46412853      -0.38814865       1.76870287
H        2.12175138       1.20836381      -0.32618767
H        2.03523826      -1.44380760      -0.69060182
H       -0.26428120       0.24744167      -1.84060315
H       -1.47967575      -1.50232433       0.79951995
H       -2.23233494      -1.09693291      -0.73068835
H       -2.24400095       1.18028244      -0.11475171
H       -1.23054818       0.92495674       1.29072251
H       -0.13173005       2.02166916      -1.02694080
17
Frame=13 idx=011160 GeodesicLength=0.7998489764230649 rxn_smarts="[C:1]1([H:8])([H:9])[C@:2]2([H:10])[C@@:3]1([H:11])[C@:4]1([H:12])[C:5]([H:13])([H:14])[C:6]([H:15])([H:16])[C@:7]21[H:17]>>[C:1]1([H:8])([H:9])[C@@:2]2([H:10])[C@:3]1([H:11])[C:4][C:5]([H:13])([H:14])[C:6]([H:15])([H:16])[C:7]2([H:12])[H:17]"
C        1.29842574      -0.29176967       1.08259949
C        1.24231415       0.63134640      -0.07373013
C        1.19676922      -0.87870275      -0.30798909
C       -0.15774003      -1.01515870      -0.89923112
C       -1.40375722      -0.84127509      -0.06157916
C       -1.34460693       0.67032782       0.23997569
C       -0.12706360       0.99973638      -0.64194874
H        2.26503496      -0.42599158       1.55016605
H        0.46910071      -0.38438342       1.77039032
H        2.12158467       1.20817235      -0.33133837
H        2.03902236      -1.44228440      -0.68742857
H       -0.26549194       0.24191514      -1.86145588
H       -1.50590017      -1.50603297       0.79538650
H       -2.22502671      -1.08954183      -0.74577234
H       -2.24446747       1.18234208      -0.10337458
H       -1.22423352       0.91980797       1.29491854
H       -0.13396423       2.02149227      -1.01958862
17
Frame=14 idx=011160 GeodesicLength=0.8613717280953906 rxn_smarts="[C:1]1([H:8])([H:9])[C@:2]2([H:10])[C@@:3]1([H:11])[C@:4]1([H:12])[C:5]([H:13])([H:14])[C:6]([H:15])([H:16])[C@:7]21[H:17]>>[C:1]1([H:8])([H:9])[C@@:2]2([H:10])[C@:3]1([H:11])[C:4][C:5]([H:13])([H:14])[C:6]([H:15])([H:16])[C:7]2([H:12])[H:17]"
C        1.30239935      -0.28664299       1.08321773
C        1.24195972       0.63331208      -0.07439266
C        1.19892467      -0.87936801      -0.30522521
C       -0.15636695      -1.02203735      -0.88670031
C       -1.40671762      -0.84153319      -0.06036813
C       -1.34364060       0.66963550       0.24395260
C       -0.12874400       0.99606447      -0.64386607
H        2.26958810      -0.42081481       1.54959153
H        0.47419310      -0.38054359       1.77214247
H        2.12137147       1.20797810      -0.33653890
H        2.04277014      -1.44073853      -0.68427355
H       -0.26665524       0.23625264      -1.88258119
H       -1.53262523      -1.50953965       0.79067574
H       -2.21739128      -1.08206914      -0.76070815
H       -2.24487337       1.18435995      -0.09184453
H       -1.21792655       0.91453405       1.29920280
H       -0.13626572       2.02115047      -1.01228417
17
Frame=15 idx=011160 GeodesicLength=0.9228893086461394 rxn_smarts="[C:1]1([H:8])([H:9])[C@:2]2([H:10])[C@@:3]1([H:11])[C@:4]1([H:12])[C:5]([H:13])([H:14])[C:6]([H:15])([H:16])[C@:7]21[H:17]>>[C:1]1([H:8])([H:9])[C@@:2]2([H:10])[C@:3]1([H:11])[C:4][C:5]([H:13])([H:14])[C:6]([H:15])([H:16])[C:7]2([H:12])[H:17]"
C        1.30645088      -0.28146509       1.08384816
C        1.24159353       0.63528835      -0.07504420
C        1.20108060      -0.88001857      -0.30240276
C       -0.15499904      -1.02890709      -0.87390114
C       -1.40971644      -0.84180380      -0.05914760
C       -1.34266887       0.66890405       0.24804805
C       -0.13045995       0.99236974      -0.64567861
H        2.27424720      -0.41556637       1.54897345
H        0.47941076      -0.37662253       1.77396343
H        2.12111004       1.20777781      -0.34179418
H        2.04647702      -1.43917413      -0.68113554
H       -0.26776958       0.23045407      -1.90399423
H       -1.55984771      -1.51282673       0.78535942
H       -2.20942243      -1.07452035      -0.77549200
H       -2.24521995       1.18633338      -0.08015687
H       -1.21162832       0.90913113       1.30357960
H       -0.13863774       2.02064613      -1.00502498
17
Frame=16 idx=011160 GeodesicLength=0.9843980433980307 rxn_smarts="[C:1]1([H:8])([H:9])[C@:2]2([H:10])[C@@:3]1([H:11])[C@:4]1([H:12])[C:5]([H:13])([H:14])[C:6]([H:15])([H:16])[C@:7]21[H:17]>>[C:1]1([H:8])([H:9])[C@@:2]2([H:10])[C@:3]1([H:11])[C:4][C:5]([H:13])([H:14])[C:6]([H:15])([H:16])[C:7]2([H:12])[H:17]"
C        1.31058294      -0.27623426       1.08449127
C        1.24121471       0.63727352      -0.07568539
C        1.20323470      -0.88065606      -0.29951865
C       -0.15363826      -1.03577078      -0.86082028
C       -1.41275542      -0.84208949      -0.05791252
C       -1.34169325       0.66813038       0.25226764
C       -0.13221379       0.98865002      -0.64738065
H        2.27901640      -0.41024380       1.54830906
H        0.48475928      -0.37261354       1.77585756
H        2.12079806       1.20756796      -0.34710985
H        2.05013855      -1.43759530      -0.67801319
H       -0.26883315       0.22451861      -1.92571065
H       -1.58756652      -1.51587185       0.77940430
H       -2.20111139      -1.06690048      -0.79011851
H       -2.24550861       1.18825866      -0.06830615
H       -1.20533980       0.90359504       1.30805373
H       -0.14108444       2.01998138      -0.99780772
