15
Frame=0 idx=008219 GeodesicLength=0.0 rxn_smarts="[C:1]1([H:8])([H:9])[O:2][C@@:3]2([H:10])[C:4]([H:11])=[C:5]([H:12])[C:6]([H:13])([H:14])[C@@:7]12[H:15]>>[C:1]1([H:9])=[C:7]2[C@@:3]([H:10])([O:2]1)[C:4]([H:11])=[C:5]([H:12])[C:6]2([H:13])[H:14].[H:8][H:15]"
C       -1.35777065      -0.79361258      -0.55289598
O       -0.63084909      -1.85800142      -0.33476060
C        0.12148357      -1.08324577       0.73868381
C        1.52848645      -0.79587333       0.38586737
C        1.64092052       0.42347366      -0.13177271
C        0.34147528       1.16317408      -0.23834963
C       -0.71258863       0.16167237       0.28892772
H       -2.33854575       1.50246819      -0.67113594
H       -2.29035662      -0.80885640      -1.10262215
H       -0.08611098      -1.59126043       1.67715101
H        2.33585977      -1.49732577       0.54722273
H        2.57792067       0.86137840      -0.45519727
H        0.32616355       2.06988608       0.37164097
H        0.10471181       1.47278246      -1.25396890
H       -1.56079991       0.77334047       0.73120961
15
Frame=1 idx=008219 GeodesicLength=0.10066815009312034 rxn_smarts="[C:1]1([H:8])([H:9])[O:2][C@@:3]2([H:10])[C:4]([H:11])=[C:5]([H:12])[C:6]([H:13])([H:14])[C@@:7]12[H:15]>>[C:1]1([H:9])=[C:7]2[C@@:3]([H:10])([O:2]1)[C:4]([H:11])=[C:5]([H:12])[C:6]2([H:13])[H:14].[H:8][H:15]"
C       -1.35538655      -0.77719530      -0.56289921
O       -0.62999352      -1.84975648      -0.34327824
C        0.11845462      -1.08183202       0.73218927
C        1.52866068      -0.79734826       0.38513538
C        1.64784260       0.42301902      -0.12854804
C        0.35170707       1.17092305      -0.22940914
C       -0.70469941       0.16866372       0.28772137
H       -2.35305583       1.44325756      -0.68869354
H       -2.31433767      -0.82337486      -1.06464695
H       -0.08915674      -1.58841720       1.67173741
H        2.33279264      -1.50429087       0.53911877
H        2.58601333       0.85472522      -0.45699958
H        0.34358367       2.07244513       0.38856423
H        0.11993007       1.49232637      -1.24288478
H       -1.58235496       0.79685492       0.71289307
15
Frame=2 idx=008219 GeodesicLength=0.2012035724721698 rxn_smarts="[C:1]1([H:8])([H:9])[O:2][C@@:3]2([H:10])[C:4]([H:11])=[C:5]([H:12])[C:6]([H:13])([H:14])[C@@:7]12[H:15]>>[C:1]1([H:9])=[C:7]2[C@@:3]([H:10])([O:2]1)[C:4]([H:11])=[C:5]([H:12])[C:6]2([H:13])[H:14].[H:8][H:15]"
C       -1.35372541      -0.76158208      -0.57207573
O       -0.62928085      -1.84202842      -0.35105061
C        0.11529464      -1.08039701       0.72601662
C        1.52856149      -0.79882920       0.38421714
C        1.65416177       0.42229038      -0.12612216
C        0.36133090       1.17834960      -0.22047185
C       -0.69723784       0.17527120       0.28650393
H       -2.36616147       1.38621691      -0.70462327
H       -2.33412459      -0.83756951      -1.02872937
H       -0.09201301      -1.58528199       1.66686449
H        2.32960394      -1.51089505       0.53114759
H        2.59328011       0.84794487      -0.45984304
H        0.36064679       2.07440222       0.40566193
H        0.13413375       1.51154654      -1.23155176
H       -1.60447023       0.82056154       0.69405611
15
Frame=3 idx=008219 GeodesicLength=0.301583836714191 rxn_smarts="[C:1]1([H:8])([H:9])[O:2][C@@:3]2([H:10])[C:4]([H:11])=[C:5]([H:12])[C:6]([H:13])([H:14])[C@@:7]12[H:15]>>[C:1]1([H:9])=[C:7]2[C@@:3]([H:10])([O:2]1)[C:4]([H:11])=[C:5]([H:12])[C:6]2([H:13])[H:14].[H:8][H:15]"
C       -1.35273928      -0.74677366      -0.58037468
O       -0.62868460      -1.83483396      -0.35806319
C        0.11206603      -1.07897205       0.72017801
C        1.52824670      -0.80032731       0.38310676
C        1.65992917       0.42131885      -0.12441605
C        0.37038662       1.18543954      -0.21154243
C       -0.69013362       0.18148705       0.28530701
H       -2.37799830       1.33130485      -0.71908474
H       -2.35022066      -0.85130994      -0.99495558
H       -0.09459705      -1.58189072       1.66253900
H        2.32635439      -1.51717304       0.52325893
H        2.59978323       0.84111115      -0.46356408
H        0.37733182       2.07576694       0.42286555
H        0.14740144       1.53037539      -1.22000081
H       -1.62712589       0.84447689       0.67474630
15
Frame=4 idx=008219 GeodesicLength=0.4018796387575965 rxn_smarts="[C:1]1([H:8])([H:9])[O:2][C@@:3]2([H:10])[C:4]([H:11])=[C:5]([H:12])[C:6]([H:13])([H:14])[C@@:7]12[H:15]>>[C:1]1([H:9])=[C:7]2[C@@:3]([H:10])([O:2]1)[C:4]([H:11])=[C:5]([H:12])[C:6]2([H:13])[H:14].[H:8][H:15]"
C       -1.35236086      -0.73275038      -0.58780759
O       -0.62817535      -1.82817731      -0.36434249
C        0.10882434      -1.07758774       0.71466110
C        1.52777396      -0.80185217       0.38179875
C        1.66520878       0.42014275      -0.12333999
C        0.37893182       1.19219673      -0.20261658
C       -0.68331470       0.18730663       0.28413803
H       -2.38867096       1.27845568      -0.73225360
H       -2.36318129      -0.86456057      -0.96320094
H       -0.09685205      -1.57828507       1.65873827
H        2.32309846      -1.52316123       0.51540322
H        2.60560229       0.83429337      -0.46799863
H        0.39364007       2.07655904       0.44014126
H        0.15984297       1.54879281      -1.20825132
H       -1.65036747       0.86862744       0.65493051
15
Frame=5 idx=008219 GeodesicLength=0.5021195036327137 rxn_smarts="[C:1]1([H:8])([H:9])[O:2][C@@:3]2([H:10])[C:4]([H:11])=[C:5]([H:12])[C:6]([H:13])([H:14])[C@@:7]12[H:15]>>[C:1]1([H:9])=[C:7]2[C@@:3]([H:10])([O:2]1)[C:4]([H:11])=[C:5]([H:12])[C:6]2([H:13])[H:14].[H:8][H:15]"
C       -1.35251116      -0.71947911      -0.59443852
O       -0.62771888      -1.82205250      -0.36995342
C        0.10561401      -1.07627258       0.70943004
C        1.52719574      -0.80341012       0.38028526
C        1.67006448       0.41880149      -0.12279919
C        0.38702593       1.19863309      -0.19368414
C       -0.67671447       0.19273008       0.28298048
H       -2.39824425       1.22759944      -0.74433208
H       -2.37359626      -0.87736566      -0.93316378
H       -0.09874641      -1.57451202       1.65540866
H        2.31988530      -1.52888911       0.50753732
H        2.61082081       0.82756313      -0.47296939
H        0.40957289       2.07679694       0.45747625
H        0.17158036       1.56680715      -1.19631031
H       -1.67422810       0.89304976       0.63453282
15
Frame=6 idx=008219 GeodesicLength=0.6023627963497931 rxn_smarts="[C:1]1([H:8])([H:9])[O:2][C@@:3]2([H:10])[C:4]([H:11])=[C:5]([H:12])[C:6]([H:13])([H:14])[C@@:7]12[H:15]>>[C:1]1([H:9])=[C:7]2[C@@:3]([H:10])([O:2]1)[C:4]([H:11])=[C:5]([H:12])[C:6]2([H:13])[H:14].[H:8][H:15]"
C       -1.35314257      -0.70693271      -0.60028019
O       -0.62730873      -1.81645805      -0.37491373
C        0.10247492      -1.07505451       0.70447713
C        1.52655604      -0.80501235       0.37855446
C        1.67454660       0.41732430      -0.12272661
C        0.39471419       1.20475753      -0.18472452
C       -0.67028053       0.19775291       0.28185279
H       -2.40679845       1.17865750      -0.75545640
H       -2.38182491      -0.88970918      -0.90468654
H       -0.10023674      -1.57061092       1.65253490
H        2.31675399      -1.53439348       0.49960491
H        2.61549942       0.82096345      -0.47838018
H        0.42514318       2.07649694       0.47487338
H        0.18269014       1.58442562      -1.18417097
H       -1.69878656       0.91779295       0.61344156
15
Frame=7 idx=008219 GeodesicLength=0.7026737072557644 rxn_smarts="[C:1]1([H:8])([H:9])[O:2][C@@:3]2([H:10])[C:4]([H:11])=[C:5]([H:12])[C:6]([H:13])([H:14])[C@@:7]12[H:15]>>[C:1]1([H:9])=[C:7]2[C@@:3]([H:10])([O:2]1)[C:4]([H:11])=[C:5]([H:12])[C:6]2([H:13])[H:14].[H:8][H:15]"
C       -1.35420713      -0.69507799      -0.60536438
O       -0.62693743      -1.81138689      -0.37925795
C        0.09944093      -1.07396038       0.69978106
C        1.52589327      -0.80667224       0.37659007
C        1.67870266       0.41573748      -0.12305684
C        0.40203802       1.21058006      -0.17571129
C       -0.66396589       0.20237097       0.28076305
H       -2.41438982       1.13155097      -0.76577071
H       -2.38821219      -0.90161610      -0.87752416
H       -0.10129169      -1.56662328       1.65008534
H        2.31374152      -1.53970433       0.49155165
H        2.61969600       0.81453559      -0.48413446
H        0.44035971       2.07566736       0.49235287
H        0.19324738       1.60166898      -1.17181391
H       -1.72411533       0.94292979       0.59150967
15
Frame=8 idx=008219 GeodesicLength=0.8031257363627107 rxn_smarts="[C:1]1([H:8])([H:9])[O:2][C@@:3]2([H:10])[C:4]([H:11])=[C:5]([H:12])[C:6]([H:13])([H:14])[C@@:7]12[H:15]>>[C:1]1([H:9])=[C:7]2[C@@:3]([H:10])([O:2]1)[C:4]([H:11])=[C:5]([H:12])[C:6]2([H:13])[H:14].[H:8][H:15]"
C       -1.35565648      -0.68386998      -0.60971803
O       -0.62659182      -1.80682064      -0.38303034
C        0.09654794      -1.07301712       0.69531776
C        1.52524397      -0.80840233       0.37437413
C        1.68257816       0.41406628      -0.12372548
C        0.40904128       1.21611365      -0.16661055
C       -0.65772027       0.20658396       0.27972970
H       -2.42107083       1.08618369      -0.77541301
H       -2.39311317      -0.91312621      -0.85138711
H       -0.10187613      -1.56259817       1.64801733
H        2.31087827      -1.54485429       0.48331930
H        2.62346846       0.80831797      -0.49013518
H        0.45524041       2.07431926       0.50994701
H        0.20332489       1.61856469      -1.15920880
H       -1.75029467       0.96853925       0.56852328
15
Frame=9 idx=008219 GeodesicLength=0.9036406827922522 rxn_smarts="[C:1]1([H:8])([H:9])[O:2][C@@:3]2([H:10])[C:4]([H:11])=[C:5]([H:12])[C:6]([H:13])([H:14])[C@@:7]12[H:15]>>[C:1]1([H:9])=[C:7]2[C@@:3]([H:10])([O:2]1)[C:4]([H:11])=[C:5]([H:12])[C:6]2([H:13])[H:14].[H:8][H:15]"
C       -1.35742959      -0.67329458      -0.61332499
O       -0.62628949      -1.80277468      -0.38619923
C        0.09381846      -1.07223409       0.69108247
C        1.52460991      -0.81021673       0.37186892
C        1.68618715       0.41232440      -0.12470025
C        0.41576119       1.22137268      -0.15737629
C       -0.65151889       0.21039524       0.27875908
H       -2.42692580       1.04245960      -0.78419966
H       -2.39671415      -0.92424029      -0.82617065
H       -0.10194578      -1.55853317       1.64632148
H        2.30816154      -1.54986257       0.47485885
H        2.62683903       0.80232215      -0.49632480
H        0.46982909       2.07245688       0.52771587
H        0.21297713       1.63515879      -1.14629968
H       -1.77735980       0.99466636       0.54398885
15
Frame=10 idx=008219 GeodesicLength=1.004309836363826 rxn_smarts="[C:1]1([H:8])([H:9])[O:2][C@@:3]2([H:10])[C:4]([H:11])=[C:5]([H:12])[C:6]([H:13])([H:14])[C@@:7]12[H:15]>>[C:1]1([H:9])=[C:7]2[C@@:3]([H:10])([O:2]1)[C:4]([H:11])=[C:5]([H:12])[C:6]2([H:13])[H:14].[H:8][H:15]"
C       -1.35951148      -0.66327484      -0.61624157
O       -0.62600641      -1.79919427      -0.38887733
C        0.09128933      -1.07165349       0.68703351
C        1.52404774      -0.81212391       0.36906227
C        1.68958896       0.41054856      -0.12589380
C        0.42222820       1.22636601      -0.14796819
C       -0.64530886       0.21380013       0.27789569
H       -2.43194184       1.00028224      -0.79264858
H       -2.39946307      -0.93505301      -0.80134548
H       -0.10147532      -1.55453695       1.64492286
H        2.30564407      -1.55476623       0.46607029
H        2.62988084       0.79662126      -0.50258255
H        0.48410700       2.07008491       0.54568974
H        0.22226530       1.65146818      -1.13305138
H       -1.80534447       1.02143141       0.51793454
15
Frame=11 idx=008219 GeodesicLength=1.1051165987664364 rxn_smarts="[C:1]1([H:8])([H:9])[O:2][C@@:3]2([H:10])[C:4]([H:11])=[C:5]([H:12])[C:6]([H:13])([H:14])[C@@:7]12[H:15]>>[C:1]1([H:9])=[C:7]2[C@@:3]([H:10])([O:2]1)[C:4]([H:11])=[C:5]([H:12])[C:6]2([H:13])[H:14].[H:8][H:15]"
C       -1.36189613      -0.65379426      -0.61842112
O       -0.62576700      -1.79608270      -0.39104173
C        0.08898881      -1.07129933       0.68317932
C        1.52357832      -0.81413861       0.36591818
C        1.69279570       0.40875159      -0.12728089
C        0.42845428       1.23109564      -0.13833828
C       -0.63906490       0.21678931       0.27718897
H       -2.43612299       0.95957967      -0.80091115
H       -2.40148679      -0.94553056      -0.77677978
H       -0.10040633      -1.55064418       1.64382752
H        2.30334539      -1.55959101       0.45685669
H        2.63260454       0.79124330      -0.50887880
H        0.49808452       2.06719792       0.56391940
H        0.23119325       1.66751175      -1.11940489
H       -1.83430068       1.04891147       0.49016653
15
Frame=12 idx=008219 GeodesicLength=1.2059863156464012 rxn_smarts="[C:1]1([H:8])([H:9])[O:2][C@@:3]2([H:10])[C:4]([H:11])=[C:5]([H:12])[C:6]([H:13])([H:14])[C@@:7]12[H:15]>>[C:1]1([H:9])=[C:7]2[C@@:3]([H:10])([O:2]1)[C:4]([H:11])=[C:5]([H:12])[C:6]2([H:13])[H:14].[H:8][H:15]"
C       -1.36457439      -0.64481319      -0.61982460
O       -0.62560294      -1.79342750      -0.39267493
C        0.08693865      -1.07119137       0.67952452
C        1.52321280      -0.81627343       0.36239765
C        1.69581768       0.40695151      -0.12883170
C        0.43445262       1.23557173      -0.12842789
C       -0.63276766       0.21936283       0.27669872
H       -2.43945846       0.92021528      -0.80916604
H       -2.40293409      -0.95564371      -0.75228202
H       -0.09868321      -1.54689484       1.64302890
H        2.30126879      -1.56436521       0.44711088
H        2.63502282       0.78621643      -0.51518858
H        0.51178141       2.06379337       0.58247078
H        0.23976707       1.68332655      -1.10528751
H       -1.86424110       1.07717154       0.46045182
15
Frame=13 idx=008219 GeodesicLength=1.306889249224671 rxn_smarts="[C:1]1([H:8])([H:9])[O:2][C@@:3]2([H:10])[C:4]([H:11])=[C:5]([H:12])[C:6]([H:13])([H:14])[C@@:7]12[H:15]>>[C:1]1([H:9])=[C:7]2[C@@:3]([H:10])([O:2]1)[C:4]([H:11])=[C:5]([H:12])[C:6]2([H:13])[H:14].[H:8][H:15]"
C       -1.36753361      -0.63630759      -0.62041551
O       -0.62554623      -1.79123124      -0.39374735
C        0.08516433      -1.07135433       0.67607833
C        1.52296851      -0.81854419       0.35845861
C        1.69866503       0.40516198      -0.13052081
C        0.44023153       1.23979595      -0.11817778
C       -0.62639907       0.22151009       0.27648225
H       -2.44194956       0.88209452      -0.81755632
H       -2.40392299      -0.96535595      -0.72767492
H       -0.09624471      -1.54332663       1.64253222
H        2.29943016      -1.56911467       0.43671843
H        2.63714265       0.78157183      -0.52148874
H        0.52520967       2.05985706       0.60141217
H        0.24798278       1.69894103      -1.09062240
H       -1.89519850       1.10630215       0.42852182
15
Frame=14 idx=008219 GeodesicLength=1.4077933029770064 rxn_smarts="[C:1]1([H:8])([H:9])[O:2][C@@:3]2([H:10])[C:4]([H:11])=[C:5]([H:12])[C:6]([H:13])([H:14])[C@@:7]12[H:15]>>[C:1]1([H:9])=[C:7]2[C@@:3]([H:10])([O:2]1)[C:4]([H:11])=[C:5]([H:12])[C:6]2([H:13])[H:14].[H:8][H:15]"
C       -1.37075950      -0.62824492      -0.62012436
O       -0.62563132      -1.78949098      -0.39420920
C        0.08369735      -1.07181285       0.67286462
C        1.52285949      -0.82096550       0.35406239
C        1.70134511       0.40339522      -0.13232416
C        0.44580154       1.24376784      -0.10751657
C       -0.61993655       0.22322348       0.27662728
H       -2.44365922       0.84514843      -0.82607035
H       -2.40452038      -0.97460240      -0.70284964
H       -0.09301275      -1.53998354       1.64235373
H        2.29783302      -1.57386570       0.42556011
H        2.63896487       0.77733148      -0.52778004
H        0.53840020       2.05537446       0.62081847
H        0.25582822       1.71437793      -1.07531763
H       -1.92721008       1.13634706       0.39390535
15
Frame=15 idx=008219 GeodesicLength=1.5085979684566448 rxn_smarts="[C:1]1([H:8])([H:9])[O:2][C@@:3]2([H:10])[C:4]([H:11])=[C:5]([H:12])[C:6]([H:13])([H:14])[C@@:7]12[H:15]>>[C:1]1([H:9])=[C:7]2[C@@:3]([H:10])([O:2]1)[C:4]([H:11])=[C:5]([H:12])[C:6]2([H:13])[H:14].[H:8][H:15]"
C       -1.37423122      -0.62059389      -0.61889727
O       -0.62589344      -1.78820669      -0.39401595
C        0.08256542      -1.07259175       0.66990332
C        1.52290030      -0.82354945       0.34916905
C        1.70386329       0.40166693      -0.13421389
C        0.45116869       1.24748593      -0.09636832
C       -0.61336377       0.22449244       0.27721708
H       -2.44466034       0.80931496      -0.83470712
H       -2.40481809      -0.98332047      -0.67765403
H       -0.08891341      -1.53691193       1.64250449
H        2.29648452      -1.57863859       0.41350953
H        2.64048378       0.77352588      -0.53405512
H        0.55137443       2.05032580       0.64077177
H        0.26328918       1.72966258      -1.05927529
H       -1.96024935       1.16733824       0.35611175
15
Frame=16 idx=008219 GeodesicLength=1.609234597447875 rxn_smarts="[C:1]1([H:8])([H:9])[O:2][C@@:3]2([H:10])[C:4]([H:11])=[C:5]([H:12])[C:6]([H:13])([H:14])[C@@:7]12[H:15]>>[C:1]1([H:9])=[C:7]2[C@@:3]([H:10])([O:2]1)[C:4]([H:11])=[C:5]([H:12])[C:6]2([H:13])[H:14].[H:8][H:15]"
C       -1.37792087      -0.61331424      -0.61667989
O       -0.62636720      -1.78737360      -0.39311818
C        0.08179892      -1.07371605       0.66721622
C        1.52310444      -0.82630835       0.34373762
C        1.70622632       0.39999273      -0.13615530
C        0.45633964       1.25094884      -0.08464717
C       -0.60666406       0.22530807       0.27834560
H       -2.44507084       0.77452944      -0.84340180
H       -2.40489639      -0.99144526      -0.65193696
H       -0.08386610      -1.53416222       1.64299332
H        2.29538710      -1.58345562       0.40042631
H        2.64169003       0.77018261      -0.54031226
H        0.56415670       2.04468852       0.66136557
H        0.27035034       1.74482257      -1.04238545
H       -1.99426804       1.19930257       0.31455238
