16
Frame=0 idx=010646 GeodesicLength=0.0 rxn_smarts="[C:1]([C@@:2]1([H:11])[N:3]([H:12])[C:4](=[O:5])[C@:6]1([C:7]([H:14])([H:15])[H:16])[H:13])([H:8])([H:9])[H:10]>>[C:1]([C:2]1=[N:3][C:4](=[O:5])[C@:6]1([C:7]([H:14])([H:15])[H:16])[H:13])([H:8])([H:9])[H:10].[H:11][H:12]"
C        1.59132607      -0.86610242      -0.11181833
C        0.55070066      -0.05472060       0.59776908
N        0.78291518       1.35224526       0.86975412
C       -0.52333166       1.63721007       0.51771120
O       -1.13937416       2.66501909       0.45402697
C       -0.90587889       0.17106478       0.18878622
C       -1.27418366      -0.15986971      -1.24321120
H        1.66782668      -0.45996035      -1.12132273
H        1.33033956      -1.92353726      -0.17224053
H        2.56133749      -0.74574029       0.36923480
H        0.45844568      -0.78107189       1.73863326
H        0.67639854       0.11395872       1.85242772
H       -1.63454986      -0.24788090       0.88689107
H       -0.56154604       0.26845722      -1.94963418
H       -2.25123186       0.26873892      -1.46625918
H       -1.32919378      -1.23781063      -1.41074830
16
Frame=1 idx=010646 GeodesicLength=0.12208895077033174 rxn_smarts="[C:1]([C@@:2]1([H:11])[N:3]([H:12])[C:4](=[O:5])[C@:6]1([C:7]([H:14])([H:15])[H:16])[H:13])([H:8])([H:9])[H:10]>>[C:1]([C:2]1=[N:3][C:4](=[O:5])[C@:6]1([C:7]([H:14])([H:15])[H:16])[H:13])([H:8])([H:9])[H:10].[H:11][H:12]"
C        1.59290452      -0.86095399      -0.11728432
C        0.55021914      -0.05807810       0.59946078
N        0.77895469       1.34307538       0.88129214
C       -0.52093416       1.63762900       0.50962330
O       -1.12943138       2.66912291       0.44218487
C       -0.90457385       0.17187289       0.18350854
C       -1.27747103      -0.15957705      -1.24700181
H        1.66230354      -0.46332026      -1.13061467
H        1.33816740      -1.92043364      -0.16997908
H        2.56655444      -0.73416674       0.35480586
H        0.46263972      -0.79585843       1.75689300
H        0.67177183       0.11234274       1.89114913
H       -1.63670632      -0.24052096       0.88198986
H       -0.56771190       0.26939798      -1.95591200
H       -2.25576150       0.26740890      -1.46786252
H       -1.33092514      -1.23794063      -1.41225308
16
Frame=2 idx=010646 GeodesicLength=0.24373551490216422 rxn_smarts="[C:1]([C@@:2]1([H:11])[N:3]([H:12])[C:4](=[O:5])[C@:6]1([C:7]([H:14])([H:15])[H:16])[H:13])([H:8])([H:9])[H:10]>>[C:1]([C:2]1=[N:3][C:4](=[O:5])[C@:6]1([C:7]([H:14])([H:15])[H:16])[H:13])([H:8])([H:9])[H:10].[H:11][H:12]"
C        1.59460311      -0.85584075      -0.12291461
C        0.54968570      -0.06160744       0.60058686
N        0.77467664       1.33352673       0.89314932
C       -0.51828970       1.63792947       0.50140415
O       -1.11908854       2.67313419       0.43041403
C       -0.90332513       0.17263367       0.17805238
C       -1.28093839      -0.15919206      -1.25095880
H        1.65676568      -0.46712949      -1.14012040
H        1.34650931      -1.91740464      -0.16742801
H        2.57170358      -0.72210423       0.34022837
H        0.46746560      -0.81046266       1.77556963
H        0.66655555       0.11104159       1.93098589
H       -1.63874791      -0.23325859       0.87698195
H       -0.57411089       0.27037461      -1.96242260
H       -2.26043045       0.26631316      -1.46951417
H       -1.33303415      -1.23795355      -1.41401400
16
Frame=3 idx=010646 GeodesicLength=0.3651557480996852 rxn_smarts="[C:1]([C@@:2]1([H:11])[N:3]([H:12])[C:4](=[O:5])[C@:6]1([C:7]([H:14])([H:15])[H:16])[H:13])([H:8])([H:9])[H:10]>>[C:1]([C:2]1=[N:3][C:4](=[O:5])[C@:6]1([C:7]([H:14])([H:15])[H:16])[H:13])([H:8])([H:9])[H:10].[H:11][H:12]"
C        1.59643398      -0.85079024      -0.12874203
C        0.54909624      -0.06534144       0.60108241
N        0.77004686       1.32353118       0.90534901
C       -0.51538858       1.63808193       0.49307286
O       -1.10832115       2.67703049       0.41874643
C       -0.90214603       0.17333019       0.17239612
C       -1.28459757      -0.15869836      -1.25511048
H        1.65120594      -0.47145838      -1.14987437
H        1.35540630      -1.91446719      -0.16457017
H        2.57677926      -0.70954053       0.32545165
H        0.47303666      -0.82476266       1.79473587
H        0.66067115       0.11014750       1.97211594
H       -1.64067908      -0.22612976       0.87184706
H       -0.58075240       0.27141364      -1.96918487
H       -2.26524605       0.26548309      -1.47123331
H       -1.33554553      -1.23782946      -1.41608211
16
Frame=4 idx=010646 GeodesicLength=0.48656422859489884 rxn_smarts="[C:1]([C@@:2]1([H:11])[N:3]([H:12])[C:4](=[O:5])[C@:6]1([C:7]([H:14])([H:15])[H:16])[H:13])([H:8])([H:9])[H:10]>>[C:1]([C:2]1=[N:3][C:4](=[O:5])[C@:6]1([C:7]([H:14])([H:15])[H:16])[H:13])([H:8])([H:9])[H:10].[H:11][H:12]"
C        1.59840826      -0.84583446      -0.13480922
C        0.54844560      -0.06932036       0.60087838
N        0.76502580       1.31300185       0.91792192
C       -0.51221863       1.63804897       0.48465331
O       -1.09709083       2.68078633       0.40721373
C       -0.90105104       0.17394065       0.16651583
C       -1.28846138      -0.15807667      -1.25948799
H        1.64561236      -0.47638510      -1.15991797
H        1.36491289      -1.91163805      -0.16138763
H        2.58177469      -0.69645440       0.31041202
H        0.47947934      -0.83862428       1.81448428
H        0.65401893       0.10977446       2.01473602
H       -1.64250672      -0.21917732       0.86656124
H       -0.58764543       0.27254689      -1.97621785
H       -2.27021564       0.26495574      -1.47304013
H       -1.33848822      -1.23754425      -1.41851593
16
Frame=5 idx=010646 GeodesicLength=0.6081144605277025 rxn_smarts="[C:1]([C@@:2]1([H:11])[N:3]([H:12])[C:4](=[O:5])[C@:6]1([C:7]([H:14])([H:15])[H:16])[H:13])([H:8])([H:9])[H:10]>>[C:1]([C:2]1=[N:3][C:4](=[O:5])[C@:6]1([C:7]([H:14])([H:15])[H:16])[H:13])([H:8])([H:9])[H:10].[H:11][H:12]"
C        1.60053196      -0.84101378      -0.14115870
C        0.54773273      -0.07358507       0.59990237
N        0.75957433       1.30185414       0.93088077
C       -0.50877404       1.63779204       0.47618036
O       -1.08538570       2.68436738       0.39587670
C       -0.90005361       0.17444040       0.16038355
C       -1.29254241      -0.15730134      -1.26413069
H        1.63997395      -0.48200521      -1.17029264
H        1.37507029      -1.90894265      -0.15784555
H        2.58669009      -0.68283531       0.29505124
H        0.48691705      -0.85188919       1.83491805
H        0.64653142       0.11005095       2.05903607
H       -1.64423304      -0.21245774       0.86109426
H       -0.59479942       0.27381966      -1.98354500
H       -2.27534784       0.26477415      -1.47496043
H       -1.34188575      -1.23706844      -1.42139038
16
Frame=6 idx=010646 GeodesicLength=0.7299819743856042 rxn_smarts="[C:1]([C@@:2]1([H:11])[N:3]([H:12])[C:4](=[O:5])[C@:6]1([C:7]([H:14])([H:15])[H:16])[H:13])([H:8])([H:9])[H:10]>>[C:1]([C:2]1=[N:3][C:4](=[O:5])[C@:6]1([C:7]([H:14])([H:15])[H:16])[H:13])([H:8])([H:9])[H:10].[H:11][H:12]"
C        1.60281599      -0.83637765      -0.14784608
C        0.54695097      -0.07819494       0.59807079
N        0.75363930       1.28995573       0.94426881
C       -0.50504203       1.63725237       0.46769753
O       -1.07315341       2.68773000       0.38479546
C       -0.89916991       0.17479258       0.15396787
C       -1.29685234      -0.15634148      -1.26908348
H        1.63426190      -0.48844244      -1.18105306
H        1.38595331      -1.90640159      -0.15390982
H        2.59150658      -0.66865381       0.27925980
H        0.49553244      -0.86433360       1.85616378
H        0.63806036       0.11113964       2.10526833
H       -1.64586833      -0.20604068       0.85540915
H       -0.60221950       0.27528746      -1.99119019
H       -2.28064681       0.26499188      -1.47702249
H       -1.34576853      -1.23636347      -1.42479642
16
Frame=7 idx=010646 GeodesicLength=0.85217733412096 rxn_smarts="[C:1]([C@@:2]1([H:11])[N:3]([H:12])[C:4](=[O:5])[C@:6]1([C:7]([H:14])([H:15])[H:16])[H:13])([H:8])([H:9])[H:10]>>[C:1]([C:2]1=[N:3][C:4](=[O:5])[C@:6]1([C:7]([H:14])([H:15])[H:16])[H:13])([H:8])([H:9])[H:10].[H:11][H:12]"
C        1.60526279      -0.83197837      -0.15492571
C        0.54609562      -0.08321304       0.59531827
N        0.74717377       1.27717808       0.95811270
C       -0.50101382       1.63636862       0.45925724
O       -1.06035562       2.69082541       0.37404265
C       -0.89841296       0.17495872       0.14724059
C       -1.30139858      -0.15516523      -1.27438894
H        1.62844725      -0.49581694      -1.19224880
H        1.39762193      -1.90403430      -0.14955759
H        2.59620878      -0.65388940       0.26293798
H        0.50549158      -0.87571797       1.87834684
H        0.62847394       0.11320324       2.15364540
H       -1.64742104      -0.20000153       0.84946629
H       -0.60990345       0.27700919      -1.99916946
H       -2.28611275       0.26566282      -1.47925287
H       -1.35015744      -1.23538930      -1.42882459
16
Frame=8 idx=010646 GeodesicLength=0.9746933303281502 rxn_smarts="[C:1]([C@@:2]1([H:11])[N:3]([H:12])[C:4](=[O:5])[C@:6]1([C:7]([H:14])([H:15])[H:16])[H:13])([H:8])([H:9])[H:10]>>[C:1]([C:2]1=[N:3][C:4](=[O:5])[C@:6]1([C:7]([H:14])([H:15])[H:16])[H:13])([H:8])([H:9])[H:10].[H:11][H:12]"
C        1.60787856      -0.82788192      -0.16245452
C        0.54516920      -0.08871459       0.59156559
N        0.74012002       1.26336844       0.97243451
C       -0.49668938       1.63506626       0.45093610
O       -1.04696133       2.69359625       0.36373931
C       -0.89779581       0.17488716       0.14016701
C       -1.30618695      -0.15372931      -1.28010502
H        1.62249142      -0.50430355      -1.20393415
H        1.41014662      -1.90186229      -0.14473087
H        2.60077254      -0.63852605       0.24594898
H        0.51698330      -0.88572665       1.90162150
H        0.61763124       0.11643972       2.20438975
H       -1.64889689      -0.19444433       0.84321968
H       -0.61784857       0.27907132      -2.00750704
H       -2.29174623       0.26685483      -1.48168835
H       -1.35506774      -1.23409530      -1.43360249
16
Frame=9 idx=010646 GeodesicLength=1.0972421772471166 rxn_smarts="[C:1]([C@@:2]1([H:11])[N:3]([H:12])[C:4](=[O:5])[C@:6]1([C:7]([H:14])([H:15])[H:16])[H:13])([H:8])([H:9])[H:10]>>[C:1]([C:2]1=[N:3][C:4](=[O:5])[C@:6]1([C:7]([H:14])([H:15])[H:16])[H:13])([H:8])([H:9])[H:10].[H:11][H:12]"
C        1.61066105      -0.82419005      -0.17053919
C        0.54413466      -0.09482321       0.58668870
N        0.73236991       1.24816897       0.98742252
C       -0.49200847       1.63317185       0.44281077
O       -1.03280479       2.69588846       0.35397285
C       -0.89734120       0.17449024       0.13270047
C       -1.31122751      -0.15196520      -1.28628047
H        1.61628901      -0.51414222      -1.21618698
H        1.42367711      -1.89991288      -0.13939707
H        2.60517096      -0.62249934       0.22808610
H        0.53050344      -0.89353130       1.92602394
H        0.60502961       0.12099521       2.25792391
H       -1.65031770      -0.18953283       0.83657981
H       -0.62603410       0.28157044      -2.01620331
H       -2.29752824       0.26868582      -1.48433541
H       -1.36057374      -1.23237397      -1.43926664
16
Frame=10 idx=010646 GeodesicLength=1.2199120532092695 rxn_smarts="[C:1]([C@@:2]1([H:11])[N:3]([H:12])[C:4](=[O:5])[C@:6]1([C:7]([H:14])([H:15])[H:16])[H:13])([H:8])([H:9])[H:10]>>[C:1]([C:2]1=[N:3][C:4](=[O:5])[C@:6]1([C:7]([H:14])([H:15])[H:16])[H:13])([H:8])([H:9])[H:10].[H:11][H:12]"
C        1.61358852      -0.82095959      -0.17917820
C        0.54300983      -0.10156596       0.58068639
N        0.72391079       1.23159738       1.00288494
C       -0.48705527       1.63067662       0.43499425
O       -1.01802531       2.69768828       0.34496882
C       -0.89705874       0.17373951       0.12481345
C       -1.31650230      -0.14982428      -1.29299133
H        1.60981575      -0.52553816      -1.22901024
H        1.43823880      -1.89819769      -0.13341658
H        2.60934153      -0.60580494       0.20923460
H        0.54591479      -0.89920756       1.95183442
H        0.59100701       0.12710722       2.31419844
H       -1.65169247      -0.18535162       0.82950631
H       -0.63443069       0.28462676      -2.02528262
H       -2.30345095       0.27120335      -1.48727381
H       -1.36661127      -1.23018933      -1.44596883
16
Frame=11 idx=010646 GeodesicLength=1.3426771640870552 rxn_smarts="[C:1]([C@@:2]1([H:11])[N:3]([H:12])[C:4](=[O:5])[C@:6]1([C:7]([H:14])([H:15])[H:16])[H:13])([H:8])([H:9])[H:10]>>[C:1]([C:2]1=[N:3][C:4](=[O:5])[C@:6]1([C:7]([H:14])([H:15])[H:16])[H:13])([H:8])([H:9])[H:10].[H:11][H:12]"
C        1.61663322      -0.81827876      -0.18840900
C        0.54177252      -0.10900543       0.57350797
N        0.71468526       1.21350054       1.01878151
C       -0.48187561       1.62749043       0.42759411
O       -1.00266603       2.69889924       0.33692111
C       -0.89697060       0.17257675       0.11646296
C       -1.32199550      -0.14723695      -1.30030999
H        1.60299500      -0.53873163      -1.24243575
H        1.45390119      -1.89675408      -0.12668566
H        2.61322096      -0.58841996       0.18924925
H        0.56334279      -0.90242287       1.97922546
H        0.57565120       0.13501019       2.37337096
H       -1.65304885      -0.18204068       0.82191754
H       -0.64299453       0.28837486      -2.03475334
H       -2.30949028       0.27449182      -1.49056383
H       -1.37316074      -1.22745344      -1.45387332
16
Frame=12 idx=010646 GeodesicLength=1.4654413358970972 rxn_smarts="[C:1]([C@@:2]1([H:11])[N:3]([H:12])[C:4](=[O:5])[C@:6]1([C:7]([H:14])([H:15])[H:16])[H:13])([H:8])([H:9])[H:10]>>[C:1]([C:2]1=[N:3][C:4](=[O:5])[C@:6]1([C:7]([H:14])([H:15])[H:16])[H:13])([H:8])([H:9])[H:10].[H:11][H:12]"
C        1.61976104      -0.81624040      -0.19826832
C        0.54040199      -0.11721410       0.56511574
N        0.70463858       1.19371102       1.03506262
C       -0.47652894       1.62351125       0.42073704
O       -0.98678158       2.69942083       0.33006183
C       -0.89709842       0.17093477       0.10760740
C       -1.32768482      -0.14412617      -1.30831406
H        1.59574066      -0.55401631      -1.25646971
H        1.47075217      -1.89558246      -0.11908405
H        2.61672876      -0.57031684       0.16795608
H        0.58286343      -0.90280401       2.00836098
H        0.55910026       0.14494708       2.43556034
H       -1.65441732      -0.17975757       0.81372697
H       -0.65166686       0.29296092      -2.04461901
H       -2.31561437       0.27864460      -1.49427188
H       -1.38019459      -1.22407261      -1.46316197
16
Frame=13 idx=010646 GeodesicLength=1.5881512901389683 rxn_smarts="[C:1]([C@@:2]1([H:11])[N:3]([H:12])[C:4](=[O:5])[C@:6]1([C:7]([H:14])([H:15])[H:16])[H:13])([H:8])([H:9])[H:10]>>[C:1]([C:2]1=[N:3][C:4](=[O:5])[C@:6]1([C:7]([H:14])([H:15])[H:16])[H:13])([H:8])([H:9])[H:10].[H:11][H:12]"
C        1.62293378      -0.81493962      -0.20877752
C        0.53888120      -0.12624331       0.55548062
N        0.69372461       1.17208655       1.05165591
C       -0.47109087       1.61864784       0.41455218
O       -0.97047278       2.69914759       0.32463734
C       -0.89745993       0.16875265       0.09820714
C       -1.33353757      -0.14041529      -1.31707842
H        1.58797564      -0.57167278      -1.27110950
H        1.48884695      -1.89468033      -0.11049798
H        2.61977761      -0.55148926       0.14520194
H        0.60446632      -0.90002169       2.03938446
H        0.54160659       0.15716447       2.50085690
H       -1.65582324      -0.17866284       0.80484599
H       -0.66037941       0.29853601      -2.05487925
H       -2.32178544       0.28374318      -1.49846663
H       -1.38766348      -1.21995317      -1.47401317
16
Frame=14 idx=010646 GeodesicLength=1.7107026766515374 rxn_smarts="[C:1]([C@@:2]1([H:11])[N:3]([H:12])[C:4](=[O:5])[C@:6]1([C:7]([H:14])([H:15])[H:16])[H:13])([H:8])([H:9])[H:10]>>[C:1]([C:2]1=[N:3][C:4](=[O:5])[C@:6]1([C:7]([H:14])([H:15])[H:16])[H:13])([H:8])([H:9])[H:10].[H:11][H:12]"
C        1.62609717      -0.81446370      -0.21994487
C        0.53717626      -0.13615522       0.54461087
N        0.68189441       1.14849348       1.06847577
C       -0.46566192       1.61280843       0.40917803
O       -0.95387466       2.69797171       0.32091742
C       -0.89808179       0.16596758       0.08822385
C       -1.33950812      -0.13602470      -1.32668340
H        1.57961277      -0.59201406      -1.28629809
H        1.50826892      -1.89400612      -0.10079472
H        2.62223609      -0.53191610       0.12081382
H        0.62801120      -0.89379888       2.07240354
H        0.52362754       0.17192614       2.56929184
H       -1.65731547      -0.17891605       0.79517946
H       -0.66903000       0.30524868      -2.06552276
H       -2.32794688       0.28987699      -1.50323896
H       -1.39550552      -1.21499818      -1.48661182
16
Frame=15 idx=010646 GeodesicLength=1.8330629654886 rxn_smarts="[C:1]([C@@:2]1([H:11])[N:3]([H:12])[C:4](=[O:5])[C@:6]1([C:7]([H:14])([H:15])[H:16])[H:13])([H:8])([H:9])[H:10]>>[C:1]([C:2]1=[N:3][C:4](=[O:5])[C@:6]1([C:7]([H:14])([H:15])[H:16])[H:13])([H:8])([H:9])[H:10].[H:11][H:12]"
C        1.62919351      -0.81489210      -0.23176067
C        0.53525134      -0.14698464       0.53252422
N        0.66910453       1.12282388       1.08542504
C       -0.46035974       1.60590924       0.40474270
O       -0.93716072       2.69578535       0.31916510
C       -0.89899051       0.16252482       0.07762185
C       -1.34554262      -0.13088061      -1.33720362
H        1.57058383      -0.61530768      -1.30195912
H        1.52906649      -1.89349961      -0.08986772
H        2.62397168      -0.51160722       0.09466731
H        0.65323958      -0.88396906       2.10748282
H        0.50577480       0.18952993       2.64087800
H       -1.65894360      -0.18067245       0.78463014
H       -0.67750887       0.31324102      -2.07653493
H       -2.33403815       0.29711488      -1.50868061
H       -1.40364155      -1.20911578      -1.50113052
16
Frame=16 idx=010646 GeodesicLength=1.9552125769330448 rxn_smarts="[C:1]([C@@:2]1([H:11])[N:3]([H:12])[C:4](=[O:5])[C@:6]1([C:7]([H:14])([H:15])[H:16])[H:13])([H:8])([H:9])[H:10]>>[C:1]([C:2]1=[N:3][C:4](=[O:5])[C@:6]1([C:7]([H:14])([H:15])[H:16])[H:13])([H:8])([H:9])[H:10].[H:11][H:12]"
C        1.63215835      -0.81628417      -0.24419717
C        0.53306077      -0.15876050       0.51926635
N        0.65530288       1.09498546       1.10240407
C       -0.45531914       1.59787687       0.40137025
O       -0.92053252       2.69248932       0.31963998
C       -0.90021792       0.15837407       0.06636819
C       -1.35157635      -0.12491601      -1.34871469
H        1.56082741      -0.64181714      -1.31796880
H        1.55128400      -1.89306392      -0.07761975
H        2.62482534      -0.49055713       0.06664606
H        0.67975097      -0.87050847       2.14463075
H        0.48885518       0.21032331       2.71560859
H       -1.66077181      -0.18407902       0.77309885
H       -0.68568213       0.32264061      -2.08789645
H       -2.33998528       0.30551995      -1.51490110
H       -1.41197976      -1.20222321      -1.51773514
