11
Frame=0 idx=004434 GeodesicLength=0.0 rxn_smarts="[C:1]([C@@:2]([C:3]#[C:4][H:11])([C:5]#[N:6])[H:10])([H:7])([H:8])[H:9]>>[C+:2]([C:3]#[C:4][H:11])=[C:5]=[N-:6].[C:1]([H:7])([H:8])([H:9])[H:10]"
C       -1.35656995      -0.72581338      -0.18756954
C        0.27860739       0.64186542       0.75499076
C        1.40818924      -0.02055157       0.29252058
C        2.41709187      -0.60861313      -0.01230306
C       -0.15404263       1.83221146       0.13996653
N       -0.53524600       2.84290236      -0.26846440
H       -1.15646702      -1.78105714      -0.01440395
H       -2.39389029      -0.44480060      -0.01515321
H       -1.00469106      -0.39871326      -1.15746367
H       -0.81759967      -0.22195763       0.74699203
H        3.31461813      -1.11547255      -0.27911207
11
Frame=1 idx=004434 GeodesicLength=0.05816054209333156 rxn_smarts="[C:1]([C@@:2]([C:3]#[C:4][H:11])([C:5]#[N:6])[H:10])([H:7])([H:8])[H:9]>>[C+:2]([C:3]#[C:4][H:11])=[C:5]=[N-:6].[C:1]([H:7])([H:8])([H:9])[H:10]"
C       -1.35634804      -0.72120337      -0.18622808
C        0.27656971       0.63840323       0.74245107
C        1.41343201      -0.01756027       0.28812875
C        2.41777168      -0.61297641      -0.01740455
C       -0.14761289       1.83765655       0.13822953
N       -0.52775311       2.84664625      -0.27500982
H       -1.13456605      -1.77548686      -0.03408744
H       -2.39942012      -0.46691907      -0.00661865
H       -1.03299498      -0.38435643      -1.16325143
H       -0.83039226      -0.22388476       0.77611154
H        3.32131404      -1.12031885      -0.26232092
11
Frame=2 idx=004434 GeodesicLength=0.11635136900758643 rxn_smarts="[C:1]([C@@:2]([C:3]#[C:4][H:11])([C:5]#[N:6])[H:10])([H:7])([H:8])[H:9]>>[C+:2]([C:3]#[C:4][H:11])=[C:5]=[N-:6].[C:1]([H:7])([H:8])([H:9])[H:10]"
C       -1.35659782      -0.71646300      -0.18507306
C        0.27434924       0.63439217       0.72906527
C        1.41882617      -0.01461100       0.28317031
C        2.41979040      -0.61624306      -0.02124138
C       -0.14094956       1.84287273       0.13632745
N       -0.52010123       2.85039391      -0.28104322
H       -1.11333135      -1.76896490      -0.05391757
H       -2.40465981      -0.48946254       0.00247221
H       -1.06270760      -0.37038791      -1.16874476
H       -0.84240757      -0.22608470       0.80424249
H        3.32778913      -1.12544171      -0.24525774
11
Frame=3 idx=004434 GeodesicLength=0.17457790181198007 rxn_smarts="[C:1]([C@@:2]([C:3]#[C:4][H:11])([C:5]#[N:6])[H:10])([H:7])([H:8])[H:9]>>[C+:2]([C:3]#[C:4][H:11])=[C:5]=[N-:6].[C:1]([H:7])([H:8])([H:9])[H:10]"
C       -1.35734319      -0.71160889      -0.18411583
C        0.27188372       0.62986862       0.71500564
C        1.42430866      -0.01181806       0.27809393
C        2.42298871      -0.61867247      -0.02346716
C       -0.13400148       1.84782342       0.13426705
N       -0.51208869       2.85406111      -0.28683794
H       -1.09287749      -1.76154086      -0.07389078
H       -2.40960911      -0.51237406       0.01190986
H       -1.09361282      -0.35684183      -1.17383746
H       -0.85376148      -0.22851635       0.83151244
H        3.33411316      -1.13038062      -0.22863976
11
Frame=4 idx=004434 GeodesicLength=0.23290628033562616 rxn_smarts="[C:1]([C@@:2]([C:3]#[C:4][H:11])([C:5]#[N:6])[H:10])([H:7])([H:8])[H:9]>>[C+:2]([C:3]#[C:4][H:11])=[C:5]=[N-:6].[C:1]([H:7])([H:8])([H:9])[H:10]"
C       -1.35863094      -0.70663402      -0.18335204
C        0.26919230       0.62485449       0.70032277
C        1.42988936      -0.00922994       0.27298659
C        2.42720795      -0.62046303      -0.02434033
C       -0.12678901       1.85252395       0.13209942
N       -0.50371305       2.85762042      -0.29254400
H       -1.07325937      -1.75325564      -0.09410835
H       -2.41430286      -0.53562971       0.02169855
H       -1.12568792      -0.34360710      -1.17846438
H       -0.86447219      -0.23119445       0.85803269
H        3.34056574      -1.13498495      -0.21233092
11
Frame=5 idx=004434 GeodesicLength=0.2911317901521817 rxn_smarts="[C:1]([C@@:2]([C:3]#[C:4][H:11])([C:5]#[N:6])[H:10])([H:7])([H:8])[H:9]>>[C+:2]([C:3]#[C:4][H:11])=[C:5]=[N-:6].[C:1]([H:7])([H:8])([H:9])[H:10]"
C       -1.36024618      -0.70169041      -0.18278414
C        0.26631045       0.61961231       0.68478551
C        1.43553731      -0.00648958       0.26771094
C        2.43235592      -0.62104708      -0.02455095
C       -0.11945144       1.85699967       0.12947683
N       -0.49517319       2.86152108      -0.29732062
H       -1.05435099      -1.74420773      -0.11430583
H       -2.41842877      -0.55934437       0.03157009
H       -1.15858763      -0.33114535      -1.18256952
H       -0.87437990      -0.23394646       0.88374691
H        3.34641443      -1.14026207      -0.19575922
11
Frame=6 idx=004434 GeodesicLength=0.3493702625056028 rxn_smarts="[C:1]([C@@:2]([C:3]#[C:4][H:11])([C:5]#[N:6])[H:10])([H:7])([H:8])[H:9]>>[C+:2]([C:3]#[C:4][H:11])=[C:5]=[N-:6].[C:1]([H:7])([H:8])([H:9])[H:10]"
C       -1.36259246      -0.69655334      -0.18239201
C        0.26335948       0.61378818       0.66846761
C        1.44112991      -0.00412512       0.26189545
C        2.43856536      -0.62095946      -0.02328864
C       -0.11179641       1.86113819       0.12699520
N       -0.48611883       2.86488813      -0.30248926
H       -1.03644985      -1.73424322      -0.13549508
H       -2.42226222      -0.58346047       0.04230726
H       -1.19324702      -0.31843860      -1.18594672
H       -0.88337832      -0.23713760       0.90879541
H        3.35279036      -1.14489670      -0.17884922
11
Frame=7 idx=004434 GeodesicLength=0.40771252957455956 rxn_smarts="[C:1]([C@@:2]([C:3]#[C:4][H:11])([C:5]#[N:6])[H:10])([H:7])([H:8])[H:9]>>[C+:2]([C:3]#[C:4][H:11])=[C:5]=[N-:6].[C:1]([H:7])([H:8])([H:9])[H:10]"
C       -1.36550446      -0.69138308      -0.18217024
C        0.26026193       0.60761351       0.65133824
C        1.44676475      -0.00192624       0.25585028
C        2.44567365      -0.62012064      -0.02116840
C       -0.10400456       1.86501548       0.12423249
N       -0.47667161       2.86837540      -0.30735006
H       -1.01946400      -1.72352552      -0.15718656
H       -2.42570372      -0.60801757       0.05342685
H       -1.22911300      -0.30600701      -1.18863976
H       -0.89156337      -0.24056556       0.93324584
H        3.35932440      -1.14945877      -0.16157868
11
Frame=8 idx=004434 GeodesicLength=0.4661192154453921 rxn_smarts="[C:1]([C@@:2]([C:3]#[C:4][H:11])([C:5]#[N:6])[H:10])([H:7])([H:8])[H:9]>>[C+:2]([C:3]#[C:4][H:11])=[C:5]=[N-:6].[C:1]([H:7])([H:8])([H:9])[H:10]"
C       -1.36896172      -0.68621232      -0.18211219
C        0.25704049       0.60113360       0.63332772
C        1.45239879       0.00012782       0.24953101
C        2.45359008      -0.61852753      -0.01820141
C       -0.09608601       1.86860611       0.12111969
N       -0.46675920       2.87201409      -0.31183408
H       -1.00340462      -1.71206572      -0.17947706
H       -2.42865728      -0.63307732       0.06492661
H       -1.26620049      -0.29385892      -1.19055794
H       -0.89886292      -0.24420019       0.95712543
H        3.36590288      -1.15393962      -0.14384777
11
Frame=9 idx=004434 GeodesicLength=0.5245127170569712 rxn_smarts="[C:1]([C@@:2]([C:3]#[C:4][H:11])([C:5]#[N:6])[H:10])([H:7])([H:8])[H:9]>>[C+:2]([C:3]#[C:4][H:11])=[C:5]=[N-:6].[C:1]([H:7])([H:8])([H:9])[H:10]"
C       -1.37286204      -0.68107850      -0.18222778
C        0.25374169       0.59443845       0.61436019
C        1.45803744       0.00218815       0.24278789
C        2.46236949      -0.61583773      -0.01449654
C       -0.08813643       1.87194889       0.11766618
N       -0.45657421       2.87584301      -0.31582588
H       -0.98823218      -1.69989516      -0.20241925
H       -2.43094198      -0.65863207       0.07678562
H       -1.30439720      -0.28203909      -1.19163655
H       -0.90510449      -0.24805138       0.98043719
H        3.37209991      -1.15888457      -0.12543108
11
Frame=10 idx=004434 GeodesicLength=0.5828965235084617 rxn_smarts="[C:1]([C@@:2]([C:3]#[C:4][H:11])([C:5]#[N:6])[H:10])([H:7])([H:8])[H:9]>>[C+:2]([C:3]#[C:4][H:11])=[C:5]=[N-:6].[C:1]([H:7])([H:8])([H:9])[H:10]"
C       -1.37705937      -0.67603004      -0.18252334
C        0.25019032       0.58763962       0.59489395
C        1.46365010       0.00422123       0.23680789
C        2.47131251      -0.61273445      -0.00992539
C       -0.08011199       1.87504447       0.11389786
N       -0.44579439       2.87981356      -0.31968653
H       -0.97384787      -1.68708095      -0.22566867
H       -2.43250968      -0.68463708       0.08843837
H       -1.34304830      -0.27079749      -1.19190098
H       -0.91067548      -0.25187226       1.00335183
H        3.37789416      -1.16356662      -0.10768499
11
Frame=11 idx=004434 GeodesicLength=0.6412642414464141 rxn_smarts="[C:1]([C@@:2]([C:3]#[C:4][H:11])([C:5]#[N:6])[H:10])([H:7])([H:8])[H:9]>>[C+:2]([C:3]#[C:4][H:11])=[C:5]=[N-:6].[C:1]([H:7])([H:8])([H:9])[H:10]"
C       -1.38153963      -0.67108362      -0.18299766
C        0.24642810       0.58076260       0.57485389
C        1.46921553       0.00626457       0.23146557
C        2.48049947      -0.60905307      -0.00443687
C       -0.07206402       1.87790028       0.10980256
N       -0.43448588       2.88393723      -0.32337484
H       -0.96025621      -1.67363971      -0.24932410
H       -2.43328986      -0.71110226       0.09993125
H       -1.38219515      -0.26010883      -1.19131911
H       -0.91549714      -0.25565319       1.02588704
H        3.38318480      -1.16822400      -0.09048773
11
Frame=12 idx=004434 GeodesicLength=0.6996077564141465 rxn_smarts="[C:1]([C@@:2]([C:3]#[C:4][H:11])([C:5]#[N:6])[H:10])([H:7])([H:8])[H:9]>>[C+:2]([C:3]#[C:4][H:11])=[C:5]=[N-:6].[C:1]([H:7])([H:8])([H:9])[H:10]"
C       -1.38623535      -0.66626863      -0.18365320
C        0.24242735       0.57386271       0.55434899
C        1.47470326       0.00834166       0.22709172
C        2.48973249      -0.60492445       0.00201642
C       -0.06401735       1.88052493       0.10538237
N       -0.42258849       2.88821225      -0.32696992
H       -0.94740590      -1.65960849      -0.27331271
H       -2.43321727      -0.73801407       0.11110530
H       -1.42163524      -0.25005916      -1.18990293
H       -0.91966293      -0.25928488       1.04810855
H        3.38789942      -1.17278186      -0.07421460
11
Frame=13 idx=004434 GeodesicLength=0.757961422875033 rxn_smarts="[C:1]([C@@:2]([C:3]#[C:4][H:11])([C:5]#[N:6])[H:10])([H:7])([H:8])[H:9]>>[C+:2]([C:3]#[C:4][H:11])=[C:5]=[N-:6].[C:1]([H:7])([H:8])([H:9])[H:10]"
C       -1.39122649      -0.66158176      -0.18448795
C        0.23831619       0.56688746       0.53305620
C        1.48010038       0.01044476       0.22295187
C        2.49952475      -0.59982750       0.00976600
C       -0.05602966       1.88290398       0.10058272
N       -0.41030909       2.89265609      -0.33029278
H       -0.93543404      -1.64496984      -0.29795462
H       -2.43224565      -0.76538196       0.12225832
H       -1.46175481      -0.24048681      -1.18755466
H       -0.92288624      -0.26287963       1.06996742
H        3.39194465      -1.17776479      -0.05829250
11
Frame=14 idx=004434 GeodesicLength=0.8162779764670621 rxn_smarts="[C:1]([C@@:2]([C:3]#[C:4][H:11])([C:5]#[N:6])[H:10])([H:7])([H:8])[H:9]>>[C+:2]([C:3]#[C:4][H:11])=[C:5]=[N-:6].[C:1]([H:7])([H:8])([H:9])[H:10]"
C       -1.39630424      -0.65708700      -0.18551605
C        0.23393857       0.55998181       0.51145741
C        1.48535066       0.01264018       0.22029805
C        2.50915780      -0.59433960       0.01883731
C       -0.04810311       1.88506512       0.09544481
N       -0.39737433       2.89724191      -0.33363723
H       -0.92411504      -1.62981625      -0.32280284
H       -2.43029044      -0.79315931       0.13282826
H       -1.50181942      -0.23173089      -1.18441196
H       -0.92560615      -0.26610875       1.09161704
H        3.39516569      -1.18268722      -0.04411479
11
Frame=15 idx=004434 GeodesicLength=0.8745844344638027 rxn_smarts="[C:1]([C@@:2]([C:3]#[C:4][H:11])([C:5]#[N:6])[H:10])([H:7])([H:8])[H:9]>>[C+:2]([C:3]#[C:4][H:11])=[C:5]=[N-:6].[C:1]([H:7])([H:8])([H:9])[H:10]"
C       -1.40149804      -0.65279527      -0.18674871
C        0.22934195       0.55311037       0.48946347
C        1.49040223       0.01487340       0.21897683
C        2.51887111      -0.58824179       0.02980466
C       -0.04025318       1.88697993       0.08993018
N       -0.38381992       2.90193861      -0.33699312
H       -0.91353083      -1.61418030      -0.34794301
H       -2.42734307      -0.82128837       0.14287137
H       -1.54191488      -0.22377584      -1.18047905
H       -0.92779455      -0.26893656       1.11306508
H        3.39753918      -1.18768417      -0.03194770
11
Frame=16 idx=004434 GeodesicLength=0.9328664954905898 rxn_smarts="[C:1]([C@@:2]([C:3]#[C:4][H:11])([C:5]#[N:6])[H:10])([H:7])([H:8])[H:9]>>[C+:2]([C:3]#[C:4][H:11])=[C:5]=[N-:6].[C:1]([H:7])([H:8])([H:9])[H:10]"
C       -1.40676707      -0.64872829      -0.18819242
C        0.22451343       0.54627052       0.46721425
C        1.49518163       0.01707740       0.21937501
C        2.52831999      -0.58191079       0.04268331
C       -0.03244395       1.88861309       0.08402972
N       -0.36948798       2.90670867      -0.34042751
H       -0.90366844      -1.59812440      -0.37323659
H       -2.42340304      -0.84968288       0.15223268
H       -1.58183158      -0.21673591      -1.17583000
H       -0.92964475      -0.27118717       1.13438232
H        3.39923176      -1.19230025      -0.02223076
