10
Frame=0 idx=000798 GeodesicLength=0.0 rxn_smarts="[O:1]([c:2]1[c:3]([H:8])[n:4][c:5]([H:9])[n:6]1[H:10])[H:7]>>[O:1]([C:2]1=[C:3]([H:8])[N:4]1/[C:5](=[N:6]/[H:10])[H:9])[H:7]"
O       -2.48242466      -0.50037850       0.45142452
C       -1.52414278       0.11814097      -0.12200282
C       -0.55132255       0.95413557      -0.27902620
N        0.19998252       0.30882545       0.69390569
C        1.30666017      -0.34213888       0.19064664
N        1.58129269      -0.42199211      -1.05104615
H       -2.64479543      -0.13759426       1.33822073
H       -0.27342573       1.70108775      -1.01451781
H        1.92947158      -0.76742039       0.98309414
H        2.45870419      -0.91266560      -1.19069874
10
Frame=1 idx=000798 GeodesicLength=0.1094818937127567 rxn_smarts="[O:1]([c:2]1[c:3]([H:8])[n:4][c:5]([H:9])[n:6]1[H:10])[H:7]>>[O:1]([C:2]1=[C:3]([H:8])[N:4]1/[C:5](=[N:6]/[H:10])[H:9])[H:7]"
O       -2.42545559      -0.55324688       0.40139863
C       -1.45453047       0.08695203      -0.13304572
C       -0.54035028       0.99647607      -0.24118702
N        0.22592320       0.35452354       0.72837293
C        1.31704818      -0.31014745       0.21284441
N        1.48515835      -0.49678689      -1.03904366
H       -2.66494094      -0.16191817       1.25735106
H       -0.28178057       1.76745536      -0.95756127
H        1.99500976      -0.67647724       0.98802899
H        2.34391836      -1.00683036      -1.21715834
10
Frame=2 idx=000798 GeodesicLength=0.2205250393959819 rxn_smarts="[O:1]([c:2]1[c:3]([H:8])[n:4][c:5]([H:9])[n:6]1[H:10])[H:7]>>[O:1]([C:2]1=[C:3]([H:8])[N:4]1/[C:5](=[N:6]/[H:10])[H:9])[H:7]"
O       -2.36984585      -0.59911058       0.35736850
C       -1.38856380       0.06203205      -0.13921824
C       -0.53139883       1.03143607      -0.20829725
N        0.25079452       0.39351997       0.75733033
C        1.32753017      -0.28143479       0.22841948
N        1.39956496      -0.55876186      -1.01859818
H       -2.68203133      -0.18411530       1.17721552
H       -0.29594033       1.82736964      -0.90382960
H        2.05609343      -0.59535956       0.97907234
H        2.23379707      -1.09557565      -1.22946290
10
Frame=3 idx=000798 GeodesicLength=0.3324893828955277 rxn_smarts="[O:1]([c:2]1[c:3]([H:8])[n:4][c:5]([H:9])[n:6]1[H:10])[H:7]>>[O:1]([C:2]1=[C:3]([H:8])[N:4]1/[C:5](=[N:6]/[H:10])[H:9])[H:7]"
O       -2.31585487      -0.63947906       0.31989248
C       -1.32623825       0.04115455      -0.14109441
C       -0.52379446       1.06016213      -0.17934048
N        0.27525543       0.42708329       0.78182389
C        1.33784161      -0.25656376       0.23883269
N        1.32349088      -0.61109227      -0.99331349
H       -2.69803551      -0.20220588       1.09658127
H       -0.31565719       1.88173609      -0.85209406
H        2.11273699      -0.52351794       0.95945858
H        2.13025536      -1.17727715      -1.23074647
10
Frame=4 idx=000798 GeodesicLength=0.44495354307516377 rxn_smarts="[O:1]([c:2]1[c:3]([H:8])[n:4][c:5]([H:9])[n:6]1[H:10])[H:7]>>[O:1]([C:2]1=[C:3]([H:8])[N:4]1/[C:5](=[N:6]/[H:10])[H:9])[H:7]"
O       -2.26385635      -0.67512802       0.28838733
C       -1.26733113       0.02320896      -0.13932534
C       -0.51698714       1.08380940      -0.15345828
N        0.29964408       0.45627834       0.80267652
C        1.34793535      -0.23532719       0.24533326
N        1.25570973      -0.65604578      -0.96522492
H       -2.71321143      -0.21645424       1.01430062
H       -0.34050683       1.93156235      -0.80081424
H        2.16572090      -0.45884991       0.93125703
H        2.03288282      -1.25305389      -1.22313198
10
Frame=5 idx=000798 GeodesicLength=0.557794171943325 rxn_smarts="[O:1]([c:2]1[c:3]([H:8])[n:4][c:5]([H:9])[n:6]1[H:10])[H:7]>>[O:1]([C:2]1=[C:3]([H:8])[N:4]1/[C:5](=[N:6]/[H:10])[H:9])[H:7]"
O       -2.21410037      -0.70639254       0.26197156
C       -1.21157010       0.00774111      -0.13447291
C       -0.51055780       1.10356409      -0.13015881
N        0.32418687       0.48218499       0.82051387
C        1.35786533      -0.21721056       0.24887767
N        1.19475282      -0.69578117      -0.93527248
H       -2.72693104      -0.22791726       0.92976658
H       -0.37020604       1.97770359      -0.74899489
H        2.21544434      -0.39993880       0.89594292
H        1.94111599      -1.32395346      -1.20817351
10
Frame=6 idx=000798 GeodesicLength=0.6709087018910223 rxn_smarts="[O:1]([c:2]1[c:3]([H:8])[n:4][c:5]([H:9])[n:6]1[H:10])[H:7]>>[O:1]([C:2]1=[C:3]([H:8])[N:4]1/[C:5](=[N:6]/[H:10])[H:9])[H:7]"
O       -2.16705694      -0.73343778       0.23974819
C       -1.15893091      -0.00539154      -0.12696260
C       -0.50405130       1.12028310      -0.10902346
N        0.34883234       0.50537441       0.83591768
C        1.36724791      -0.20240034       0.25053332
N        1.13901349      -0.73223083      -0.90352486
H       -2.73876433      -0.23746580       0.84285522
H       -0.40346687       2.02012546      -0.69619262
H        2.26242484      -0.34500907       0.85397907
H        1.85475177      -1.38984762      -1.18732993
10
Frame=7 idx=000798 GeodesicLength=0.7841650474494706 rxn_smarts="[O:1]([c:2]1[c:3]([H:8])[n:4][c:5]([H:9])[n:6]1[H:10])[H:7]>>[O:1]([C:2]1=[C:3]([H:8])[N:4]1/[C:5](=[N:6]/[H:10])[H:9])[H:7]"
O       -2.12265361      -0.75650526       0.22014358
C       -1.10894227      -0.01639213      -0.11770977
C       -0.49731075       1.13493213      -0.09030982
N        0.37366723       0.52691453       0.84886744
C        1.37629762      -0.18996717       0.25060546
N        1.08824920      -0.76537916      -0.87077078
H       -2.74683041      -0.24645283       0.75445313
H       -0.44074266       2.05988934      -0.64138490
H        2.30601280      -0.29409276       0.80648849
H        1.77225286      -1.45294670      -1.16038282
10
Frame=8 idx=000798 GeodesicLength=0.8975512631320824 rxn_smarts="[O:1]([c:2]1[c:3]([H:8])[n:4][c:5]([H:9])[n:6]1[H:10])[H:7]>>[O:1]([C:2]1=[C:3]([H:8])[N:4]1/[C:5](=[N:6]/[H:10])[H:9])[H:7]"
O       -2.08072027      -0.77597709       0.20329097
C       -1.06137400      -0.02562279      -0.10677520
C       -0.49011753       1.14780758      -0.07391845
N        0.39881898       0.54718178       0.85953085
C        1.38506011      -0.17978700       0.24951717
N        1.04147216      -0.79638905      -0.83681375
H       -2.75154356      -0.25445015       0.66362535
H       -0.48163820       2.09661875      -0.58374150
H        2.34644197      -0.24640593       0.75344958
H        1.69360033      -1.51297610      -1.12816501
10
Frame=9 idx=000798 GeodesicLength=1.0110143711688226 rxn_smarts="[O:1]([c:2]1[c:3]([H:8])[n:4][c:5]([H:9])[n:6]1[H:10])[H:7]>>[O:1]([C:2]1=[C:3]([H:8])[N:4]1/[C:5](=[N:6]/[H:10])[H:9])[H:7]"
O       -2.04132876      -0.79189704       0.18853648
C       -1.01596899      -0.03325954      -0.09457037
C       -0.48228003       1.15938614      -0.06021880
N        0.42430714       0.56673902       0.86787008
C        1.39354700      -0.17165859       0.24761460
N        0.99812885      -0.82586880      -0.80161359
H       -2.75215404      -0.26161352       0.57073146
H       -0.52624821       2.13018174      -0.52256066
H        2.38336757      -0.20184771       0.69537520
H        1.61862946      -1.57016169      -1.09116439
10
Frame=10 idx=000798 GeodesicLength=1.124540152951075 rxn_smarts="[O:1]([c:2]1[c:3]([H:8])[n:4][c:5]([H:9])[n:6]1[H:10])[H:7]>>[O:1]([C:2]1=[C:3]([H:8])[N:4]1/[C:5](=[N:6]/[H:10])[H:9])[H:7]"
O       -2.00430887      -0.80440884       0.17592162
C       -0.97251333      -0.03939161      -0.08117856
C       -0.47368463       1.17006654      -0.04940284
N        0.45022881       0.58608470       0.87383202
C        1.40182717      -0.16532750       0.24513264
N        0.95761633      -0.85427770      -0.76489227
H       -2.74854111      -0.26795605       0.47512643
H       -0.57431768       2.15999211      -0.45701439
H        2.41664933      -0.16015628       0.63223407
H        1.54704397      -1.62462536      -1.04975872
10
Frame=11 idx=000798 GeodesicLength=1.238113293869433 rxn_smarts="[O:1]([c:2]1[c:3]([H:8])[n:4][c:5]([H:9])[n:6]1[H:10])[H:7]>>[O:1]([C:2]1=[C:3]([H:8])[N:4]1/[C:5](=[N:6]/[H:10])[H:9])[H:7]"
O       -1.96954537      -0.81350568       0.16404972
C       -0.93080899      -0.04377492      -0.06725709
C       -0.46430636       1.18050399      -0.04189452
N        0.47644299       0.60576242       0.87714529
C        1.40986900      -0.16030849       0.24210942
N        0.91964822      -0.88134878      -0.72682339
H       -2.73962222      -0.27417969       0.37834882
H       -0.62547988       2.18534172      -0.38674595
H        2.44560693      -0.12187587       0.56491284
H        1.47819568      -1.67661470      -1.00384514
10
Frame=12 idx=000798 GeodesicLength=1.3517323155473062 rxn_smarts="[O:1]([c:2]1[c:3]([H:8])[n:4][c:5]([H:9])[n:6]1[H:10])[H:7]>>[O:1]([C:2]1=[C:3]([H:8])[N:4]1/[C:5](=[N:6]/[H:10])[H:9])[H:7]"
O       -1.93689597      -0.81942369       0.15361344
C       -0.89083933      -0.04650017      -0.05257803
C       -0.45450527       1.19102378      -0.03748499
N        0.50290979       0.62617349       0.87785856
C        1.41764488      -0.15616874       0.23863935
N        0.88365930      -0.90694885      -0.68722337
H       -2.72554485      -0.28037859       0.27969238
H       -0.67831854       2.20491297      -0.31203511
H        2.46997354      -0.08723491       0.49376148
H        1.41191645      -1.72545528      -0.95424372
10
Frame=13 idx=000798 GeodesicLength=1.4654855923941796 rxn_smarts="[O:1]([c:2]1[c:3]([H:8])[n:4][c:5]([H:9])[n:6]1[H:10])[H:7]>>[O:1]([C:2]1=[C:3]([H:8])[N:4]1/[C:5](=[N:6]/[H:10])[H:9])[H:7]"
O       -1.90625322      -0.82248274       0.14227655
C       -0.85257611      -0.04730799      -0.03774511
C       -0.44471696       1.20220055      -0.03524173
N        0.52921909       0.64709810       0.87640987
C        1.42502187      -0.15237288       0.23470595
N        0.84952278      -0.93012174      -0.64676979
H       -2.70571321      -0.28734794       0.18162867
H       -0.73100635       2.21772760      -0.23418024
H        2.48934272      -0.05620722       0.41951516
H        1.34715937      -1.77118575      -0.90059934
10
Frame=14 idx=000798 GeodesicLength=1.579506825072033 rxn_smarts="[O:1]([c:2]1[c:3]([H:8])[n:4][c:5]([H:9])[n:6]1[H:10])[H:7]>>[O:1]([C:2]1=[C:3]([H:8])[N:4]1/[C:5](=[N:6]/[H:10])[H:9])[H:7]"
O       -1.87746182      -0.82317570       0.13303382
C       -0.81618755      -0.04653447      -0.02120761
C       -0.43591600       1.21405350      -0.03331765
N        0.55570838       0.66868232       0.87331338
C        1.43205264      -0.14809200       0.22962246
N        0.81640876      -0.95045879      -0.60550569
H       -2.68059511      -0.29601938       0.08045031
H       -0.78101625       2.22352473      -0.15474260
H        2.50370427      -0.02905967       0.34218758
H        1.28330268      -1.81292054      -0.84383400
10
Frame=15 idx=000798 GeodesicLength=1.6939502469105188 rxn_smarts="[O:1]([c:2]1[c:3]([H:8])[n:4][c:5]([H:9])[n:6]1[H:10])[H:7]>>[O:1]([C:2]1=[C:3]([H:8])[N:4]1/[C:5](=[N:6]/[H:10])[H:9])[H:7]"
O       -1.85025724      -0.82202073       0.12448110
C       -0.78177963      -0.04412474      -0.00347244
C       -0.42875191       1.22675071      -0.03000879
N        0.58184625       0.69021962       0.86925872
C        1.43828786      -0.14296698       0.22297049
N        0.78420936      -0.96676381      -0.56495718
H       -2.64948913      -0.30774701      -0.02038607
H       -0.82642949       2.22315794      -0.07744891
H        2.51257973      -0.00680325       0.26457968
H        1.21978420      -1.84970175      -0.78501659
10
Frame=16 idx=000798 GeodesicLength=1.8088387208321284 rxn_smarts="[O:1]([c:2]1[c:3]([H:8])[n:4][c:5]([H:9])[n:6]1[H:10])[H:7]>>[O:1]([C:2]1=[C:3]([H:8])[N:4]1/[C:5](=[N:6]/[H:10])[H:9])[H:7]"
O       -1.82508263      -0.81884078       0.11932911
C       -0.74953175      -0.04034346       0.01682267
C       -0.42365641       1.24015643      -0.02434860
N        0.60814438       0.71196085       0.86430619
C        1.44364719      -0.13688321       0.21409605
N        0.75208834      -0.97954297      -0.52486397
H       -2.61149824      -0.32412313      -0.12485774
H       -0.86669635       2.21850905      -0.00211264
H        2.51648842       0.01072898       0.18625992
H        1.15609706      -1.88162178      -0.72463099
