12
Frame=0 idx=007504 GeodesicLength=0.0 rxn_smarts="[O:1]=[C:2]([C:3]#[C:4][H:8])[C@@:5]1([H:9])[C:6]([H:10])([H:11])[N:7]1[H:12]>>[C:3](#[C:4][H:8])[N:7]([C:5](=[C:6]([H:10])[H:11])[H:9])[H:12].[O+:1]#[C-:2]"
O        0.71062769      -2.06477388       0.81669507
C        0.54411046      -1.03883001       0.27112254
C        1.37898093       0.27491164       0.26118197
C        2.46848619       0.78469410       0.50357016
C       -0.60581302      -0.37631481      -0.59949469
C       -1.94850872      -0.20393613      -0.23211556
N       -0.07175287       0.98791506      -0.40507658
H        3.39940445       1.27061945       0.68457737
H       -0.47090136      -0.69877405      -1.63378582
H       -2.19885754       0.07765478       0.78396748
H       -2.76622083      -0.37623109      -0.91958437
H       -0.43955538       1.36306495       0.46894246
12
Frame=1 idx=007504 GeodesicLength=0.11625391090153127 rxn_smarts="[O:1]=[C:2]([C:3]#[C:4][H:8])[C@@:5]1([H:9])[C:6]([H:10])([H:11])[N:7]1[H:12]>>[C:3](#[C:4][H:8])[N:7]([C:5](=[C:6]([H:10])[H:11])[H:9])[H:12].[O+:1]#[C-:2]"
O        0.67559840      -2.03856467       0.90619371
C        0.55696195      -1.05772819       0.27455416
C        1.39257693       0.28392319       0.25085473
C        2.48737331       0.78966953       0.46955420
C       -0.60328396      -0.37009300      -0.60513627
C       -1.95075065      -0.19980618      -0.25581042
N       -0.10546567       0.99496703      -0.36053258
H        3.43263399       1.25613911       0.62707226
H       -0.44679262      -0.66033644      -1.64550526
H       -2.22156092       0.02323586       0.76950846
H       -2.75528257      -0.35729547      -0.96206387
H       -0.46200818       1.33588923       0.53131087
12
Frame=2 idx=007504 GeodesicLength=0.23232579818524193 rxn_smarts="[O:1]=[C:2]([C:3]#[C:4][H:8])[C@@:5]1([H:9])[C:6]([H:10])([H:11])[N:7]1[H:12]>>[C:3](#[C:4][H:8])[N:7]([C:5](=[C:6]([H:10])[H:11])[H:9])[H:12].[O+:1]#[C-:2]"
O        0.64309993      -2.00993993       0.98841105
C        0.56877709      -1.07776949       0.28246444
C        1.40436679       0.29324034       0.24512594
C        2.50382466       0.79521607       0.43962298
C       -0.60017909      -0.36398357      -0.60915622
C       -1.95228625      -0.19522393      -0.27871132
N       -0.13826151       0.99927361      -0.31538400
H        3.46419806       1.24010181       0.56264979
H       -0.42121314      -0.62175941      -1.65401176
H       -2.24450733      -0.02968380       0.75159504
H       -2.74256999      -0.33653045      -1.00407598
H       -0.48524921       1.30705874       0.59147004
12
Frame=3 idx=007504 GeodesicLength=0.3486691062490871 rxn_smarts="[O:1]=[C:2]([C:3]#[C:4][H:8])[C@@:5]1([H:9])[C:6]([H:10])([H:11])[N:7]1[H:12]>>[C:3](#[C:4][H:8])[N:7]([C:5](=[C:6]([H:10])[H:11])[H:9])[H:12].[O+:1]#[C-:2]"
O        0.61405561      -1.98040136       1.06299289
C        0.57995281      -1.09887577       0.29306650
C        1.41551598       0.30239613       0.23973015
C        2.51941152       0.80047324       0.40839011
C       -0.59732468      -0.35844926      -0.61226764
C       -1.95341015      -0.18982603      -0.29946326
N       -0.16995109       1.00088475      -0.27266127
H        3.49210213       1.22480146       0.50377033
H       -0.39679157      -0.58505779      -1.66001031
H       -2.26613955      -0.07925125       0.73219328
H       -2.72976578      -0.31471290      -1.04258774
H       -0.50765524       1.27801878       0.64684697
12
Frame=4 idx=007504 GeodesicLength=0.46521240535886604 rxn_smarts="[O:1]=[C:2]([C:3]#[C:4][H:8])[C@@:5]1([H:9])[C:6]([H:10])([H:11])[N:7]1[H:12]>>[C:3](#[C:4][H:8])[N:7]([C:5](=[C:6]([H:10])[H:11])[H:9])[H:12].[O+:1]#[C-:2]"
O        0.58739888      -1.95141602       1.13152606
C        0.59040306      -1.12062275       0.30730570
C        1.42542885       0.31211777       0.23832134
C        2.53329091       0.80608481       0.38089015
C       -0.59401615      -0.35283782      -0.61420187
C       -1.95393254      -0.18413829      -0.31936595
N       -0.20099212       1.00065612      -0.23029237
H        3.51801940       1.20863826       0.43949502
H       -0.37131300      -0.54863617      -1.66325969
H       -2.28760489      -0.12692468       0.71008356
H       -2.71563585      -0.29153419      -1.08014266
H       -0.53104653       1.24861296       0.69964072
12
Frame=5 idx=007504 GeodesicLength=0.581560794865482 rxn_smarts="[O:1]=[C:2]([C:3]#[C:4][H:8])[C@@:5]1([H:9])[C:6]([H:10])([H:11])[N:7]1[H:12]>>[C:3](#[C:4][H:8])[N:7]([C:5](=[C:6]([H:10])[H:11])[H:9])[H:12].[O+:1]#[C-:2]"
O        0.56407315      -1.92235457       1.19408563
C        0.60068640      -1.14277418       0.32279859
C        1.43499332       0.32216538       0.23559778
C        2.54648968       0.81161438       0.35032067
C       -0.59117466      -0.34760384      -0.61580520
C       -1.95416617      -0.17808532      -0.33691542
N       -0.23133050       0.99859345      -0.19126546
H        3.54096433       1.19234889       0.38448204
H       -0.34769175      -0.51420468      -1.66486970
H       -2.30726202      -0.17142868       0.68763189
H       -2.70193693      -0.26818898      -1.11351143
H       -0.55364485       1.21991814       0.74745061
12
Frame=6 idx=007504 GeodesicLength=0.6980445610389396 rxn_smarts="[O:1]=[C:2]([C:3]#[C:4][H:8])[C@@:5]1([H:9])[C:6]([H:10])([H:11])[N:7]1[H:12]>>[C:3](#[C:4][H:8])[N:7]([C:5](=[C:6]([H:10])[H:11])[H:9])[H:12].[O+:1]#[C-:2]"
O        0.54222998      -1.89462506       1.25246753
C        0.61053071      -1.16547807       0.34102596
C        1.44377641       0.33274682       0.23627805
C        2.55853373       0.81695983       0.32312214
C       -0.58785363      -0.34208508      -0.61659066
C       -1.95381139      -0.17189614      -0.35381801
N       -0.26116146       0.99527920      -0.15273382
H        3.56162719       1.17585564       0.32440988
H       -0.32313905      -0.47980379      -1.66428008
H       -2.32646614      -0.21433830       0.66294083
H       -2.68705891      -0.24382220      -1.14596050
H       -0.57720743       1.19120716       0.79313866
12
Frame=7 idx=007504 GeodesicLength=0.8145457166182852 rxn_smarts="[O:1]=[C:2]([C:3]#[C:4][H:8])[C@@:5]1([H:9])[C:6]([H:10])([H:11])[N:7]1[H:12]>>[C:3](#[C:4][H:8])[N:7]([C:5](=[C:6]([H:10])[H:11])[H:9])[H:12].[O+:1]#[C-:2]"
O        0.52243186      -1.86752783       1.30689792
C        0.62030636      -1.18849804       0.36069807
C        1.45220169       0.34396962       0.23748317
C        2.56986011       0.82220229       0.29562009
C       -0.58456994      -0.33645354      -0.61703684
C       -1.95314486      -0.16567352      -0.36938152
N       -0.29063847       0.99086458      -0.11609609
H        3.58023410       1.15880182       0.26698992
H       -0.29918288      -0.44613456      -1.66218223
H       -2.34449319      -0.25531593       0.63726817
H       -2.67203968      -0.21924292      -1.17596230
H       -0.60096511       1.16300803       0.83570164
12
Frame=8 idx=007504 GeodesicLength=0.9310810351764403 rxn_smarts="[O:1]=[C:2]([C:3]#[C:4][H:8])[C@@:5]1([H:9])[C:6]([H:10])([H:11])[N:7]1[H:12]>>[C:3](#[C:4][H:8])[N:7]([C:5](=[C:6]([H:10])[H:11])[H:9])[H:12].[O+:1]#[C-:2]"
O        0.50392584      -1.84139500       1.35821339
C        0.62997286      -1.21187061       0.38212723
C        1.46025353       0.35588670       0.24037130
C        2.58047599       0.82716382       0.26940550
C       -0.58101956      -0.33046574      -0.61704357
C       -1.95203621      -0.15947031      -0.38412965
N       -0.31984778       0.98556292      -0.08055337
H        3.59668680       1.14123831       0.20832424
H       -0.27504165      -0.41254444      -1.65846010
H       -2.36160089      -0.29486313       0.61011767
H       -2.65638957      -0.19430750      -1.20441742
H       -0.62537935       1.13506497       0.87604479
12
Frame=9 idx=007504 GeodesicLength=1.0476049070904256 rxn_smarts="[O:1]=[C:2]([C:3]#[C:4][H:8])[C@@:5]1([H:9])[C:6]([H:10])([H:11])[N:7]1[H:12]>>[C:3](#[C:4][H:8])[N:7]([C:5](=[C:6]([H:10])[H:11])[H:9])[H:12].[O+:1]#[C-:2]"
O        0.48762081      -1.81539670       1.40635487
C        0.63991071      -1.23521190       0.40428121
C        1.46812437       0.36888895       0.24250116
C        2.59046645       0.83235622       0.24130407
C       -0.57772615      -0.32422895      -0.61702489
C       -1.95087623      -0.15351773      -0.39750560
N       -0.34905836       0.97959124      -0.04716678
H        3.61207596       1.12194459       0.15518427
H       -0.25208416      -0.37951626      -1.65380010
H       -2.37734135      -0.33287465       0.58262476
H       -2.64118413      -0.16989198      -1.23018601
H       -0.64992793       1.10785716       0.91343304
12
Frame=10 idx=007504 GeodesicLength=1.1641694139688794 rxn_smarts="[O:1]=[C:2]([C:3]#[C:4][H:8])[C@@:5]1([H:9])[C:6]([H:10])([H:11])[N:7]1[H:12]>>[C:3](#[C:4][H:8])[N:7]([C:5](=[C:6]([H:10])[H:11])[H:9])[H:12].[O+:1]#[C-:2]"
O        0.47196266      -1.79038016       1.45235317
C        0.64976984      -1.25899185       0.42812823
C        1.47583000       0.38252305       0.24634619
C        2.60000104       0.83679572       0.21486595
C       -0.57405852      -0.31749100      -0.61664058
C       -1.94926576      -0.14762358      -0.41037906
N       -0.37804842       0.97293622      -0.01456111
H        3.62518249       1.10262399       0.09959914
H       -0.22876265      -0.34621075      -1.64767634
H       -2.39213670      -0.36980819       0.55361688
H       -2.62529849      -0.14514911      -1.25482092
H       -0.67517548       1.08077568       0.94916847
12
Frame=11 idx=007504 GeodesicLength=1.2807532433646698 rxn_smarts="[O:1]=[C:2]([C:3]#[C:4][H:8])[C@@:5]1([H:9])[C:6]([H:10])([H:11])[N:7]1[H:12]>>[C:3](#[C:4][H:8])[N:7]([C:5](=[C:6]([H:10])[H:11])[H:9])[H:12].[O+:1]#[C-:2]"
O        0.45753293      -1.76576623       1.49617201
C        0.65981293      -1.28292470       0.45306694
C        1.48345650       0.39714914       0.25046975
C        2.60906815       0.84094878       0.18835782
C       -0.57032164      -0.31025875      -0.61614406
C       -1.94745540      -0.14196891      -0.42245627
N       -0.40704750       0.96576156       0.01670768
H        3.63684235       1.08217157       0.04540205
H       -0.20588080      -0.31277600      -1.64051679
H       -2.40571654      -0.40575850       0.52374320
H       -2.60939889      -0.12063787      -1.27769956
H       -0.70089209       1.05405991       0.98289723
12
Frame=12 idx=007504 GeodesicLength=1.3973724016174414 rxn_smarts="[O:1]=[C:2]([C:3]#[C:4][H:8])[C@@:5]1([H:9])[C:6]([H:10])([H:11])[N:7]1[H:12]>>[C:3](#[C:4][H:8])[N:7]([C:5](=[C:6]([H:10])[H:11])[H:9])[H:12].[O+:1]#[C-:2]"
O        0.44381380      -1.74174148       1.53827832
C        0.66996586      -1.30713214       0.47940626
C        1.49105576       0.41271262       0.25559155
C        2.61778283       0.84453107       0.16288967
C       -0.56628980      -0.30240160      -0.61543852
C       -1.94529890      -0.13651374      -0.43405309
N       -0.43603545       0.95810116       0.04707905
H        3.64650279       1.06090937      -0.00995341
H       -0.18295733      -0.27885641      -1.63216139
H       -2.41813266      -0.44092534       0.49262507
H       -2.59312850      -0.09617179      -1.29933744
H       -0.72727842       1.02748826       1.01507392
12
Frame=13 idx=007504 GeodesicLength=1.514000658061208 rxn_smarts="[O:1]=[C:2]([C:3]#[C:4][H:8])[C@@:5]1([H:9])[C:6]([H:10])([H:11])[N:7]1[H:12]>>[C:3](#[C:4][H:8])[N:7]([C:5](=[C:6]([H:10])[H:11])[H:9])[H:12].[O+:1]#[C-:2]"
O        0.43162059      -1.71764491       1.57841845
C        0.68050907      -1.33133285       0.50641202
C        1.49867555       0.42954477       0.25988662
C        2.62605453       0.84800683       0.13627936
C       -0.56241357      -0.29398060      -0.61484702
C       -1.94317597      -0.13145972      -0.44476340
N       -0.46521324       0.95008106       0.07587405
H        3.65552696       1.03782697      -0.06146358
H       -0.16108470      -0.24470732      -1.62320244
H       -2.42913230      -0.47536329       0.46113120
H       -2.57742274      -0.07231642      -1.31895969
H       -0.75394416       1.00134549       1.04523443
12
Frame=14 idx=007504 GeodesicLength=1.6306655060065183 rxn_smarts="[O:1]=[C:2]([C:3]#[C:4][H:8])[C@@:5]1([H:9])[C:6]([H:10])([H:11])[N:7]1[H:12]>>[C:3](#[C:4][H:8])[N:7]([C:5](=[C:6]([H:10])[H:11])[H:9])[H:12].[O+:1]#[C-:2]"
O        0.42002853      -1.69392600       1.61720914
C        0.69121824      -1.35582849       0.53476661
C        1.50638417       0.44739990       0.26480692
C        2.63410815       0.85077225       0.11067253
C       -0.55827012      -0.28484367      -0.61413320
C       -1.94076735      -0.12666252      -0.45509177
N       -0.49443925       0.94165293       0.10379829
H        3.66266418       1.01388479      -0.11389168
H       -0.13934006      -0.20987951      -1.61322632
H       -2.43884120      -0.50920637       0.42850687
H       -2.56153653      -0.04863236      -1.33742156
H       -0.78120874       0.97526905       1.07400417
12
Frame=15 idx=007504 GeodesicLength=1.747347513453272 rxn_smarts="[O:1]=[C:2]([C:3]#[C:4][H:8])[C@@:5]1([H:9])[C:6]([H:10])([H:11])[N:7]1[H:12]>>[C:3](#[C:4][H:8])[N:7]([C:5](=[C:6]([H:10])[H:11])[H:9])[H:12].[O+:1]#[C-:2]"
O        0.40953579      -1.67017489       1.65448996
C        0.70227124      -1.38045902       0.56404272
C        1.51420329       0.46650724       0.26923710
C        2.64188551       0.85310757       0.08483020
C       -0.55413867      -0.27499163      -0.61350221
C       -1.93831710      -0.12225083      -0.46481887
N       -0.52384110       0.93289150       0.13049621
H        3.66882108       0.98841932      -0.16429284
H       -0.11840698      -0.17443976      -1.60262309
H       -2.44710581      -0.54253214       0.39527546
H       -2.54607238      -0.02546226      -1.35429942
H       -0.80883487       0.94938489       1.10116479
12
Frame=16 idx=007504 GeodesicLength=1.8640537502473524 rxn_smarts="[O:1]=[C:2]([C:3]#[C:4][H:8])[C@@:5]1([H:9])[C:6]([H:10])([H:11])[N:7]1[H:12]>>[C:3](#[C:4][H:8])[N:7]([C:5](=[C:6]([H:10])[H:11])[H:9])[H:12].[O+:1]#[C-:2]"
O        0.39985475      -1.64646138       1.69051332
C        0.71360252      -1.40534377       0.59447019
C        1.52218643       0.48681602       0.27349568
C        2.64951100       0.85479250       0.05943259
C       -0.54990232      -0.26434885      -0.61290366
C       -1.93573765      -0.11819356      -0.47412018
N       -0.55338171       0.92378475       0.15617048
H        3.67360206       0.96171041      -0.21403589
H       -0.09807791      -0.13819643      -1.59131299
H       -2.45390742      -0.57540921       0.36123710
H       -2.53086439      -0.00270446      -1.36986536
H       -0.83688536       0.92355399       1.12691871
