14
Frame=0 idx=010676 GeodesicLength=0.0 rxn_smarts="[O:1](/[N:2]=[C:3]1/[C:4]([H:9])([H:10])[C:5]([H:11])([H:12])[C@:6]1([O:7][H:14])[H:13])[H:8]>>[C:4](=[C:5]([H:11])[H:12])([H:9])[H:10].[O:1]([N:2]=[C:3]=[C:6]([O:7][H:14])[H:13])[H:8]"
O        1.96897630       1.00128583       1.13076540
N        1.73449016       0.26648788      -0.07957382
C        0.50318434       0.25502658      -0.38610857
C       -0.23225634      -1.46601219      -0.75718706
C       -0.89428268      -1.50170225       0.44415048
C       -0.53761035       1.12252277      -0.36767085
O       -0.35742339       2.44530813      -0.38867308
H        1.22570074       0.80018556       1.71614875
H        0.72154953      -1.96378611      -0.86992288
H       -0.79377723      -1.35561656      -1.67706061
H       -0.37846844      -1.78293808       1.35379788
H       -1.95099929      -1.28376116       0.52636942
H       -1.56633135       0.82260661      -0.49996123
H        0.55724803       2.64039300      -0.14507388
14
Frame=1 idx=010676 GeodesicLength=0.086419263322097 rxn_smarts="[O:1](/[N:2]=[C:3]1/[C:4]([H:9])([H:10])[C:5]([H:11])([H:12])[C@:6]1([O:7][H:14])[H:13])[H:8]>>[C:4](=[C:5]([H:11])[H:12])([H:9])[H:10].[O:1]([N:2]=[C:3]=[C:6]([O:7][H:14])[H:13])[H:8]"
O        1.98400825       0.97362370       1.10155682
N        1.74756412       0.30081614      -0.14042274
C        0.51354211       0.27462692      -0.43096779
C       -0.21683410      -1.47941059      -0.73652122
C       -0.89684416      -1.45248726       0.45902391
C       -0.54776916       1.12034711      -0.38335222
O       -0.40898467       2.44714760      -0.28133033
H        1.26907141       0.70673861       1.69574377
H        0.72740358      -2.00169386      -0.81600570
H       -0.76534008      -1.40430580      -1.66799388
H       -0.39959488      -1.71934846       1.38338808
H       -1.95800540      -1.24776391       0.51504921
H       -1.55944879       0.82591680      -0.62296058
H        0.51123177       2.65579300      -0.07520733
14
Frame=2 idx=010676 GeodesicLength=0.16891272604876215 rxn_smarts="[O:1](/[N:2]=[C:3]1/[C:4]([H:9])([H:10])[C:5]([H:11])([H:12])[C@:6]1([O:7][H:14])[H:13])[H:8]>>[C:4](=[C:5]([H:11])[H:12])([H:9])[H:10].[O:1]([N:2]=[C:3]=[C:6]([O:7][H:14])[H:13])[H:8]"
O        2.00569357       0.95684225       1.06693636
N        1.75991594       0.33431254      -0.19585203
C        0.52276496       0.29189256      -0.46594400
C       -0.20189380      -1.49129573      -0.71554592
C       -0.90590459      -1.40821312       0.46759740
C       -0.55777301       1.11598777      -0.39369192
O       -0.46023542       2.43550577      -0.17768542
H        1.32557664       0.62857914       1.67105729
H        0.73201531      -2.03643153      -0.75813011
H       -0.73313044      -1.44784586      -1.65924879
H       -0.43254649      -1.66414123       1.40765853
H       -1.97061039      -1.21570108       0.49435248
H       -1.54602753       0.83430474      -0.73045243
H        0.46215524       2.66620378      -0.01105144
14
Frame=3 idx=010676 GeodesicLength=0.24973507469184203 rxn_smarts="[O:1](/[N:2]=[C:3]1/[C:4]([H:9])([H:10])[C:5]([H:11])([H:12])[C@:6]1([O:7][H:14])[H:13])[H:8]>>[C:4](=[C:5]([H:11])[H:12])([H:9])[H:10].[O:1]([N:2]=[C:3]=[C:6]([O:7][H:14])[H:13])[H:8]"
O        2.03162896       0.94913630       1.02937692
N        1.77136590       0.36639673      -0.24613294
C        0.53126915       0.30718969      -0.49312819
C       -0.18794156      -1.50215849      -0.69466609
C       -0.91950447      -1.36866649       0.47128029
C       -0.56727869       1.11005674      -0.39989573
O       -0.50921827       2.41389080      -0.08189144
H        1.39187414       0.56379244       1.64368522
H        0.73436162      -2.06875083      -0.69860944
H       -0.69914993      -1.48696945      -1.65053192
H       -0.47380782      -1.61651564       1.42710775
H       -1.98665217      -1.18745630       0.46714387
H       -1.52792159       0.84748708      -0.82333911
H        0.41097472       2.67256743       0.04960081
14
Frame=4 idx=010676 GeodesicLength=0.33054189907265363 rxn_smarts="[O:1](/[N:2]=[C:3]1/[C:4]([H:9])([H:10])[C:5]([H:11])([H:12])[C@:6]1([O:7][H:14])[H:13])[H:8]>>[C:4](=[C:5]([H:11])[H:12])([H:9])[H:10].[O:1]([N:2]=[C:3]=[C:6]([O:7][H:14])[H:13])[H:8]"
O        2.05902524       0.94713730       0.99123171
N        1.78174865       0.39727151      -0.29205983
C        0.53932967       0.32135465      -0.51535695
C       -0.17493996      -1.51217645      -0.67389585
C       -0.93527151      -1.33268010       0.47168934
C       -0.57628589       1.10330729      -0.40385034
O       -0.55545209       2.38613816       0.00312498
H        1.46380650       0.50816897       1.61418030
H        0.73420573      -2.09910300      -0.63893433
H       -0.66491680      -1.52279547      -1.64119127
H       -0.51929906      -1.57427078       1.44262667
H       -2.00375140      -1.16210216       0.43649012
H       -1.50678147       0.86477247      -0.90384376
H        0.35858239       2.67497760       0.10978922
14
Frame=5 idx=010676 GeodesicLength=0.4116542084918721 rxn_smarts="[O:1](/[N:2]=[C:3]1/[C:4]([H:9])([H:10])[C:5]([H:11])([H:12])[C@:6]1([O:7][H:14])[H:13])[H:8]>>[C:4](=[C:5]([H:11])[H:12])([H:9])[H:10].[O:1]([N:2]=[C:3]=[C:6]([O:7][H:14])[H:13])[H:8]"
O        2.08450422       0.94618797       0.95511436
N        1.79086911       0.42789641      -0.33451633
C        0.54714236       0.33568965      -0.53621160
C       -0.16232561      -1.52099431      -0.65297168
C       -0.95038028      -1.29825242       0.47061914
C       -0.58493176       1.09670075      -0.40836398
O       -0.59969850       2.35557769       0.07535526
H        1.53630724       0.45500234       1.58214262
H        0.73207559      -2.12727283      -0.58000054
H       -0.63158973      -1.55649020      -1.63022138
H       -0.56423696      -1.53391285       1.45548103
H       -2.01924121      -1.13804324       0.40581097
H       -1.48415607       0.88524493      -0.97494704
H        0.30566161       2.67266610       0.17270917
14
Frame=6 idx=010676 GeodesicLength=0.49324829549332094 rxn_smarts="[O:1](/[N:2]=[C:3]1/[C:4]([H:9])([H:10])[C:5]([H:11])([H:12])[C@:6]1([O:7][H:14])[H:13])[H:8]>>[C:4](=[C:5]([H:11])[H:12])([H:9])[H:10].[O:1]([N:2]=[C:3]=[C:6]([O:7][H:14])[H:13])[H:8]"
O        2.10933800       0.94758134       0.92003249
N        1.79893418       0.45780142      -0.37369104
C        0.55461329       0.34978050      -0.55464265
C       -0.15024223      -1.52909605      -0.63190183
C       -0.96572694      -1.26600021       0.46784045
C       -0.59329322       1.08998610      -0.41240385
O       -0.64221056       2.32282204       0.13893775
H        1.61096060       0.40703991       1.54794442
H        0.72757558      -2.15419800      -0.52156951
H       -0.59863133      -1.58810217      -1.61811321
H       -0.61018242      -1.49640110       1.46563899
H       -2.03405385      -1.11575038       0.37403960
H       -1.46030797       0.90850944      -1.03795980
H        0.25322688       2.66602715       0.23584818
14
Frame=7 idx=010676 GeodesicLength=0.5752322465270675 rxn_smarts="[O:1](/[N:2]=[C:3]1/[C:4]([H:9])([H:10])[C:5]([H:11])([H:12])[C@:6]1([O:7][H:14])[H:13])[H:8]>>[C:4](=[C:5]([H:11])[H:12])([H:9])[H:10].[O:1]([N:2]=[C:3]=[C:6]([O:7][H:14])[H:13])[H:8]"
O        2.13173386       0.94822337       0.88750760
N        1.80592015       0.48804289      -0.41022578
C        0.56181931       0.36457339      -0.57282068
C       -0.13808729      -1.53605255      -0.61035307
C       -0.97974725      -1.23452783       0.46439459
C       -0.60154769       1.08379656      -0.41768271
O       -0.68397788       2.28947092       0.19315195
H        1.68505747       0.35942038       1.51083321
H        0.72136315      -2.17947945      -0.46366935
H       -0.56632222      -1.61826817      -1.60418238
H       -0.65450987      -1.45923929       1.47402530
H       -2.04682645      -1.09425090       0.34297446
H       -1.43607660       0.93390312      -1.09498620
H        0.20120131       2.65438758       0.30103305
14
Frame=8 idx=010676 GeodesicLength=0.6576272489325773 rxn_smarts="[O:1](/[N:2]=[C:3]1/[C:4]([H:9])([H:10])[C:5]([H:11])([H:12])[C@:6]1([O:7][H:14])[H:13])[H:8]>>[C:4](=[C:5]([H:11])[H:12])([H:9])[H:10].[O:1]([N:2]=[C:3]=[C:6]([O:7][H:14])[H:13])[H:8]"
O        2.15273867       0.94919729       0.85674704
N        1.81199953       0.51825019      -0.44417152
C        0.56870710       0.37970100      -0.58985801
C       -0.12597743      -1.54220861      -0.58832343
C       -0.99321686      -1.20436844       0.46002541
C       -0.60972434       1.07786867      -0.42320758
O       -0.72482268       2.25555963       0.24067786
H        1.75982148       0.31442032       1.47101571
H        0.71301073      -2.20386190      -0.40609126
H       -0.53419952      -1.64690714      -1.58880605
H       -0.69859552      -1.42341046       1.48051645
H       -2.05832982      -1.07399352       0.31166287
H       -1.41148032       0.96143619      -1.14639884
H        0.15006898       2.63831678       0.36621134
14
Frame=9 idx=010676 GeodesicLength=0.7404063232763041 rxn_smarts="[O:1](/[N:2]=[C:3]1/[C:4]([H:9])([H:10])[C:5]([H:11])([H:12])[C@:6]1([O:7][H:14])[H:13])[H:8]>>[C:4](=[C:5]([H:11])[H:12])([H:9])[H:10].[O:1]([N:2]=[C:3]=[C:6]([O:7][H:14])[H:13])[H:8]"
O        2.17233118       0.95006062       0.82778782
N        1.81724564       0.54867942      -0.47578030
C        0.57528468       0.39528667      -0.60593127
C       -0.11376691      -1.54756869      -0.56563041
C       -1.00612907      -1.17533715       0.45488397
C       -0.61787911       1.07226355      -0.42903680
O       -0.76496374       2.22151029       0.28230900
H        1.83538527       0.27141485       1.42818390
H        0.70251390      -2.22745556      -0.34859877
H       -0.50201582      -1.67416626      -1.57189876
H       -0.74248011      -1.38851026       1.48532012
H       -2.06858680      -1.05494057       0.28005658
H       -1.38669443       0.99086151      -1.19288126
H        0.09975531       2.61790159       0.43121616
14
Frame=10 idx=010676 GeodesicLength=0.8235342322773781 rxn_smarts="[O:1](/[N:2]=[C:3]1/[C:4]([H:9])([H:10])[C:5]([H:11])([H:12])[C@:6]1([O:7][H:14])[H:13])[H:8]>>[C:4](=[C:5]([H:11])[H:12])([H:9])[H:10].[O:1]([N:2]=[C:3]=[C:6]([O:7][H:14])[H:13])[H:8]"
O        2.19121890       0.95151562       0.80004917
N        1.82180812       0.57894845      -0.50516069
C        0.58157262       0.41102044      -0.62055038
C       -0.10158840      -1.55245385      -0.54224673
C       -1.01895238      -1.14778225       0.44881971
C       -0.62597652       1.06676175      -0.43459324
O       -0.80409641       2.18719041       0.31968463
H        1.91233488       0.23223912       1.38258549
H        0.68936411      -2.25091563      -0.29117043
H       -0.46954939      -1.70006721      -1.55366875
H       -0.78703531      -1.35523647       1.48829991
H       -2.07800034      -1.03731189       0.24756175
H       -1.36160939       1.02233736      -1.23452494
H        0.05050949       2.59375416       0.49491450
14
Frame=11 idx=010676 GeodesicLength=0.9068461633731031 rxn_smarts="[O:1](/[N:2]=[C:3]1/[C:4]([H:9])([H:10])[C:5]([H:11])([H:12])[C@:6]1([O:7][H:14])[H:13])[H:8]>>[C:4](=[C:5]([H:11])[H:12])([H:9])[H:10].[O:1]([N:2]=[C:3]=[C:6]([O:7][H:14])[H:13])[H:8]"
O        2.20921019       0.95292763       0.77379248
N        1.82574160       0.60922180      -0.53239447
C        0.58760367       0.42704221      -0.63403742
C       -0.08930319      -1.55684574      -0.51807913
C       -1.03144416      -1.12150652       0.44201649
C       -0.63404704       1.06142465      -0.44005427
O       -0.84229077       2.15294097       0.35305972
H        1.99014317       0.19633161       1.33412939
H        0.67349981      -2.27432686      -0.23391444
H       -0.43675876      -1.72469423      -1.53402017
H       -0.83186236      -1.32322561       1.48959528
H       -2.08634983      -1.02104288       0.21441886
H       -1.33643270       1.05565689      -1.27166735
H        0.00229036       2.56609608       0.55715501
14
Frame=12 idx=010676 GeodesicLength=0.9903916904619766 rxn_smarts="[O:1](/[N:2]=[C:3]1/[C:4]([H:9])([H:10])[C:5]([H:11])([H:12])[C@:6]1([O:7][H:14])[H:13])[H:8]>>[C:4](=[C:5]([H:11])[H:12])([H:9])[H:10].[O:1]([N:2]=[C:3]=[C:6]([O:7][H:14])[H:13])[H:8]"
O        2.22690209       0.95444570       0.74837246
N        1.82911103       0.63939150      -0.55789034
C        0.59338023       0.44323685      -0.64631064
C       -0.07687103      -1.56089733      -0.49286382
C       -1.04387062      -1.09654860       0.43439576
C       -0.64207533       1.05617029      -0.44529275
O       -0.87947919       2.11865653       0.38327352
H        2.06895878       0.16460851       1.28272768
H        0.65452238      -2.29802344      -0.17650186
H       -0.40325195      -1.74819783      -1.51284638
H       -0.87760727      -1.29251216       1.48915449
H       -2.09378239      -1.00616469       0.18011025
H       -1.31107024       1.09096383      -1.30448574
H       -0.04486650       2.53487083       0.61815739
14
Frame=13 idx=010676 GeodesicLength=1.0742070486095394 rxn_smarts="[O:1](/[N:2]=[C:3]1/[C:4]([H:9])([H:10])[C:5]([H:11])([H:12])[C@:6]1([O:7][H:14])[H:13])[H:8]>>[C:4](=[C:5]([H:11])[H:12])([H:9])[H:10].[O:1]([N:2]=[C:3]=[C:6]([O:7][H:14])[H:13])[H:8]"
O        2.24387775       0.95528878       0.72418568
N        1.83192861       0.66988176      -0.58167527
C        0.59892711       0.45981458      -0.65769028
C       -0.06414093      -1.56447415      -0.46632106
C       -1.05604842      -1.07262101       0.42615042
C       -0.65011940       1.05110637      -0.45062874
O       -0.91593891       2.08453337       0.41035273
H        2.14888492       0.13575725       1.22776893
H        0.63255722      -2.32165160      -0.11882592
H       -0.36888980      -1.77064924      -1.48984928
H       -0.92402087      -1.26254979       1.48713822
H       -2.10009337      -0.99258282       0.14481700
H       -1.28558208       1.12808352      -1.33344523
H       -0.09134185       2.50006298       0.67802279
14
Frame=14 idx=010676 GeodesicLength=1.1583481441078627 rxn_smarts="[O:1](/[N:2]=[C:3]1/[C:4]([H:9])([H:10])[C:5]([H:11])([H:12])[C@:6]1([O:7][H:14])[H:13])[H:8]>>[C:4](=[C:5]([H:11])[H:12])([H:9])[H:10].[O:1]([N:2]=[C:3]=[C:6]([O:7][H:14])[H:13])[H:8]"
O        2.26052630       0.95509549       0.70081471
N        1.83421492       0.70072076      -0.60405859
C        0.60423459       0.47681001      -0.66836664
C       -0.05094820      -1.56754027      -0.43809350
C       -1.06797268      -1.04958929       0.41730767
C       -0.65820350       1.04623350      -0.45615834
O       -0.95166286       2.05058101       0.43461057
H        2.22939352       0.11011789       1.16903121
H        0.60733501      -2.34527098      -0.06068413
H       -0.33326375      -1.79209247      -1.46471642
H       -0.97135584      -1.23315926       1.48351637
H       -2.10515044      -0.98026371       0.10831454
H       -1.25997558       1.16714362      -1.35869082
H       -0.13717149       2.46121370       0.73717337
14
Frame=15 idx=010676 GeodesicLength=1.2427894461172173 rxn_smarts="[O:1](/[N:2]=[C:3]1/[C:4]([H:9])([H:10])[C:5]([H:11])([H:12])[C@:6]1([O:7][H:14])[H:13])[H:8]>>[C:4](=[C:5]([H:11])[H:12])([H:9])[H:10].[O:1]([N:2]=[C:3]=[C:6]([O:7][H:14])[H:13])[H:8]"
O        2.27775676       0.95533893       0.67733693
N        1.83619321       0.73098021      -0.62517850
C        0.60941473       0.49361904      -0.67759007
C       -0.03780595      -1.57063921      -0.40819140
C       -1.08026156      -1.02802433       0.40755301
C       -0.66609523       1.04126308      -0.46118693
O       -0.98599274       2.01644226       0.45732491
H        2.31116969       0.09047974       1.10746135
H        0.57790576      -2.36958367      -0.00252496
H       -0.29651326      -1.81257271      -1.43767510
H       -1.02067358      -1.20533997       1.47784061
H       -2.10935103      -0.96947221       0.06986971
H       -1.23402194       1.20816471      -1.37948725
H       -0.18172487       2.41934413       0.79444769
14
Frame=16 idx=010676 GeodesicLength=1.327655657936991 rxn_smarts="[O:1](/[N:2]=[C:3]1/[C:4]([H:9])([H:10])[C:5]([H:11])([H:12])[C@:6]1([O:7][H:14])[H:13])[H:8]>>[C:4](=[C:5]([H:11])[H:12])([H:9])[H:10].[O:1]([N:2]=[C:3]=[C:6]([O:7][H:14])[H:13])[H:8]"
O        2.29563209       0.95576092       0.65352001
N        1.83783327       0.76076725      -0.64534251
C        0.61446303       0.51018435      -0.68537411
C       -0.02478554      -1.57370204      -0.37610883
C       -1.09321661      -1.00777135       0.39672487
C       -0.67377841       1.03621245      -0.46572762
O       -1.01897657       1.98211638       0.47870389
H        2.39499503       0.07656191       1.04231176
H        0.54431268      -2.39389945       0.05612031
H       -0.25817155      -1.83225814      -1.40821569
H       -1.07274568      -1.17868652       1.46981181
H       -2.11269654      -0.96020593       0.02887167
H       -1.20779503       1.25082810      -1.39570924
H       -0.22507016       2.37409206       0.85041368
