13
Frame=0 idx=002915 GeodesicLength=0.0 rxn_smarts="[C:1]([C:2]1=[N:3][C:4]([H:10])([H:11])[C:5]([H:12])([H:13])[O:6]1)([H:7])([H:8])[H:9]>>[C:1]([C:2]#[N:3])([H:7])([H:8])[H:9].[C:4]([C:5](=[O:6])[H:12])([H:10])([H:11])[H:13]"
C        2.22360848      -0.12217631       0.14978476
C        0.99073982       0.58433184      -0.16553800
N        0.20525331       1.37191593      -0.50729955
C       -1.61710037       0.66231377      -0.05191211
C       -1.29224728      -0.73907021      -0.13288059
O       -0.30264009      -1.17884691       0.55051881
H        2.20847499      -0.40085671       1.20143157
H        3.08048545       0.51730778      -0.06481601
H        2.27245715      -1.03620325      -0.43790512
H       -1.54315415       1.13177070       0.92042917
H       -2.30979689       1.09808929      -0.76594728
H       -1.53475314      -1.19815995      -1.10766342
H       -2.38132731      -0.69041598       0.41179782
13
Frame=1 idx=002915 GeodesicLength=0.061060856038524965 rxn_smarts="[C:1]([C:2]1=[N:3][C:4]([H:10])([H:11])[C:5]([H:12])([H:13])[O:6]1)([H:7])([H:8])[H:9]>>[C:1]([C:2]#[N:3])([H:7])([H:8])[H:9].[C:4]([C:5](=[O:6])[H:12])([H:10])([H:11])[H:13]"
C        2.23143527      -0.12194968       0.14893035
C        0.98682773       0.56313032      -0.17034145
N        0.20868216       1.36191251      -0.51166176
C       -1.62246785       0.66216256      -0.04792068
C       -1.30180361      -0.74423075      -0.12914431
O       -0.29546978      -1.17605456       0.53804270
H        2.20889727      -0.42113905       1.19496852
H        3.07638585       0.54060755      -0.04047510
H        2.30845697      -1.02322874      -0.45546148
H       -1.55784290       1.13619376       0.92313305
H       -2.29286869       1.10116291      -0.78112241
H       -1.55502469      -1.20933363      -1.09784988
H       -2.39520773      -0.66923320       0.42890245
13
Frame=2 idx=002915 GeodesicLength=0.1219253706680894 rxn_smarts="[C:1]([C:2]1=[N:3][C:4]([H:10])([H:11])[C:5]([H:12])([H:13])[O:6]1)([H:7])([H:8])[H:9]>>[C:1]([C:2]#[N:3])([H:7])([H:8])[H:9].[C:4]([C:5](=[O:6])[H:12])([H:10])([H:11])[H:13]"
C        2.23883663      -0.12166233       0.14807500
C        0.98310392       0.54159248      -0.17659012
N        0.21222028       1.35150218      -0.51704505
C       -1.62750713       0.66206839      -0.04368725
C       -1.31127113      -0.74942314      -0.12503991
O       -0.28859671      -1.17353472       0.52549963
H        2.20882852      -0.44143669       1.18799625
H        3.07099617       0.56333868      -0.01519939
H        2.34474564      -1.00914612      -0.47241293
H       -1.57180757       1.14079838       0.92589618
H       -2.27589637       1.10386351      -0.79492447
H       -1.57456869      -1.22009728      -1.08788279
H       -2.40908355      -0.64786333       0.44531486
13
Frame=3 idx=002915 GeodesicLength=0.18258721951568185 rxn_smarts="[C:1]([C:2]1=[N:3][C:4]([H:10])([H:11])[C:5]([H:12])([H:13])[O:6]1)([H:7])([H:8])[H:9]>>[C:1]([C:2]#[N:3])([H:7])([H:8])[H:9].[C:4]([C:5](=[O:6])[H:12])([H:10])([H:11])[H:13]"
C        2.24579860      -0.12135234       0.14716636
C        0.97955479       0.51981245      -0.18396030
N        0.21586077       1.34076811      -0.52320182
C       -1.63222995       0.66203115      -0.03925287
C       -1.32055917      -0.75461641      -0.12052282
O       -0.28201363      -1.17117532       0.51313223
H        2.20850533      -0.46181523       1.18042914
H        3.06428335       0.58532031       0.01071216
H        2.38107604      -0.99392942      -0.48877600
H       -1.58525567       1.14560127       0.92867560
H       -2.25888690       1.10612846      -0.80753859
H       -1.59313763      -1.23046046      -1.07776856
H       -2.42299592      -0.62631259       0.46090548
13
Frame=4 idx=002915 GeodesicLength=0.24306780082459206 rxn_smarts="[C:1]([C:2]1=[N:3][C:4]([H:10])([H:11])[C:5]([H:12])([H:13])[O:6]1)([H:7])([H:8])[H:9]>>[C:1]([C:2]#[N:3])([H:7])([H:8])[H:9].[C:4]([C:5](=[O:6])[H:12])([H:10])([H:11])[H:13]"
C        2.25231628      -0.12105665       0.14615280
C        0.97616951       0.49791985      -0.19214544
N        0.21960002       1.32983107      -0.52990107
C       -1.63665416       0.66205651      -0.03465051
C       -1.32958434      -0.75980465      -0.11556013
O       -0.27570996      -1.16889455       0.50117967
H        2.20815321      -0.48231795       1.17221260
H        3.05626476       0.60637269       0.03696370
H        2.41718950      -0.97758979      -0.50457757
H       -1.59839981       1.15062936       0.93145437
H       -2.24183915       1.10791437      -0.81914178
H       -1.61050230      -1.24046284      -1.06753984
H       -2.43700356      -0.60459742       0.47555320
13
Frame=5 idx=002915 GeodesicLength=0.3031364506791871 rxn_smarts="[C:1]([C:2]1=[N:3][C:4]([H:10])([H:11])[C:5]([H:12])([H:13])[O:6]1)([H:7])([H:8])[H:9]>>[C:1]([C:2]#[N:3])([H:7])([H:8])[H:9].[C:4]([C:5](=[O:6])[H:12])([H:10])([H:11])[H:13]"
C        2.25840336      -0.12084059       0.14499852
C        0.97293914       0.47612036      -0.20078620
N        0.22343275       1.31882412      -0.53678037
C       -1.64084530       0.66213266      -0.02992452
C       -1.33827501      -0.76495091      -0.11008511
O       -0.26970005      -1.16650016       0.48998694
H        2.20797973      -0.50300514       1.16334661
H        3.04705966       0.62643428       0.06314124
H        2.45268983      -0.96033904      -0.51998241
H       -1.61156076       1.15586534       0.93416672
H       -2.22465772       1.10921193      -0.82995363
H       -1.62632710      -1.25011094      -1.05719902
H       -2.45113852      -0.58284191       0.48907124
13
Frame=6 idx=002915 GeodesicLength=0.3631261748479648 rxn_smarts="[C:1]([C:2]1=[N:3][C:4]([H:10])([H:11])[C:5]([H:12])([H:13])[O:6]1)([H:7])([H:8])[H:9]>>[C:1]([C:2]#[N:3])([H:7])([H:8])[H:9].[C:4]([C:5](=[O:6])[H:12])([H:10])([H:11])[H:13]"
C        2.26408602      -0.12067018       0.14367909
C        0.96986687       0.45429493      -0.20988444
N        0.22736878       1.30764384      -0.54406745
C       -1.64474288       0.66228023      -0.02509942
C       -1.34663890      -0.77006916      -0.10412316
O       -0.26391659      -1.16408383       0.47942077
H        2.20805199      -0.52399354       1.15371709
H        3.03660189       0.64541556       0.08961217
H        2.48781389      -0.94181405      -0.53498648
H       -1.62461779       1.16139111       0.93677384
H       -2.20748664       1.10998789      -0.83994741
H       -1.64091817      -1.25951443      -1.04669485
H       -2.46546847      -0.56086838       0.50160025
13
Frame=7 idx=002915 GeodesicLength=0.42283323886039714 rxn_smarts="[C:1]([C:2]1=[N:3][C:4]([H:10])([H:11])[C:5]([H:12])([H:13])[O:6]1)([H:7])([H:8])[H:9]>>[C:1]([C:2]#[N:3])([H:7])([H:8])[H:9].[C:4]([C:5](=[O:6])[H:12])([H:10])([H:11])[H:13]"
C        2.26938415      -0.12057289       0.14222432
C        0.96696100       0.43255914      -0.21932451
N        0.23139588       1.29639497      -0.55153256
C       -1.64839945       0.66248692      -0.02014131
C       -1.35464851      -0.77515146      -0.09769521
O       -0.25834540      -1.16158529       0.46957699
H        2.20836100      -0.54511891       1.14340734
H        3.02503932       0.66336256       0.11591334
H        2.52229536      -0.92238728      -0.54946851
H       -1.63772257       1.16711322       0.93933075
H       -2.19025243       1.11030902      -0.84918843
H       -1.65411496      -1.26860541      -1.03613395
H       -2.47995338      -0.53880457       0.51303173
13
Frame=8 idx=002915 GeodesicLength=0.4824331852926233 rxn_smarts="[C:1]([C:2]1=[N:3][C:4]([H:10])([H:11])[C:5]([H:12])([H:13])[O:6]1)([H:7])([H:8])[H:9]>>[C:1]([C:2]#[N:3])([H:7])([H:8])[H:9].[C:4]([C:5](=[O:6])[H:12])([H:10])([H:11])[H:13]"
C        2.27430695      -0.12052405       0.14063645
C        0.96421567       0.41079542      -0.22921108
N        0.23552481       1.28489605      -0.55952800
C       -1.65173291       0.66276186      -0.01508569
C       -1.36234005      -0.78019197      -0.09081807
O       -0.25293560      -1.15907676       0.46027702
H        2.20897316      -0.56655130       1.13234547
H        3.01226319       0.68023798       0.14260582
H        2.55638593      -0.90162526      -0.56352665
H       -1.65068149       1.17310268       0.94175998
H       -2.17306841       1.11017245      -0.85763086
H       -1.66630487      -1.27749708      -1.02538524
H       -2.49460638      -0.51650003       0.52356086
13
Frame=9 idx=002915 GeodesicLength=0.5419576269766546 rxn_smarts="[C:1]([C:2]1=[N:3][C:4]([H:10])([H:11])[C:5]([H:12])([H:13])[O:6]1)([H:7])([H:8])[H:9]>>[C:1]([C:2]#[N:3])([H:7])([H:8])[H:9].[C:4]([C:5](=[O:6])[H:12])([H:10])([H:11])[H:13]"
C        2.27889824      -0.12053884       0.13882953
C        0.96159648       0.38915531      -0.23909074
N        0.23973730       1.27340539      -0.56753255
C       -1.65484473       0.66310661      -0.00993490
C       -1.36962447      -0.78519496      -0.08345324
O       -0.24770246      -1.15646193       0.45187379
H        2.21015374      -0.58819851       1.12044879
H        2.99848412       0.69577431       0.16906862
H        2.58966827      -0.87973939      -0.57711853
H       -1.66388918       1.17935727       0.94405802
H       -2.15588263       1.10951315      -0.86550351
H       -1.67708747      -1.28619065      -1.01455161
H       -2.50950720      -0.49398777       0.53290633
13
Frame=10 idx=002915 GeodesicLength=0.6010506256789767 rxn_smarts="[C:1]([C:2]1=[N:3][C:4]([H:10])([H:11])[C:5]([H:12])([H:13])[O:6]1)([H:7])([H:8])[H:9]>>[C:1]([C:2]#[N:3])([H:7])([H:8])[H:9].[C:4]([C:5](=[O:6])[H:12])([H:10])([H:11])[H:13]"
C        2.28312937      -0.12071837       0.13690934
C        0.95914650       0.36771460      -0.24912564
N        0.24400809       1.26185525      -0.57555844
C       -1.65773420       0.66349332      -0.00464128
C       -1.37648046      -0.79009516      -0.07568312
O       -0.24255615      -1.15360034       0.44428153
H        2.21160187      -0.60979692       1.10800668
H        2.98382427       0.71030416       0.19498717
H        2.62200503      -0.85730480      -0.59015964
H       -1.67730062       1.18567919       0.94628950
H       -2.13865861       1.10852531      -0.87262024
H       -1.68642507      -1.29452507      -1.00372107
H       -2.52456002      -0.47153118       0.54103521
13
Frame=11 idx=002915 GeodesicLength=0.6600566553821552 rxn_smarts="[C:1]([C:2]1=[N:3][C:4]([H:10])([H:11])[C:5]([H:12])([H:13])[O:6]1)([H:7])([H:8])[H:9]>>[C:1]([C:2]#[N:3])([H:7])([H:8])[H:9].[C:4]([C:5](=[O:6])[H:12])([H:10])([H:11])[H:13]"
C        2.28710742      -0.12103135       0.13472641
C        0.95679702       0.34656086      -0.25888995
N        0.24834630       1.25046905      -0.58329832
C       -1.66049207       0.66395186       0.00070003
C       -1.38289424      -0.79493052      -0.06739693
O       -0.23753992      -1.15045833       0.43786907
H        2.21383860      -0.63164310       1.09473508
H        2.96848187       0.72338358       0.22050935
H        2.65325166      -0.83389583      -0.60298487
H       -1.69129227       1.19226563       0.94830443
H       -2.12139341       1.10702052      -0.87932876
H       -1.69422976      -1.30275031      -0.99277095
H       -2.53998119      -0.44894204       0.54782541
13
Frame=12 idx=002915 GeodesicLength=0.7191426813718365 rxn_smarts="[C:1]([C:2]1=[N:3][C:4]([H:10])([H:11])[C:5]([H:12])([H:13])[O:6]1)([H:7])([H:8])[H:9]>>[C:1]([C:2]#[N:3])([H:7])([H:8])[H:9].[C:4]([C:5](=[O:6])[H:12])([H:10])([H:11])[H:13]"
C        2.29088497      -0.12149398       0.13223781
C        0.95454393       0.32559978      -0.26833600
N        0.25275411       1.23913194      -0.59083967
C       -1.66311106       0.66450126       0.00604139
C       -1.38888204      -0.79969692      -0.05852537
O       -0.23262121      -1.14704157       0.43267870
H        2.21696096      -0.65405432       1.08040662
H        2.95234164       0.73504958       0.24607142
H        2.68358014      -0.80916511      -0.61579465
H       -1.70587384       1.19926486       0.94997229
H       -2.10410090       1.10496701      -0.88572367
H       -1.70068037      -1.31099237      -0.98153103
H       -2.55579632      -0.42607016       0.55334217
13
Frame=13 idx=002915 GeodesicLength=0.7778574794460918 rxn_smarts="[C:1]([C:2]1=[N:3][C:4]([H:10])([H:11])[C:5]([H:12])([H:13])[O:6]1)([H:7])([H:8])[H:9]>>[C:1]([C:2]#[N:3])([H:7])([H:8])[H:9].[C:4]([C:5](=[O:6])[H:12])([H:10])([H:11])[H:13]"
C        2.29431599      -0.12202678       0.12968496
C        0.95246477       0.30475262      -0.27812730
N        0.25722031       1.22765742      -0.59876960
C       -1.66544358       0.66508545       0.01159243
C       -1.39447218      -0.80436611      -0.04934938
O       -0.22767189      -1.14348032       0.42793662
H        2.22019870      -0.67626485       1.06551651
H        2.93540744       0.74561629       0.27132855
H        2.71310781      -0.78378372      -0.62775647
H       -1.72043682       1.20625509       0.95157286
H       -2.08691416       1.10266407      -0.89122788
H       -1.70615605      -1.31890373      -0.97024457
H       -2.57162033      -0.40320542       0.55784328
13
Frame=14 idx=002915 GeodesicLength=0.8365789050876665 rxn_smarts="[C:1]([C:2]1=[N:3][C:4]([H:10])([H:11])[C:5]([H:12])([H:13])[O:6]1)([H:7])([H:8])[H:9]>>[C:1]([C:2]#[N:3])([H:7])([H:8])[H:9].[C:4]([C:5](=[O:6])[H:12])([H:10])([H:11])[H:13]"
C        2.29757571      -0.12269987       0.12686098
C        0.95046014       0.28412131      -0.28759925
N        0.26173081       1.21628627      -0.60639625
C       -1.66767161       0.66574832       0.01719856
C       -1.39963200      -0.80895892      -0.03965508
O       -0.22277109      -1.13963211       0.42437658
H        2.22425436      -0.69877439       1.04967969
H        2.91791326       0.75475576       0.29633557
H        2.74158090      -0.75738586      -0.63955200
H       -1.73564792       1.21354116       0.95286774
H       -2.06971022       1.09991582      -0.89636688
H       -1.71030069      -1.32677930      -0.95874653
H       -2.58778166      -0.38013819       0.56099688
13
Frame=15 idx=002915 GeodesicLength=0.8952629831639874 rxn_smarts="[C:1]([C:2]1=[N:3][C:4]([H:10])([H:11])[C:5]([H:12])([H:13])[O:6]1)([H:7])([H:8])[H:9]>>[C:1]([C:2]#[N:3])([H:7])([H:8])[H:9].[C:4]([C:5](=[O:6])[H:12])([H:10])([H:11])[H:13]"
C        2.30064562      -0.12350484       0.12381669
C        0.94856843       0.26363090      -0.29701453
N        0.26630782       1.20488839      -0.61406019
C       -1.66973458       0.66649620       0.02287270
C       -1.40439555      -0.81345894      -0.02943760
O       -0.21785466      -1.13550663       0.42178768
H        2.22895331      -0.72171566       1.03278601
H        2.89969689       0.76256627       0.32151104
H        2.76922760      -0.72978261      -0.65111024
H       -1.75129971       1.22113469       0.95381536
H       -2.05252282       1.09675563      -0.90105905
H       -1.71341114      -1.33465029      -0.94688896
H       -2.60418120      -0.35685312       0.56298108
13
Frame=16 idx=002915 GeodesicLength=0.9539441685021967 rxn_smarts="[C:1]([C:2]1=[N:3][C:4]([H:10])([H:11])[C:5]([H:12])([H:13])[O:6]1)([H:7])([H:8])[H:9]>>[C:1]([C:2]#[N:3])([H:7])([H:8])[H:9].[C:4]([C:5](=[O:6])[H:12])([H:10])([H:11])[H:13]"
C        2.30354669      -0.12442988       0.12055985
C        0.94677583       0.24319453      -0.30641029
N        0.27095032       1.19337066      -0.62187087
C       -1.67162441       0.66734751       0.02857974
C       -1.40878585      -0.81784391      -0.01862273
O       -0.21290652      -1.13110321       0.42016476
H        2.23431389      -0.74536657       1.01457329
H        2.88061462       0.76902761       0.34724535
H        2.79622532      -0.70063099      -0.66251605
H       -1.76734669       1.22913329       0.95428531
H       -2.03535040       1.09313747      -0.90538169
H       -1.71565771      -1.34259609      -0.93448207
H       -2.62075509      -0.33324042       0.56387541
