10
Frame=0 idx=000440 GeodesicLength=0.0 rxn_smarts="[O:1]([c:2]1[c:3]([H:8])[n:4]([H:9])[n:5][c:6]1[H:10])[H:7]>>[O:1]([c:2]1[c+:3]([H:8])[n:4]([H:9])[n:5]([H:10])[c-:6]1)[H:7]"
O        2.17423196      -0.18498478      -0.14462386
C        0.85036916       0.07625191      -0.02397952
C       -0.17665524      -0.78942099       0.23445906
N       -1.32729439      -0.07550711       0.18702993
N       -1.05620949       1.24261575       0.03525267
C        0.31929093       1.39552254      -0.12274116
H        2.33708254      -1.12311799      -0.03422332
H       -0.18872746      -1.84793682       0.44867652
H       -2.25657741      -0.37992092       0.41664832
H       -0.67551058       1.68649841      -0.99649863
10
Frame=1 idx=000440 GeodesicLength=0.03654766176762553 rxn_smarts="[O:1]([c:2]1[c:3]([H:8])[n:4]([H:9])[n:5][c:6]1[H:10])[H:7]>>[O:1]([c:2]1[c+:3]([H:8])[n:4]([H:9])[n:5]([H:10])[c-:6]1)[H:7]"
O        2.17303159      -0.18557939      -0.15060925
C        0.84940861       0.07413461      -0.02331344
C       -0.17671049      -0.79224543       0.23638839
N       -1.32872635      -0.08015525       0.17559760
N       -1.05516544       1.23849170       0.03330952
C        0.31588152       1.39230117      -0.11968643
H        2.33813182      -1.12231870      -0.03196086
H       -0.18785730      -1.84945742       0.45698997
H       -2.25514479      -0.38072368       0.42192594
H       -0.67284917       1.70555239      -0.99864143
10
Frame=2 idx=000440 GeodesicLength=0.0730706251619291 rxn_smarts="[O:1]([c:2]1[c:3]([H:8])[n:4]([H:9])[n:5][c:6]1[H:10])[H:7]>>[O:1]([c:2]1[c+:3]([H:8])[n:4]([H:9])[n:5]([H:10])[c-:6]1)[H:7]"
O        2.17184824      -0.18614128      -0.15611514
C        0.84851396       0.07212477      -0.02218348
C       -0.17661630      -0.79470594       0.23996068
N       -1.32991753      -0.08453318       0.16573832
N       -1.05409117       1.23443539       0.03119398
C        0.31244857       1.38903469      -0.11755974
H        2.33912408      -1.12152077      -0.02997186
H       -0.18718026      -1.85131891       0.46341543
H       -2.25370966      -0.38144603       0.42659660
H       -0.67041993       1.72407126      -1.00107479
10
Frame=3 idx=000440 GeodesicLength=0.10960979957505414 rxn_smarts="[O:1]([c:2]1[c:3]([H:8])[n:4]([H:9])[n:5][c:6]1[H:10])[H:7]>>[O:1]([c:2]1[c+:3]([H:8])[n:4]([H:9])[n:5]([H:10])[c-:6]1)[H:7]"
O        2.17047682      -0.18709800      -0.16318605
C        0.84759703       0.06995273      -0.02171606
C       -0.17650294      -0.79714012       0.24365995
N       -1.33094223      -0.08876154       0.15686951
N       -1.05289923       1.23043757       0.02945168
C        0.30906659       1.38563636      -0.11613955
H        2.34045495      -1.12041850      -0.02568864
H       -0.18657708      -1.85335683       0.46898297
H       -2.25226528      -0.38218651       0.43074281
H       -0.66840862       1.74293484      -1.00297661
10
Frame=4 idx=000440 GeodesicLength=0.14614324791277217 rxn_smarts="[O:1]([c:2]1[c:3]([H:8])[n:4]([H:9])[n:5][c:6]1[H:10])[H:7]>>[O:1]([c:2]1[c+:3]([H:8])[n:4]([H:9])[n:5]([H:10])[c-:6]1)[H:7]"
O        2.16903114      -0.18808449      -0.17006064
C        0.84672233       0.06785661      -0.02066831
C       -0.17633739      -0.79948248       0.24796763
N       -1.33185580      -0.09304096       0.14828473
N       -1.05176954       1.22635059       0.02755763
C        0.30564687       1.38222461      -0.11475662
H        2.34160428      -1.11946146      -0.02302998
H       -0.18586761      -1.85515506       0.47590342
H       -2.25099769      -0.38323376       0.43333146
H       -0.66617659       1.76202639      -1.00452932
10
Frame=5 idx=000440 GeodesicLength=0.18266857121506905 rxn_smarts="[O:1]([c:2]1[c:3]([H:8])[n:4]([H:9])[n:5][c:6]1[H:10])[H:7]>>[O:1]([c:2]1[c+:3]([H:8])[n:4]([H:9])[n:5]([H:10])[c-:6]1)[H:7]"
O        2.16761679      -0.18903369      -0.17626334
C        0.84586753       0.06578928      -0.01949148
C       -0.17610679      -0.80160172       0.25321735
N       -1.33261620      -0.09721377       0.14060310
N       -1.05064181       1.22227135       0.02543293
C        0.30219627       1.37875081      -0.11416343
H        2.34270529      -1.11852953      -0.02051237
H       -0.18522826      -1.85720949       0.48145250
H       -2.24970017      -0.38419906       0.43594089
H       -0.66409266       1.78097583      -1.00621616
10
Frame=6 idx=000440 GeodesicLength=0.2192025225877621 rxn_smarts="[O:1]([c:2]1[c:3]([H:8])[n:4]([H:9])[n:5][c:6]1[H:10])[H:7]>>[O:1]([c:2]1[c+:3]([H:8])[n:4]([H:9])[n:5]([H:10])[c-:6]1)[H:7]"
O        2.16628262      -0.18982131      -0.18149716
C        0.84506672       0.06383186      -0.01774352
C       -0.17580045      -0.80356094       0.25924469
N       -1.33326912      -0.10144040       0.13326045
N       -1.04961822       1.21810506       0.02295314
C        0.29867111       1.37527263      -0.11384440
H        2.34354076      -1.11788509      -0.01972287
H       -0.18451852      -1.85917764       0.48742303
H       -2.24851184      -0.38531986       0.43778523
H       -0.66184305       1.79999568      -1.00785858
10
Frame=7 idx=000440 GeodesicLength=0.2557540538845296 rxn_smarts="[O:1]([c:2]1[c:3]([H:8])[n:4]([H:9])[n:5][c:6]1[H:10])[H:7]>>[O:1]([c:2]1[c+:3]([H:8])[n:4]([H:9])[n:5]([H:10])[c-:6]1)[H:7]"
O        2.16492744      -0.19062939      -0.18656295
C        0.84427561       0.06187410      -0.01589336
C       -0.17547937      -0.80546454       0.26549814
N       -1.33382992      -0.10574321       0.12612175
N       -1.04864478       1.21384652       0.02030757
C        0.29510633       1.37173264      -0.11381587
H        2.34427906      -1.11736042      -0.01948336
H       -0.18372828      -1.86102935       0.49395461
H       -2.24737848      -0.38661377       0.43901727
H       -0.65952761       1.81938743      -1.00914379
10
Frame=8 idx=000440 GeodesicLength=0.29234361519327545 rxn_smarts="[O:1]([c:2]1[c:3]([H:8])[n:4]([H:9])[n:5][c:6]1[H:10])[H:7]>>[O:1]([c:2]1[c+:3]([H:8])[n:4]([H:9])[n:5]([H:10])[c-:6]1)[H:7]"
O        2.16348197      -0.19156341      -0.19193058
C        0.84348559       0.05988119      -0.01406699
C       -0.17515061      -0.80735986       0.27185485
N       -1.33430759      -0.11013768       0.11912019
N       -1.04770896       1.20949263       0.01754913
C        0.29150856       1.36811676      -0.11407627
H        2.34501856      -1.11685038      -0.01923112
H       -0.18286745      -1.86277420       0.50101992
H       -2.24629690      -0.38807083       0.43970425
H       -0.65716316       1.83926577      -1.00994338
10
Frame=9 idx=000440 GeodesicLength=0.32893395555004956 rxn_smarts="[O:1]([c:2]1[c:3]([H:8])[n:4]([H:9])[n:5][c:6]1[H:10])[H:7]>>[O:1]([c:2]1[c+:3]([H:8])[n:4]([H:9])[n:5]([H:10])[c-:6]1)[H:7]"
O        2.16190065      -0.19270880      -0.19793267
C        0.84268282       0.05780856      -0.01242314
C       -0.17483858      -0.80929755       0.27809978
N       -1.33471563      -0.11465032       0.11213330
N       -1.04680015       1.20502899       0.01472014
C        0.28789273       1.36440637      -0.11460295
H        2.34583089      -1.11628351      -0.01861704
H       -0.18193209      -1.86436702       0.50886263
H       -2.24526288      -0.38972148       0.43982325
H       -0.65475775       1.85978477      -1.01006329
10
Frame=10 idx=000440 GeodesicLength=0.36551367228193193 rxn_smarts="[O:1]([c:2]1[c:3]([H:8])[n:4]([H:9])[n:5][c:6]1[H:10])[H:7]>>[O:1]([c:2]1[c+:3]([H:8])[n:4]([H:9])[n:5]([H:10])[c-:6]1)[H:7]"
O        2.16019515      -0.19402472      -0.20445646
C        0.84188304       0.05568263      -0.01082915
C       -0.17454958      -0.81130859       0.28422442
N       -1.33505765      -0.11934663       0.10496013
N       -1.04594252       1.20042269       0.01175220
C        0.28424958       1.36062112      -0.11526234
H        2.34665393      -1.11572936      -0.01818717
H       -0.18089854      -1.86569823       0.51809262
H       -2.24431738      -0.39164174       0.43909744
H       -0.65221602       1.88102283      -1.00939169
10
Frame=11 idx=000440 GeodesicLength=0.4021346135214882 rxn_smarts="[O:1]([c:2]1[c:3]([H:8])[n:4]([H:9])[n:5][c:6]1[H:10])[H:7]>>[O:1]([c:2]1[c+:3]([H:8])[n:4]([H:9])[n:5]([H:10])[c-:6]1)[H:7]"
O        2.15825424      -0.19562586      -0.21172424
C        0.84107661       0.05350381      -0.00926347
C       -0.17422747      -0.81328711       0.29035162
N       -1.33531345      -0.12419797       0.09765339
N       -1.04516828       1.19564180       0.00858878
C        0.28053569       1.35671544      -0.11606089
H        2.34746739      -1.11519276      -0.01783683
H       -0.17971994      -1.86666732       0.52873955
H       -2.24342915      -0.39396003       0.43737307
H       -0.64947565       1.90307001      -1.00782099
10
Frame=12 idx=000440 GeodesicLength=0.4387648011749421 rxn_smarts="[O:1]([c:2]1[c:3]([H:8])[n:4]([H:9])[n:5][c:6]1[H:10])[H:7]>>[O:1]([c:2]1[c+:3]([H:8])[n:4]([H:9])[n:5]([H:10])[c-:6]1)[H:7]"
O        2.15619490      -0.19739891      -0.21937608
C        0.84027712       0.05128199      -0.00774163
C       -0.17391544      -0.81528166       0.29647388
N       -1.33549604      -0.12922788       0.09025829
N       -1.04445333       1.19070344       0.00514626
C        0.27678595       1.35271862      -0.11718518
H        2.34830976      -1.11463856      -0.01744265
H       -0.17849214      -1.86745362       0.54017448
H       -2.24258368      -0.39647752       0.43520514
H       -0.64662710       1.92577410      -1.00551250
10
Frame=13 idx=000440 GeodesicLength=0.47537159057677664 rxn_smarts="[O:1]([c:2]1[c:3]([H:8])[n:4]([H:9])[n:5][c:6]1[H:10])[H:7]>>[O:1]([c:2]1[c+:3]([H:8])[n:4]([H:9])[n:5]([H:10])[c-:6]1)[H:7]"
O        2.15401708      -0.19933197      -0.22730244
C        0.83948546       0.04902627      -0.00622733
C       -0.17360410      -0.81728259       0.30264545
N       -1.33559464      -0.13442803       0.08280101
N       -1.04380149       1.18560968       0.00137690
C        0.27298498       1.34862382      -0.11867961
H        2.34915473      -1.11409343      -0.01713677
H       -0.17720461      -1.86803292       0.55240161
H       -2.24177046      -0.39919919       0.43255798
H       -0.64366695       1.94910836      -1.00243680
10
Frame=14 idx=000440 GeodesicLength=0.5120108275334607 rxn_smarts="[O:1]([c:2]1[c:3]([H:8])[n:4]([H:9])[n:5][c:6]1[H:10])[H:7]>>[O:1]([c:2]1[c+:3]([H:8])[n:4]([H:9])[n:5]([H:10])[c-:6]1)[H:7]"
O        2.15174583      -0.20140646      -0.23532528
C        0.83869741       0.04674079      -0.00475010
C       -0.17327849      -0.81924759       0.30894477
N       -1.33561877      -0.13977679       0.07540973
N       -1.04321933       1.18036653      -0.00277909
C        0.26912291       1.34441506      -0.12069601
H        2.35000999      -1.11354404      -0.01678945
H       -0.17588093      -1.86849287       0.56495904
H       -2.24096202      -0.40206302       0.42970910
H       -0.64061660       1.97300839      -0.99868270
10
Frame=15 idx=000440 GeodesicLength=0.5486550904828555 rxn_smarts="[O:1]([c:2]1[c:3]([H:8])[n:4]([H:9])[n:5][c:6]1[H:10])[H:7]>>[O:1]([c:2]1[c+:3]([H:8])[n:4]([H:9])[n:5]([H:10])[c-:6]1)[H:7]"
O        2.14939594      -0.20361402      -0.24337502
C        0.83791122       0.04442547      -0.00332680
C       -0.17294055      -0.82117483       0.31535385
N       -1.33557178      -0.14527962       0.06808039
N       -1.04270974       1.17496552      -0.00736609
C        0.26519423       1.34008033      -0.12328669
H        2.35086634      -1.11300326      -0.01642004
H       -0.17451674      -1.86881523       0.57783876
H       -2.24014702      -0.40505894       0.42669960
H       -0.63748190       1.99747457      -0.99419796
10
Frame=16 idx=000440 GeodesicLength=0.5853171163333838 rxn_smarts="[O:1]([c:2]1[c:3]([H:8])[n:4]([H:9])[n:5][c:6]1[H:10])[H:7]>>[O:1]([c:2]1[c+:3]([H:8])[n:4]([H:9])[n:5]([H:10])[c-:6]1)[H:7]"
O        2.14698877      -0.20593638      -0.25135037
C        0.83712630       0.04208816      -0.00196108
C       -0.17258672      -0.82304507       0.32189635
N       -1.33545937      -0.15094109       0.06084201
N       -1.04227775       1.16940104      -0.01243708
C        0.26119288       1.33561289      -0.12652892
H        2.35171119      -1.11248492      -0.01603652
H       -0.17311455      -1.86901949       0.59092673
H       -2.23931663      -0.40816922       0.42362045
H       -0.63426410       2.02249408      -0.98897158
