13
Frame=0 idx=004985 GeodesicLength=0.0 rxn_smarts="[C:1]1([H:7])([H:8])[C:2]([H:9])([H:10])[O:3][C:4]([H:11])=[N:5][C:6]1([H:12])[H:13]>>[C:1]1([H:7])([H:8])[C:2]([H:9])([H:10])[O+:3]=[C:4]([H:11])[N:5]([H:12])[C-:6]1[H:13]"
C        0.59151362      -0.91042705       0.46639950
C       -0.85388139      -0.97804130      -0.03604343
O       -1.54401160       0.24381628       0.23604958
C       -0.90781009       1.34925505      -0.19460035
N        0.34463123       1.35666418      -0.49408395
C        1.23997979       0.31080708      -0.10906795
H        0.56687274      -0.88551126       1.56009734
H        1.12538807      -1.82019477       0.18049563
H       -0.87325916      -1.16060668      -1.11448609
H       -1.43382184      -1.75378390       0.46121347
H       -1.52374387       2.23367175      -0.25946972
H        1.19409687       1.78054487       0.09813634
H        2.07404566       0.23380575      -0.79464042
13
Frame=1 idx=004985 GeodesicLength=0.04263853061540327 rxn_smarts="[C:1]1([H:7])([H:8])[C:2]([H:9])([H:10])[O:3][C:4]([H:11])=[N:5][C:6]1([H:12])[H:13]>>[C:1]1([H:7])([H:8])[C:2]([H:9])([H:10])[O+:3]=[C:4]([H:11])[N:5]([H:12])[C-:6]1[H:13]"
C        0.59041247      -0.90699385       0.46747295
C       -0.85315242      -0.97940879      -0.03789359
O       -1.54674794       0.24130600       0.23029753
C       -0.90883096       1.34883662      -0.19299200
N        0.34392012       1.35921154      -0.48941928
C        1.23857776       0.31289597      -0.11211744
H        0.56392423      -0.87789543       1.56105481
H        1.12636639      -1.81704807       0.18636098
H       -0.87037852      -1.16429741      -1.11603792
H       -1.43218984      -1.75568233       0.45959592
H       -1.52532711       2.23298473      -0.25747208
H        1.20869222       1.77702031       0.10778699
H        2.06473360       0.22907071      -0.80663686
13
Frame=2 idx=004985 GeodesicLength=0.08528166755134695 rxn_smarts="[C:1]1([H:7])([H:8])[C:2]([H:9])([H:10])[O:3][C:4]([H:11])=[N:5][C:6]1([H:12])[H:13]>>[C:1]1([H:7])([H:8])[C:2]([H:9])([H:10])[O+:3]=[C:4]([H:11])[N:5]([H:12])[C-:6]1[H:13]"
C        0.58930533      -0.90353975       0.46852446
C       -0.85241786      -0.98077756      -0.03973398
O       -1.54946774       0.23879452       0.22448335
C       -0.90989343       1.34840155      -0.19143684
N        0.34316861       1.36175681      -0.48475423
C        1.23713932       0.31502919      -0.11515469
H        0.56096039      -0.87029011       1.56197208
H        1.12735561      -1.81383217       0.19217878
H       -0.86748382      -1.16803397      -1.11756345
H       -1.43054929      -1.75755700       0.45802779
H       -1.52694213       2.23229365      -0.25543467
H        1.22353963       1.77328657       0.11737168
H        2.05528540       0.22446826      -0.81848027
13
Frame=3 idx=004985 GeodesicLength=0.1279261927952279 rxn_smarts="[C:1]1([H:7])([H:8])[C:2]([H:9])([H:10])[O:3][C:4]([H:11])=[N:5][C:6]1([H:12])[H:13]>>[C:1]1([H:7])([H:8])[C:2]([H:9])([H:10])[O+:3]=[C:4]([H:11])[N:5]([H:12])[C-:6]1[H:13]"
C        0.58819153      -0.90006799       0.46954847
C       -0.85168154      -0.98214589      -0.04155901
O       -1.55216804       0.23628547       0.21861943
C       -0.91100067       1.34794900      -0.18994339
N        0.34237096       1.36429369      -0.48010580
C        1.23566151       0.31721217      -0.11816950
H        0.55798853      -0.86271291       1.56284422
H        1.12835304      -1.81054644       0.19792539
H       -0.86458730      -1.17181590      -1.11905593
H       -1.42890307      -1.75940519       0.45651652
H       -1.52859073       2.23159858      -0.25336215
H        1.23863583       1.76934355       0.12687111
H        2.04572994       0.22001186      -0.83012935
13
Frame=4 idx=004985 GeodesicLength=0.17057603936985083 rxn_smarts="[C:1]1([H:7])([H:8])[C:2]([H:9])([H:10])[O:3][C:4]([H:11])=[N:5][C:6]1([H:12])[H:13]>>[C:1]1([H:7])([H:8])[C:2]([H:9])([H:10])[O+:3]=[C:4]([H:11])[N:5]([H:12])[C-:6]1[H:13]"
C        0.58706608      -0.89656756       0.47055701
C       -0.85093890      -0.98352108      -0.04338311
O       -1.55485889       0.23376818       0.21266402
C       -0.91215872       1.34747288      -0.18853794
N        0.34152431       1.36682247      -0.47548499
C        1.23414205       0.31944459      -0.12117279
H        0.55498209      -0.85512500       1.56368250
H        1.12936424      -1.80718401       0.20364634
H       -0.86166208      -1.17566210      -1.12052809
H       -1.42724845      -1.76123328       0.45504780
H       -1.53025670       2.23091849      -0.25114843
H        1.25399024       1.76518038       0.13626859
H        2.03605473       0.21568603      -0.84161093
13
Frame=5 idx=004985 GeodesicLength=0.21323480386308452 rxn_smarts="[C:1]1([H:7])([H:8])[C:2]([H:9])([H:10])[O:3][C:4]([H:11])=[N:5][C:6]1([H:12])[H:13]>>[C:1]1([H:7])([H:8])[C:2]([H:9])([H:10])[O+:3]=[C:4]([H:11])[N:5]([H:12])[C-:6]1[H:13]"
C        0.58592941      -0.89303456       0.47155574
C       -0.85018677      -0.98490282      -0.04520907
O       -1.55754229       0.23124080       0.20661079
C       -0.91336670       1.34697722      -0.18720432
N        0.34062918       1.36935233      -0.47087329
C        1.23258232       0.32172708      -0.12416724
H        0.55193457      -0.84751504       1.56449264
H        1.13039258      -1.80374173       0.20935420
H       -0.85869827      -1.17956928      -1.12198349
H       -1.42558202      -1.76304497       0.45361294
H       -1.53195237       2.23024835      -0.24880824
H        1.26962166       1.76078266       0.14557581
H        2.02623871       0.21147997      -0.85295647
13
Frame=6 idx=004985 GeodesicLength=0.2559111811289407 rxn_smarts="[C:1]1([H:7])([H:8])[C:2]([H:9])([H:10])[O:3][C:4]([H:11])=[N:5][C:6]1([H:12])[H:13]>>[C:1]1([H:7])([H:8])[C:2]([H:9])([H:10])[O+:3]=[C:4]([H:11])[N:5]([H:12])[C-:6]1[H:13]"
C        0.58478070      -0.88946417       0.47254962
C       -0.84942118      -0.98628938      -0.04703938
O       -1.56021817       0.22869885       0.20045352
C       -0.91462230       1.34646679      -0.18591878
N        0.33968666       1.37189264      -0.46624764
C        1.23098229       0.32406060      -0.12715656
H        0.54883935      -0.83987146       1.56527807
H        1.13143974      -1.80021428       0.21506247
H       -0.85568393      -1.18353094      -1.12342323
H       -1.42390233      -1.76484075       0.45220216
H       -1.53368688       2.22957201      -0.24636578
H        1.28555218       1.75613500       0.15480707
H        2.01625386       0.20738508      -0.86420155
13
Frame=7 idx=004985 GeodesicLength=0.2985938619973313 rxn_smarts="[C:1]1([H:7])([H:8])[C:2]([H:9])([H:10])[O:3][C:4]([H:11])=[N:5][C:6]1([H:12])[H:13]>>[C:1]1([H:7])([H:8])[C:2]([H:9])([H:10])[O+:3]=[C:4]([H:11])[N:5]([H:12])[C-:6]1[H:13]"
C        0.58361773      -0.88585571       0.47353471
C       -0.84864586      -0.98768279      -0.04887406
O       -1.56288957       0.22614352       0.19418711
C       -0.91593387       1.34593448      -0.18471577
N        0.33869102       1.37443444      -0.46163336
C        1.22933880       0.32644886      -0.13013840
H        0.54569760      -0.83219741       1.56603530
H        1.13250502      -1.79659945       0.22076601
H       -0.85262280      -1.18755884      -1.12484627
H       -1.42221285      -1.76661783       0.45082395
H       -1.53545401       2.22890606      -0.24377034
H        1.30177487       1.75122829       0.16393673
H        2.00613391       0.20341638      -0.87530560
13
Frame=8 idx=004985 GeodesicLength=0.3413047887381643 rxn_smarts="[C:1]1([H:7])([H:8])[C:2]([H:9])([H:10])[O:3][C:4]([H:11])=[N:5][C:6]1([H:12])[H:13]>>[C:1]1([H:7])([H:8])[C:2]([H:9])([H:10])[O+:3]=[C:4]([H:11])[N:5]([H:12])[C-:6]1[H:13]"
C        0.58243466      -0.88219674       0.47452473
C       -0.84785332      -0.98909143      -0.05072968
O       -1.56556311       0.22356373       0.18775685
C       -0.91730722       1.34537496      -0.18362824
N        0.33763619       1.37697885      -0.45704626
C        1.22764769       0.32889178      -0.13312369
H        0.54247771      -0.82444880       1.56677529
H        1.13359325      -1.79288957       0.22651983
H       -0.84948188      -1.19167741      -1.12626527
H       -1.42050889      -1.76838321       0.44946138
H       -1.53723335       2.22827092      -0.24089298
H        1.31830237       1.74605403       0.17294658
H        1.99585590       0.19955290      -0.88629854
13
Frame=9 idx=004985 GeodesicLength=0.38401559188892254 rxn_smarts="[C:1]1([H:7])([H:8])[C:2]([H:9])([H:10])[O:3][C:4]([H:11])=[N:5][C:6]1([H:12])[H:13]>>[C:1]1([H:7])([H:8])[C:2]([H:9])([H:10])[O+:3]=[C:4]([H:11])[N:5]([H:12])[C-:6]1[H:13]"
C        0.58122326      -0.87846972       0.47553731
C       -0.84703477      -0.99052427      -0.05262674
O       -1.56825085       0.22094399       0.18109510
C       -0.91875132       1.34477624      -0.18270681
N        0.33652227       1.37952560      -0.45250232
C        1.22590830       0.33139028      -0.13612216
H        0.53913781      -0.81656892       1.56751176
H        1.13471024      -1.78907006       0.23238757
H       -0.84621914      -1.19591587      -1.12769499
H       -1.41878622      -1.77014097       0.44809258
H       -1.53899860       2.22769068      -0.23755883
H        1.33514046       1.74059582       0.18179834
H        1.98539857       0.19576721      -0.89721080
13
Frame=10 idx=004985 GeodesicLength=0.42674901331338255 rxn_smarts="[C:1]1([H:7])([H:8])[C:2]([H:9])([H:10])[O:3][C:4]([H:11])=[N:5][C:6]1([H:12])[H:13]>>[C:1]1([H:7])([H:8])[C:2]([H:9])([H:10])[O+:3]=[C:4]([H:11])[N:5]([H:12])[C-:6]1[H:13]"
C        0.57998505      -0.87468184       0.47656068
C       -0.84619729      -0.99197610      -0.05455329
O       -1.57094481       0.21829304       0.17423706
C       -0.92026607       1.34414326      -0.18194222
N        0.33534316       1.38207111      -0.44801115
C        1.22411895       0.33395153      -0.13912059
H        0.53569724      -0.80859273       1.56823429
H        1.13584958      -1.78514245       0.23832537
H       -0.84285978      -1.20026142      -1.12912485
H       -1.41705112      -1.77188647       0.44673372
H       -1.54076948       2.22714693      -0.23383475
H        1.35229735       1.73485159       0.19048761
H        1.97479724       0.19208356      -0.90799189
13
Frame=11 idx=004985 GeodesicLength=0.4694959548444008 rxn_smarts="[C:1]1([H:7])([H:8])[C:2]([H:9])([H:10])[O:3][C:4]([H:11])=[N:5][C:6]1([H:12])[H:13]>>[C:1]1([H:7])([H:8])[C:2]([H:9])([H:10])[O+:3]=[C:4]([H:11])[N:5]([H:12])[C-:6]1[H:13]"
C        0.57872360      -0.87084034       0.47758319
C       -0.84534610      -0.99343823      -0.05649577
O       -1.57363659       0.21562039       0.16722413
C       -0.92185165       1.34348174      -0.18131795
N        0.33409596       1.38461753      -0.44356663
C        1.22227972       0.33658170      -0.14210601
H        0.53217933      -0.80055678       1.56893284
H        1.13700580      -1.78110975       0.24428769
H       -0.83942856      -1.20469361      -1.13054178
H       -1.41530608      -1.77361119       0.44539968
H       -1.54257052       2.22661651      -0.22981537
H        1.36977573       1.72881064       0.19902338
H        1.96407935       0.18852140      -0.91860740
13
Frame=12 idx=004985 GeodesicLength=0.5122490095793242 rxn_smarts="[C:1]1([H:7])([H:8])[C:2]([H:9])([H:10])[O:3][C:4]([H:11])=[N:5][C:6]1([H:12])[H:13]>>[C:1]1([H:7])([H:8])[C:2]([H:9])([H:10])[O+:3]=[C:4]([H:11])[N:5]([H:12])[C-:6]1[H:13]"
C        0.57744348      -0.86695338       0.47859302
C       -0.84448683      -0.99490185      -0.05843984
O       -1.57631801       0.21293587       0.16010372
C       -0.92350725       1.34279909      -0.18080992
N        0.33277812       1.38716864      -0.43915856
C        1.22039126       0.33928749      -0.14506530
H        0.52861023      -0.79249965       1.56959825
H        1.13817395      -1.77697653       0.25022711
H       -0.83595241      -1.20918888      -1.13193339
H       -1.41355373      -1.77530849       0.44410491
H       -1.54442914       2.22607515      -0.22561261
H        1.38757999       1.72246142       0.20741979
H        1.95327035       0.18510112      -0.92902718
13
Frame=13 idx=004985 GeodesicLength=0.5550028190231941 rxn_smarts="[C:1]1([H:7])([H:8])[C:2]([H:9])([H:10])[O:3][C:4]([H:11])=[N:5][C:6]1([H:12])[H:13]>>[C:1]1([H:7])([H:8])[C:2]([H:9])([H:10])[O+:3]=[C:4]([H:11])[N:5]([H:12])[C-:6]1[H:13]"
C        0.57615182      -0.86303191       0.47957612
C       -0.84362574      -0.99635546      -0.06036816
O       -1.57898053       0.21025096       0.15293899
C       -0.92522968       1.34210606      -0.18036974
N        0.33138672       1.38973036      -0.43476566
C        1.21845525       0.34207611      -0.14798306
H        0.52502491      -0.78446753       1.57022037
H        1.13934794      -1.77275151       0.25608677
H       -0.83246591      -1.21371269      -1.13328658
H       -1.41179528      -1.77697225       0.44286417
H       -1.54638265       2.22549136      -0.22138889
H        1.40571881       1.71578990       0.21569953
H        1.94239434       0.18184660      -0.93922387
13
Frame=14 idx=004985 GeodesicLength=0.5977624009384548 rxn_smarts="[C:1]1([H:7])([H:8])[C:2]([H:9])([H:10])[O:3][C:4]([H:11])=[N:5][C:6]1([H:12])[H:13]>>[C:1]1([H:7])([H:8])[C:2]([H:9])([H:10])[O+:3]=[C:4]([H:11])[N:5]([H:12])[C-:6]1[H:13]"
C        0.57483918      -0.85905711       0.48055058
C       -0.84275397      -0.99780969      -0.06230166
O       -1.58163561       0.20755021       0.14565522
C       -0.92702831       1.34139165      -0.18005285
N        0.32991717       1.39230072      -0.43041253
C        1.21646767       0.34494820      -0.15087336
H        0.52138019      -0.77640001       1.57081314
H        1.14053409      -1.76841832       0.26193478
H       -0.82892334      -1.21830042      -1.13461616
H       -1.41002895      -1.77860698       0.44165716
H       -1.54840069       2.22489116      -0.21695646
H        1.42420250       1.70877618       0.22383060
H        1.93143006       0.17873443      -0.94922846
13
Frame=15 idx=004985 GeodesicLength=0.6405339260208197 rxn_smarts="[C:1]1([H:7])([H:8])[C:2]([H:9])([H:10])[O:3][C:4]([H:11])=[N:5][C:6]1([H:12])[H:13]>>[C:1]1([H:7])([H:8])[C:2]([H:9])([H:10])[O+:3]=[C:4]([H:11])[N:5]([H:12])[C-:6]1[H:13]"
C        0.57349360      -0.85500791       0.48153491
C       -0.84186361      -0.99927716      -0.06426462
O       -1.58429525       0.20481785       0.13816500
C       -0.92891549       1.34064313      -0.17994002
N        0.32836315       1.39487533      -0.42614134
C        1.21442455       0.34790590      -0.15374918
H        0.51762529      -0.76823286       1.57138959
H        1.14173790      -1.76395840       0.26784755
H       -0.82527722      -1.22299631      -1.13593835
H       -1.40825282      -1.78021859       0.44046378
H       -1.55044523       2.22430488      -0.21207457
H        1.44303774       1.70140811       0.23176518
H        1.92036738       0.17573602      -0.95905793
13
Frame=16 idx=004985 GeodesicLength=0.6833130652884537 rxn_smarts="[C:1]1([H:7])([H:8])[C:2]([H:9])([H:10])[O:3][C:4]([H:11])=[N:5][C:6]1([H:12])[H:13]>>[C:1]1([H:7])([H:8])[C:2]([H:9])([H:10])[O+:3]=[C:4]([H:11])[N:5]([H:12])[C-:6]1[H:13]"
C        0.57211803      -0.85088882       0.48251968
C       -0.84095894      -1.00075023      -0.06624596
O       -1.58695292       0.20206157       0.13050501
C       -0.93089219       1.33986626      -0.18001814
N        0.32672021       1.39745582      -0.42195233
C        1.21232609       0.35095679      -0.15659936
H        0.51377977      -0.75999446       1.57194232
H        1.14295496      -1.75937333       0.27378831
H       -0.82154808      -1.22778196      -1.13724301
H       -1.40646885      -1.78180058       0.43929562
H       -1.55253683       2.22371121      -0.20682079
H        1.46222688       1.69366936       0.23951338
H        1.90923188       0.17286837      -0.96868473
