11
Frame=0 idx=001769 GeodesicLength=0.0 rxn_smarts="[N:1]([c:2]1[c:3]([H:9])[n:4]([H:10])[n:5][c:6]1[H:11])([H:7])[H:8]>>[N+:1]([c:2]1[c-:3][n:4]([H:10])[n:5][c:6]1[H:11])([H:7])([H:8])[H:9]"
N       -1.52953486      -0.75144354      -0.11965777
C       -0.32200540       0.04019552       0.03584569
C        0.70796232      -0.79972400      -0.30270176
N        1.78712920      -0.00972545      -0.13681951
N        1.50668963       1.24774471       0.27560307
C        0.18940141       1.29598831       0.38885931
H       -2.16431374      -0.46320117      -0.85555567
H       -2.04452491      -0.95639300       0.72913032
H       -0.59091153      -1.56618638      -0.44368162
H        2.75162874      -0.24407851      -0.28217053
H       -0.29152086       2.20682355       0.71114852
11
Frame=1 idx=001769 GeodesicLength=0.043748919211559205 rxn_smarts="[N:1]([c:2]1[c:3]([H:9])[n:4]([H:10])[n:5][c:6]1[H:11])([H:7])[H:8]>>[N+:1]([c:2]1[c-:3][n:4]([H:10])[n:5][c:6]1[H:11])([H:7])([H:8])[H:9]"
N       -1.53007066      -0.75005698      -0.11965688
C       -0.32383614       0.04572980       0.01422283
C        0.70764616      -0.79423574      -0.32430899
N        1.78757058      -0.01208077      -0.12590987
N        1.50637992       1.24576437       0.28258517
C        0.18860727       1.29457187       0.38811485
H       -2.18407252      -0.44357160      -0.83089460
H       -2.02350722      -0.96898769       0.73826230
H       -0.58375258      -1.57509381      -0.45608573
H        2.75275675      -0.25045465      -0.25965832
H       -0.29772155       2.20841520       0.69332925
11
Frame=2 idx=001769 GeodesicLength=0.08746083566638581 rxn_smarts="[N:1]([c:2]1[c:3]([H:9])[n:4]([H:10])[n:5][c:6]1[H:11])([H:7])[H:8]>>[N+:1]([c:2]1[c-:3][n:4]([H:10])[n:5][c:6]1[H:11])([H:7])([H:8])[H:9]"
N       -1.53045105      -0.74839520      -0.12003738
C       -0.32575302       0.05138319      -0.00748909
C        0.70744320      -0.78876063      -0.34509808
N        1.78738775      -0.01414843      -0.11647890
N        1.50573446       1.24365224       0.28956699
C        0.18743805       1.29344746       0.38613468
H       -2.20271377      -0.42435395      -0.80597753
H       -2.00257065      -0.98058337       0.74622635
H       -0.57600095      -1.58443473      -0.46709962
H        2.75312484      -0.25714770      -0.23708983
H       -0.30363886       2.20934111       0.67734242
11
Frame=3 idx=001769 GeodesicLength=0.13113752754625396 rxn_smarts="[N:1]([c:2]1[c:3]([H:9])[n:4]([H:10])[n:5][c:6]1[H:11])([H:7])[H:8]>>[N+:1]([c:2]1[c-:3][n:4]([H:10])[n:5][c:6]1[H:11])([H:7])([H:8])[H:9]"
N       -1.53085213      -0.74628363      -0.12131753
C       -0.32756954       0.05661516      -0.02796283
C        0.70759285      -0.78449054      -0.36189690
N        1.78682000      -0.01578152      -0.10870780
N        1.50473098       1.24192282       0.29508347
C        0.18604377       1.29216569       0.38417557
H       -2.21904971      -0.40516309      -0.78268918
H       -1.98357814      -0.99045690       0.75187832
H       -0.56763573      -1.59472515      -0.47530174
H        2.75287411      -0.26306315      -0.21741554
H       -0.30937646       2.20926032       0.66415417
11
Frame=4 idx=001769 GeodesicLength=0.1748297240887288 rxn_smarts="[N:1]([c:2]1[c:3]([H:9])[n:4]([H:10])[n:5][c:6]1[H:11])([H:7])[H:8]>>[N+:1]([c:2]1[c-:3][n:4]([H:10])[n:5][c:6]1[H:11])([H:7])([H:8])[H:9]"
N       -1.53126292      -0.74375349      -0.12326601
C       -0.32931681       0.06156729      -0.04791209
C        0.70795519      -0.78096789      -0.37654530
N        1.78598815      -0.01715073      -0.10200470
N        1.50343642       1.24047917       0.29940059
C        0.18441328       1.29094644       0.38136466
H       -2.23380410      -0.38609455      -0.76036554
H       -1.96576053      -0.99878581       0.75594436
H       -0.55873701      -1.60584796      -0.48118853
H        2.75216510      -0.26853515      -0.19922147
H       -0.31507678       2.20814268       0.65379403
11
Frame=5 idx=001769 GeodesicLength=0.218426505577833 rxn_smarts="[N:1]([c:2]1[c:3]([H:9])[n:4]([H:10])[n:5][c:6]1[H:11])([H:7])[H:8]>>[N+:1]([c:2]1[c-:3][n:4]([H:10])[n:5][c:6]1[H:11])([H:7])([H:8])[H:9]"
N       -1.53189422      -0.74075219      -0.12625084
C       -0.33081563       0.06578843      -0.06620151
C        0.70867899      -0.77900388      -0.38693097
N        1.78514512      -0.01858014      -0.09505552
N        1.50193535       1.23947414       0.30222897
C        0.18268975       1.28935706       0.37899225
H       -2.24632173      -0.36653672      -0.74020068
H       -1.95054417      -1.00553362       0.75766445
H       -0.54935052      -1.61799428      -0.48402959
H        2.75131711      -0.27226596      -0.18592793
H       -0.32084005       2.20604715       0.64571137
11
Frame=6 idx=001769 GeodesicLength=0.2620581143425109 rxn_smarts="[N:1]([c:2]1[c:3]([H:9])[n:4]([H:10])[n:5][c:6]1[H:11])([H:7])[H:8]>>[N+:1]([c:2]1[c-:3][n:4]([H:10])[n:5][c:6]1[H:11])([H:7])([H:8])[H:9]"
N       -1.53263475      -0.73748359      -0.12963905
C       -0.33220433       0.06967779      -0.08380211
C        0.70950028      -0.77741041      -0.39639924
N        1.78415770      -0.01966920      -0.08925984
N        1.50027318       1.23859257       0.30456229
C        0.18083710       1.28768823       0.37640544
H       -2.25790296      -0.34661501      -0.72008464
H       -1.93608295      -1.01184509       0.75834882
H       -0.53955742      -1.63059750      -0.48570439
H        2.75029484      -0.27586944      -0.17299139
H       -0.32668070       2.20353162       0.63856412
11
Frame=7 idx=001769 GeodesicLength=0.3056727670683552 rxn_smarts="[N:1]([c:2]1[c:3]([H:9])[n:4]([H:10])[n:5][c:6]1[H:11])([H:7])[H:8]>>[N+:1]([c:2]1[c-:3][n:4]([H:10])[n:5][c:6]1[H:11])([H:7])([H:8])[H:9]"
N       -1.53346475      -0.73402064      -0.13324554
C       -0.33356654       0.07334429      -0.10085377
C        0.71028722      -0.77581271      -0.40587515
N        1.78303899      -0.02043617      -0.08460602
N        1.49848024       1.23772109       0.30675952
C        0.17885479       1.28596754       0.37366664
H       -2.26886170      -0.32628994      -0.69927698
H       -1.92183529      -1.01823966       0.75828284
H       -0.52938042      -1.64338857      -0.48690684
H        2.74905160      -0.27973844      -0.15945453
H       -0.33260415       2.20089320       0.63150982
11
Frame=8 idx=001769 GeodesicLength=0.3493292105562802 rxn_smarts="[N:1]([c:2]1[c:3]([H:9])[n:4]([H:10])[n:5][c:6]1[H:11])([H:7])[H:8]>>[N+:1]([c:2]1[c-:3][n:4]([H:10])[n:5][c:6]1[H:11])([H:7])([H:8])[H:9]"
N       -1.53428212      -0.73046452      -0.13669219
C       -0.33501543       0.07708475      -0.11792476
C        0.71093341      -0.77350694      -0.41721136
N        1.78160565      -0.02071012      -0.08167206
N        1.49651164       1.23687984       0.30871949
C        0.17672382       1.28440027       0.37036667
H       -2.27982833      -0.30565955      -0.67633289
H       -1.90661511      -1.02546051       0.75812106
H       -0.51877340      -1.65592677      -0.48895632
H        2.74730665      -0.28504316      -0.14238709
H       -0.33856676       2.19840671       0.62396944
11
Frame=9 idx=001769 GeodesicLength=0.3929826486892296 rxn_smarts="[N:1]([c:2]1[c:3]([H:9])[n:4]([H:10])[n:5][c:6]1[H:11])([H:7])[H:8]>>[N+:1]([c:2]1[c-:3][n:4]([H:10])[n:5][c:6]1[H:11])([H:7])([H:8])[H:9]"
N       -1.53534820      -0.72655872      -0.14083223
C       -0.33629945       0.08034150      -0.13393553
C        0.71174948      -0.77203679      -0.42634835
N        1.78020416      -0.02147948      -0.07724713
N        1.49446024       1.23590013       0.31099248
C        0.17452704       1.28255311       0.36752187
H       -2.28943695      -0.28457816      -0.65427251
H       -1.89298718      -1.03202918       0.75642301
H       -0.50778004      -1.66905817      -0.48924957
H        2.74547676      -0.28874895      -0.12964677
H       -0.34456585       2.19569472       0.61659473
11
Frame=10 idx=001769 GeodesicLength=0.4366430639832638 rxn_smarts="[N:1]([c:2]1[c:3]([H:9])[n:4]([H:10])[n:5][c:6]1[H:11])([H:7])[H:8]>>[N+:1]([c:2]1[c-:3][n:4]([H:10])[n:5][c:6]1[H:11])([H:7])([H:8])[H:9]"
N       -1.53664030      -0.72236511      -0.14544262
C       -0.33751261       0.08331122      -0.14926872
C        0.71260159      -0.77099616      -0.43428452
N        1.77870796      -0.02254642      -0.07203221
N        1.49231079       1.23468164       0.31384823
C        0.17223703       1.28056662       0.36484375
H       -2.29806696      -0.26322519      -0.63242648
H       -1.88034466      -1.03825836       0.75361431
H       -0.49642610      -1.68257317      -0.48838300
H        2.74372795      -0.29152107      -0.11957946
H       -0.35059469       2.19292601       0.60911071
11
Frame=11 idx=001769 GeodesicLength=0.48034548007313016 rxn_smarts="[N:1]([c:2]1[c:3]([H:9])[n:4]([H:10])[n:5][c:6]1[H:11])([H:7])[H:8]>>[N+:1]([c:2]1[c-:3][n:4]([H:10])[n:5][c:6]1[H:11])([H:7])([H:8])[H:9]"
N       -1.53808777      -0.71795870      -0.15021891
C       -0.33873809       0.08618152      -0.16424525
C        0.71339830      -0.76987352      -0.44236198
N        1.77705535      -0.02354927      -0.06716047
N        1.49004232       1.23339093       0.31681011
C        0.16984771       1.27857525       0.36208352
H       -2.30613280      -0.24164563      -0.60966558
H       -1.86783935      -1.04475513       0.75014454
H       -0.48468356      -1.69614230      -0.48737311
H        2.74176337      -0.29446390      -0.10929270
H       -0.35662547       2.19024074       0.60127984
11
Frame=12 idx=001769 GeodesicLength=0.5242468618102899 rxn_smarts="[N:1]([c:2]1[c:3]([H:9])[n:4]([H:10])[n:5][c:6]1[H:11])([H:7])[H:8]>>[N+:1]([c:2]1[c-:3][n:4]([H:10])[n:5][c:6]1[H:11])([H:7])([H:8])[H:9]"
N       -1.53969006      -0.71333032      -0.15501617
C       -0.34003204       0.08905570      -0.17908225
C        0.71409829      -0.76848215      -0.45113068
N        1.77521519      -0.02444229      -0.06284036
N        1.48764793       1.23204494       0.31984439
C        0.16734750       1.27668324       0.35906110
H       -2.31375238      -0.21998721      -0.58553356
H       -1.85513600      -1.05165332       0.74621974
H       -0.47250512      -1.70967383      -0.48666518
H        2.73945543      -0.29795780      -0.09785816
H       -0.36264873       2.18774305       0.59300113
11
Frame=13 idx=001769 GeodesicLength=0.5679059054792114 rxn_smarts="[N:1]([c:2]1[c:3]([H:9])[n:4]([H:10])[n:5][c:6]1[H:11])([H:7])[H:8]>>[N+:1]([c:2]1[c-:3][n:4]([H:10])[n:5][c:6]1[H:11])([H:7])([H:8])[H:9]"
N       -1.54135231      -0.70855756      -0.15973970
C       -0.34147011       0.09205107      -0.19382909
C        0.71461651      -0.76655999      -0.46102661
N        1.77310256      -0.02518661      -0.05918796
N        1.48511522       1.23064096       0.32287200
C        0.16475011       1.27494309       0.35570130
H       -2.32106027      -0.19824716      -0.55946804
H       -1.84174338      -1.05936530       0.74185093
H       -0.45994158      -1.72289871      -0.48665960
H        2.73656450      -0.30239137      -0.08440559
H       -0.36858127       2.18557158       0.58389236
11
Frame=14 idx=001769 GeodesicLength=0.6117123717995594 rxn_smarts="[N:1]([c:2]1[c:3]([H:9])[n:4]([H:10])[n:5][c:6]1[H:11])([H:7])[H:8]>>[N+:1]([c:2]1[c-:3][n:4]([H:10])[n:5][c:6]1[H:11])([H:7])([H:8])[H:9]"
N       -1.54320561      -0.70352766      -0.16451079
C       -0.34298601       0.09505194      -0.20836208
C        0.71504257      -0.76447316      -0.47124164
N        1.77082742      -0.02583180      -0.05601017
N        1.48247200       1.22924089       0.32580890
C        0.16206851       1.27329419       0.35218449
H       -2.32771706      -0.17656035      -0.53223649
H       -1.82837689      -1.06736531       0.73686541
H       -0.44691973      -1.73612366      -0.48681875
H        2.73326047      -0.30726764      -0.07018208
H       -0.37446565       2.18356256       0.57450320
11
Frame=15 idx=001769 GeodesicLength=0.6555788484091034 rxn_smarts="[N:1]([c:2]1[c:3]([H:9])[n:4]([H:10])[n:5][c:6]1[H:11])([H:7])[H:8]>>[N+:1]([c:2]1[c-:3][n:4]([H:10])[n:5][c:6]1[H:11])([H:7])([H:8])[H:9]"
N       -1.54527287      -0.69820379      -0.16940912
C       -0.34456150       0.09802792      -0.22259037
C        0.71537469      -0.76234645      -0.48142819
N        1.76843310      -0.02633759      -0.05337634
N        1.47974374       1.22791166       0.32844278
C        0.15933760       1.27168154       0.34861578
H       -2.33355680      -0.15499920      -0.50426525
H       -1.81532775      -1.07546430       0.73111933
H       -0.43344289      -1.74942766      -0.48673225
H        2.72956489      -0.31241442      -0.05558886
H       -0.38029219       2.18157229       0.56521249
11
Frame=16 idx=001769 GeodesicLength=0.699459370426977 rxn_smarts="[N:1]([c:2]1[c:3]([H:9])[n:4]([H:10])[n:5][c:6]1[H:11])([H:7])[H:8]>>[N+:1]([c:2]1[c-:3][n:4]([H:10])[n:5][c:6]1[H:11])([H:7])([H:8])[H:9]"
N       -1.54761020      -0.69253973      -0.17458706
C       -0.34614867       0.10089452      -0.23636843
C        0.71564184      -0.76041393      -0.49102247
N        1.76597668      -0.02679128      -0.05097068
N        1.47695935       1.22663225       0.33085846
C        0.15657999       1.27001680       0.34519792
H       -2.33843377      -0.13357082      -0.47620903
H       -1.80306621      -1.08340004       0.72441956
H       -0.41952477      -1.76295685      -0.48579713
H        2.72569021      -0.31735690      -0.04180397
H       -0.38606445       2.17948597       0.55628284
