12
Frame=0 idx=011942 GeodesicLength=0.0 rxn_smarts="[N:1]([c:2]1[c:3]([H:10])[n:4]([H:11])[c:5]([O:6][H:12])[n:7]1)([H:8])[H:9]>>[H:11][H:12].[N:1]([C+:2]1[C:3]([H:10])=[N:4][C:5](=[O:6])[N-:7]1)([H:8])[H:9]"
N        2.16728494       0.57391641      -0.06006310
C        0.87111515       0.29000572       0.03010554
C        0.28370169      -1.02329457      -0.02749216
N       -0.97948789      -0.87377163       0.31841050
C       -1.17212130       0.56533020       0.28783434
O       -2.32614029       1.00471150       0.10224734
N       -0.02770663       1.24287921       0.33424141
H        2.82177356      -0.09073604      -0.42572080
H        2.47850249       1.50068176       0.17008893
H        0.80914760      -1.96276303       0.06412431
H       -2.22301003      -1.04175434      -0.48770065
H       -2.70305925      -0.18520515      -0.30607563
12
Frame=1 idx=011942 GeodesicLength=0.07710523652204482 rxn_smarts="[N:1]([c:2]1[c:3]([H:10])[n:4]([H:11])[c:5]([O:6][H:12])[n:7]1)([H:8])[H:9]>>[H:11][H:12].[N:1]([C+:2]1[C:3]([H:10])=[N:4][C:5](=[O:6])[N-:7]1)([H:8])[H:9]"
N        2.17734069       0.57956193      -0.06174651
C        0.88012841       0.29248965       0.02760540
C        0.29095023      -1.01946861      -0.03793389
N       -0.97483027      -0.87004057       0.30183415
C       -1.16788366       0.56694643       0.26102929
O       -2.32280941       1.00978291       0.08512385
N       -0.02185547       1.24263738       0.32774820
H        2.83698966      -0.09079097      -0.40700874
H        2.48889113       1.50013528       0.19153909
H        0.81553705      -1.95998313       0.04859470
H       -2.25709514      -1.06190838      -0.46372539
H       -2.74536323      -0.18936192      -0.27306013
12
Frame=2 idx=011942 GeodesicLength=0.15417346897117903 rxn_smarts="[N:1]([c:2]1[c:3]([H:10])[n:4]([H:11])[c:5]([O:6][H:12])[n:7]1)([H:8])[H:9]>>[H:11][H:12].[N:1]([C+:2]1[C:3]([H:10])=[N:4][C:5](=[O:6])[N-:7]1)([H:8])[H:9]"
N        2.18777014       0.58545572      -0.06232571
C        0.88941114       0.29504935       0.02454477
C        0.29851913      -1.01544269      -0.05086217
N       -0.96989078      -0.86631522       0.28264790
C       -1.16341980       0.56851202       0.23077378
O       -2.31950583       1.01420911       0.06511430
N       -0.01624329       1.24240014       0.31929963
H        2.85303692      -0.09104191      -0.38393503
H        2.49884096       1.49944819       0.21429037
H        0.82215141      -1.95710859       0.02956276
H       -2.29266002      -1.08261865      -0.43468728
H       -2.78801000      -0.19254747      -0.23442332
12
Frame=3 idx=011942 GeodesicLength=0.23126186081705094 rxn_smarts="[N:1]([c:2]1[c:3]([H:10])[n:4]([H:11])[c:5]([O:6][H:12])[n:7]1)([H:8])[H:9]>>[H:11][H:12].[N:1]([C+:2]1[C:3]([H:10])=[N:4][C:5](=[O:6])[N-:7]1)([H:8])[H:9]"
N        2.19855506       0.59142666      -0.06110370
C        0.89896607       0.29743188       0.02155159
C        0.30651999      -1.01145058      -0.06631724
N       -0.96481564      -0.86289521       0.25984253
C       -1.15869082       0.56975429       0.19665757
O       -2.31613125       1.01783210       0.04172658
N       -0.01094992       1.24181049       0.30950148
H        2.86947928      -0.09106507      -0.35728624
H        2.50802362       1.49891201       0.23792940
H        0.82916553      -1.95427739       0.00762138
H       -2.32961367      -1.10344119      -0.40032659
H       -2.83050824      -0.19403801      -0.18979675
12
Frame=4 idx=011942 GeodesicLength=0.30831336553080246 rxn_smarts="[N:1]([c:2]1[c:3]([H:10])[n:4]([H:11])[c:5]([O:6][H:12])[n:7]1)([H:8])[H:9]>>[H:11][H:12].[N:1]([C+:2]1[C:3]([H:10])=[N:4][C:5](=[O:6])[N-:7]1)([H:8])[H:9]"
N        2.21001652       0.59688361      -0.05569560
C        0.90869842       0.29985195       0.01669116
C        0.31487280      -1.00718921      -0.08628479
N       -0.95933655      -0.85956772       0.23280691
C       -1.15372157       0.57081786       0.15682411
O       -2.31319471       1.02018357       0.01508992
N       -0.00617957       1.24132853       0.29509753
H        2.88703594      -0.09163334      -0.32271389
H        2.51591858       1.49901762       0.26272489
H        0.83637161      -1.95134778      -0.02085910
H       -2.36814456      -1.12478994      -0.35702003
H       -2.87233691      -0.19355515      -0.13666112
12
Frame=5 idx=011942 GeodesicLength=0.38532010175876075 rxn_smarts="[N:1]([c:2]1[c:3]([H:10])[n:4]([H:11])[c:5]([O:6][H:12])[n:7]1)([H:8])[H:9]>>[H:11][H:12].[N:1]([C+:2]1[C:3]([H:10])=[N:4][C:5](=[O:6])[N-:7]1)([H:8])[H:9]"
N        2.22154802       0.60204621      -0.04708663
C        0.91842888       0.30184496       0.01149528
C        0.32379868      -1.00316673      -0.10985743
N       -0.95388041      -0.85693665       0.19982521
C       -1.14853744       0.57116917       0.11109469
O       -2.31057913       1.02102597      -0.01454679
N       -0.00217279       1.24015029       0.27820001
H        2.90451756      -0.09210327      -0.28268695
H        2.52209834       1.49981271       0.28849365
H        0.84422817      -1.94855035      -0.05331920
H       -2.40728434      -1.14559927      -0.30543949
H       -2.91216555      -0.18969301      -0.07617236
12
Frame=6 idx=011942 GeodesicLength=0.4623545357482859 rxn_smarts="[N:1]([c:2]1[c:3]([H:10])[n:4]([H:11])[c:5]([O:6][H:12])[n:7]1)([H:8])[H:9]>>[H:11][H:12].[N:1]([C+:2]1[C:3]([H:10])=[N:4][C:5](=[O:6])[N-:7]1)([H:8])[H:9]"
N        2.23309554       0.60645921      -0.03310665
C        0.92783459       0.30378741       0.00258497
C        0.33327573      -0.99910649      -0.13972760
N       -0.94821682      -0.85488959       0.15917223
C       -1.14334444       0.57084051       0.05657298
O       -2.30888240       1.01977085      -0.04764421
N        0.00065768       1.23880992       0.25423014
H        2.92207115      -0.09325063      -0.23226449
H        2.52571090       1.50097132       0.31806550
H        0.85281652      -1.94560969      -0.09356941
H       -2.44637015      -1.16594786      -0.24010206
H       -2.94864829      -0.18183497      -0.00421140
12
Frame=7 idx=011942 GeodesicLength=0.5392107381478519 rxn_smarts="[N:1]([c:2]1[c:3]([H:10])[n:4]([H:11])[c:5]([O:6][H:12])[n:7]1)([H:8])[H:9]>>[H:11][H:12].[N:1]([C+:2]1[C:3]([H:10])=[N:4][C:5](=[O:6])[N-:7]1)([H:8])[H:9]"
N        2.24366027       0.60979636      -0.01306052
C        0.93642386       0.30554067      -0.01021798
C        0.34324351      -0.99509421      -0.17633186
N       -0.94265147      -0.85382894       0.10921445
C       -1.13848244       0.56950398      -0.00704117
O       -2.30828214       1.01575766      -0.08480856
N        0.00186771       1.23719485       0.22210102
H        2.93795651      -0.09524354      -0.17096367
H        2.52548160       1.50207506       0.35248364
H        0.86227004      -1.94242341      -0.14258393
H       -2.48251417      -1.18479328      -0.15825041
H       -2.97897330      -0.16848520       0.07945899
12
Frame=8 idx=011942 GeodesicLength=0.6157189264504537 rxn_smarts="[N:1]([c:2]1[c:3]([H:10])[n:4]([H:11])[c:5]([O:6][H:12])[n:7]1)([H:8])[H:9]>>[H:11][H:12].[N:1]([C+:2]1[C:3]([H:10])=[N:4][C:5](=[O:6])[N-:7]1)([H:8])[H:9]"
N        2.25157592       0.61324589       0.00524728
C        0.94345045       0.30553033      -0.01736391
C        0.35320002      -0.99255166      -0.21085621
N       -0.93896173      -0.85497192       0.05218538
C       -1.13391995       0.56683576      -0.06853030
O       -2.30759106       1.00978646      -0.12345602
N        0.00145632       1.23247360       0.19901885
H        2.94950297      -0.09564024      -0.11569439
H        2.52273117       1.50383242       0.38301829
H        0.87241266      -1.94012143      -0.18653859
H       -2.51133068      -1.19967757      -0.07483029
H       -3.00252609      -0.14874165       0.15779990
12
Frame=9 idx=011942 GeodesicLength=0.6918813825777341 rxn_smarts="[N:1]([c:2]1[c:3]([H:10])[n:4]([H:11])[c:5]([O:6][H:12])[n:7]1)([H:8])[H:9]>>[H:11][H:12].[N:1]([C+:2]1[C:3]([H:10])=[N:4][C:5](=[O:6])[N-:7]1)([H:8])[H:9]"
N        2.25710332       0.61644682       0.02180378
C        0.94864420       0.30418019      -0.02007771
C        0.36240489      -0.99086433      -0.24273805
N       -0.93679133      -0.85718223      -0.00826003
C       -1.12971089       0.56385545      -0.12667641
O       -2.30739514       1.00201974      -0.16158137
N       -0.00049232       1.22578562       0.18264106
H        2.95733911      -0.09496731      -0.06762432
H        2.51819310       1.50506255       0.41132643
H        0.88225686      -1.93831096      -0.22588702
H       -2.53081596      -1.21143201       0.00914246
H       -3.02073584      -0.12459352       0.22793119
12
Frame=10 idx=011942 GeodesicLength=0.7678351026512504 rxn_smarts="[N:1]([c:2]1[c:3]([H:10])[n:4]([H:11])[c:5]([O:6][H:12])[n:7]1)([H:8])[H:9]>>[H:11][H:12].[N:1]([C+:2]1[C:3]([H:10])=[N:4][C:5](=[O:6])[N-:7]1)([H:8])[H:9]"
N        2.26077842       0.61957432       0.03354909
C        0.95219152       0.30033105      -0.01174187
C        0.37030280      -0.99030228      -0.26773362
N       -0.93598674      -0.85993406      -0.06647327
C       -1.12510727       0.56111036      -0.17583811
O       -2.30666710       0.99378256      -0.19630893
N       -0.00352261       1.21627400       0.18037600
H        2.96262241      -0.09323478      -0.02936349
H        2.51415492       1.50869258       0.42721341
H        0.89089975      -1.93750725      -0.25884344
H       -2.54203718      -1.22040189       0.08301423
H       -3.03762892      -0.09838462       0.28215001
12
Frame=11 idx=011942 GeodesicLength=0.8437722329214948 rxn_smarts="[N:1]([c:2]1[c:3]([H:10])[n:4]([H:11])[c:5]([O:6][H:12])[n:7]1)([H:8])[H:9]>>[H:11][H:12].[N:1]([C+:2]1[C:3]([H:10])=[N:4][C:5](=[O:6])[N-:7]1)([H:8])[H:9]"
N        2.26353033       0.62229897       0.04293667
C        0.95468619       0.29631132      -0.00365970
C        0.37694416      -0.98989512      -0.28877720
N       -0.93520768      -0.86216635      -0.11736855
C       -1.12062925       0.55882698      -0.21897117
O       -2.30632403       0.98480843      -0.22682793
N       -0.00687532       1.20677379       0.17988632
H        2.96638376      -0.09129595       0.00257253
H        2.51008776       1.51102761       0.44198966
H        0.89867347      -1.93658322      -0.28841379
H       -2.54661127      -1.22822632       0.15004167
H       -3.05465810      -0.07188014       0.32659150
12
Frame=12 idx=011942 GeodesicLength=0.9198619587984942 rxn_smarts="[N:1]([c:2]1[c:3]([H:10])[n:4]([H:11])[c:5]([O:6][H:12])[n:7]1)([H:8])[H:9]>>[H:11][H:12].[N:1]([C+:2]1[C:3]([H:10])=[N:4][C:5](=[O:6])[N-:7]1)([H:8])[H:9]"
N        2.26586406       0.62506949       0.04955770
C        0.95672240       0.29182223       0.00597177
C        0.38279233      -0.98994938      -0.30510022
N       -0.93416658      -0.86427404      -0.15998821
C       -1.11582052       0.55659760      -0.25576023
O       -2.30565333       0.97546546      -0.25398796
N       -0.01025335       1.19677362       0.18311527
H        2.96965240      -0.08855512       0.02729864
H        2.50660719       1.51311148       0.45388221
H        0.90611561      -1.93577011      -0.31469072
H       -2.54820798      -1.23534671       0.20776580
H       -3.07365225      -0.04494451       0.36193598
12
Frame=13 idx=011942 GeodesicLength=0.9960413951082002 rxn_smarts="[N:1]([c:2]1[c:3]([H:10])[n:4]([H:11])[c:5]([O:6][H:12])[n:7]1)([H:8])[H:9]>>[H:11][H:12].[N:1]([C+:2]1[C:3]([H:10])=[N:4][C:5](=[O:6])[N-:7]1)([H:8])[H:9]"
N        2.26804589       0.62781960       0.05483858
C        0.95859799       0.28733475       0.01474380
C        0.38825539      -0.99027176      -0.31892581
N       -0.93267892      -0.86646844      -0.19615442
C       -1.11084699       0.55414900      -0.28854472
O       -2.30489221       0.96541773      -0.27869212
N       -0.01357495       1.18667261       0.18694609
H        2.97268699      -0.08544740       0.04852577
H        2.50326805       1.51475921       0.46502304
H        0.91371755      -1.93478392      -0.33978631
H       -2.54820191      -1.24218950       0.25967707
H       -3.09437687      -0.01699189       0.39234903
12
Frame=14 idx=011942 GeodesicLength=1.0723109590248747 rxn_smarts="[N:1]([c:2]1[c:3]([H:10])[n:4]([H:11])[c:5]([O:6][H:12])[n:7]1)([H:8])[H:9]>>[H:11][H:12].[N:1]([C+:2]1[C:3]([H:10])=[N:4][C:5](=[O:6])[N-:7]1)([H:8])[H:9]"
N        2.27015344       0.63060574       0.05935134
C        0.96044144       0.28280882       0.02272767
C        0.39360838      -0.99090433      -0.33102838
N       -0.93072303      -0.86899031      -0.22746424
C       -1.10569135       0.55126883      -0.31845342
O       -2.30401687       0.95452119      -0.30163065
N       -0.01687476       1.17636491       0.19093394
H        2.97566283      -0.08195409       0.06742218
H        2.49991814       1.51618100       0.47576351
H        0.92178717      -1.93358729      -0.36462781
H       -2.54743914      -1.24893455       0.30757427
H       -3.11682625       0.01262007       0.41943157
12
Frame=15 idx=011942 GeodesicLength=1.148660064076555 rxn_smarts="[N:1]([c:2]1[c:3]([H:10])[n:4]([H:11])[c:5]([O:6][H:12])[n:7]1)([H:8])[H:9]>>[H:11][H:12].[N:1]([C+:2]1[C:3]([H:10])=[N:4][C:5](=[O:6])[N-:7]1)([H:8])[H:9]"
N        2.27219003       0.63346963       0.06358276
C        0.96228737       0.27826538       0.02977598
C        0.39902562      -0.99186827      -0.34199817
N       -0.92830553      -0.87201219      -0.25520048
C       -1.10041142       0.54779386      -0.34645234
O       -2.30310293       0.94257346      -0.32330302
N       -0.02021397       1.16585566       0.19443368
H        2.97862938      -0.07807435       0.08463969
H        2.49636442       1.51729390       0.48693880
H        0.93053710      -1.93210553      -0.38991666
H       -2.54610787      -1.25566305       0.35325783
H       -3.14089220       0.04447150       0.44424192
12
Frame=16 idx=011942 GeodesicLength=1.2250650015277276 rxn_smarts="[N:1]([c:2]1[c:3]([H:10])[n:4]([H:11])[c:5]([O:6][H:12])[n:7]1)([H:8])[H:9]>>[H:11][H:12].[N:1]([C+:2]1[C:3]([H:10])=[N:4][C:5](=[O:6])[N-:7]1)([H:8])[H:9]"
N        2.27412626       0.63645399       0.06777211
C        0.96413008       0.27368023       0.03598959
C        0.40461429      -0.99318785      -0.35216039
N       -0.92544860      -0.87562965      -0.28046526
C       -1.09505226       0.54364909      -0.37310613
O       -2.30220521       0.92945476      -0.34387306
N       -0.02364934       1.15510457       0.19726436
H        2.98161199      -0.07378721       0.10035677
H        2.49249763       1.51804526       0.49897910
H        0.94005745      -1.93030384      -0.41579503
H       -2.54417018      -1.26248657       0.39777362
H       -3.16651212       0.07900722       0.46726433
