13
Frame=0 idx=004526 GeodesicLength=0.0 rxn_smarts="[C:1]([C@@:2]1([H:10])[C:3]([H:11])([H:12])[N:4]=[C:5]([H:13])[O:6]1)([H:7])([H:8])[H:9]>>[C:1]([C@@:2]1([H:10])[C:3]([H:11])([H:12])[N:4]1[C:5](=[O:6])[H:13])([H:7])([H:8])[H:9]"
C        1.51938796       0.46802717       0.29079737
C        0.53274426      -0.37527598      -0.40673019
C       -0.39570791      -1.22139077       0.27501465
N       -1.25840774      -0.07393958       0.68037812
C       -1.66240780       0.77530313      -0.24440196
O       -1.14597376       1.05439835      -1.33385823
H        1.43028061       1.50259841      -0.04728432
H        1.41906537       0.42228215       1.37291765
H        2.51887836       0.12970174      -0.00661132
H        0.55921672      -0.36478606      -1.48669665
H       -0.91668242      -1.94289449      -0.35413655
H       -0.02563013      -1.68152585       1.18900540
H       -2.57476355       1.30750178       0.07160598
13
Frame=1 idx=004526 GeodesicLength=0.04873370529589633 rxn_smarts="[C:1]([C@@:2]1([H:10])[C:3]([H:11])([H:12])[N:4]=[C:5]([H:13])[O:6]1)([H:7])([H:8])[H:9]>>[C:1]([C@@:2]1([H:10])[C:3]([H:11])([H:12])[N:4]1[C:5](=[O:6])[H:13])([H:7])([H:8])[H:9]"
C        1.51921566       0.47319840       0.29265212
C        0.51887409      -0.35504932      -0.40676207
C       -0.39775174      -1.22366033       0.27134560
N       -1.25515888      -0.07751317       0.67787807
C       -1.67700447       0.76241813      -0.24669058
O       -1.16167426       1.02860206      -1.34194873
H        1.44824354       1.50814560      -0.04836111
H        1.41267317       0.43343154       1.37460402
H        2.51469601       0.11552374       0.00571680
H        0.56825427      -0.36700266      -1.48622677
H       -0.91296205      -1.94539102      -0.36175277
H       -0.01860954      -1.68442847       1.18126413
H       -2.55879579       1.33172549       0.08828130
13
Frame=2 idx=004526 GeodesicLength=0.09745790766986924 rxn_smarts="[C:1]([C@@:2]1([H:10])[C:3]([H:11])([H:12])[N:4]=[C:5]([H:13])[O:6]1)([H:7])([H:8])[H:9]>>[C:1]([C@@:2]1([H:10])[C:3]([H:11])([H:12])[N:4]1[C:5](=[O:6])[H:13])([H:7])([H:8])[H:9]"
C        1.51876714       0.47831030       0.29443178
C        0.50484744      -0.33475337      -0.40686887
C       -0.39963371      -1.22579952       0.26749158
N       -1.25211268      -0.08128677       0.67544160
C       -1.69154063       0.74988482      -0.24816564
O       -1.17802575       1.00222306      -1.34967165
H        1.46619968       1.51331880      -0.04951452
H        1.40604459       0.44484519       1.37616360
H        2.50980502       0.10134053       0.01814123
H        0.57695764      -0.36877572      -1.48498548
H       -0.90902518      -1.94777126      -0.36952687
H       -0.01135156      -1.68726812       1.17315972
H       -2.54093201       1.35573205       0.10390352
13
Frame=3 idx=004526 GeodesicLength=0.14616078948803923 rxn_smarts="[C:1]([C@@:2]1([H:10])[C:3]([H:11])([H:12])[N:4]=[C:5]([H:13])[O:6]1)([H:7])([H:8])[H:9]>>[C:1]([C@@:2]1([H:10])[C:3]([H:11])([H:12])[N:4]1[C:5](=[O:6])[H:13])([H:7])([H:8])[H:9]"
C        1.51808200       0.48331739       0.29611969
C        0.49067868      -0.31439022      -0.40703083
C       -0.40135557      -1.22775294       0.26347832
N       -1.24917599      -0.08517932       0.67316369
C       -1.70577496       0.73797367      -0.24866963
O       -1.19496003       0.97541411      -1.35688707
H        1.48426123       1.51804067      -0.05081333
H        1.39922703       0.45652035       1.37756748
H        2.50421294       0.08703980       0.03068152
H        0.58523862      -0.37002770      -1.48298662
H       -0.90495777      -1.94989043      -0.37743154
H       -0.00383560      -1.69004908       1.16467757
H       -2.52164059       1.37898370       0.11813077
13
Frame=4 idx=004526 GeodesicLength=0.19482482227839684 rxn_smarts="[C:1]([C@@:2]1([H:10])[C:3]([H:11])([H:12])[N:4]=[C:5]([H:13])[O:6]1)([H:7])([H:8])[H:9]>>[C:1]([C@@:2]1([H:10])[C:3]([H:11])([H:12])[N:4]1[C:5](=[O:6])[H:13])([H:7])([H:8])[H:9]"
C        1.51727636       0.48816881       0.29770100
C        0.47642989      -0.29400496      -0.40723660
C       -0.40296533      -1.22946493       0.25935630
N       -1.24627181      -0.08902842       0.67111068
C       -1.71956428       0.72683534      -0.24819556
O       -1.21226745       0.94835941      -1.36352349
H        1.50247848       1.52228415      -0.05214679
H        1.39245906       0.46829553       1.37881920
H        2.49803446       0.07266618       0.04317550
H        0.59309157      -0.37075881      -1.48027956
H       -0.90090704      -1.95167276      -0.38539957
H        0.00385871      -1.69272169       1.15587162
H       -2.50165262       1.40104216       0.13074726
13
Frame=5 idx=004526 GeodesicLength=0.24347900346200063 rxn_smarts="[C:1]([C@@:2]1([H:10])[C:3]([H:11])([H:12])[N:4]=[C:5]([H:13])[O:6]1)([H:7])([H:8])[H:9]>>[C:1]([C@@:2]1([H:10])[C:3]([H:11])([H:12])[N:4]1[C:5](=[O:6])[H:13])([H:7])([H:8])[H:9]"
C        1.51627601       0.49289883       0.29917767
C        0.46210550      -0.27363961      -0.40748821
C       -0.40444138      -1.23100267       0.25511091
N       -1.24341140      -0.09292699       0.66924732
C       -1.73290226       0.71637534      -0.24682788
O       -1.22990939       0.92105019      -1.36956264
H        1.52079337       1.52604288      -0.05359899
H        1.38560307       0.48027809       1.37990975
H        2.49121460       0.05825680       0.05573107
H        0.60050153      -0.37096828      -1.47691272
H       -0.89681467      -1.95319670      -0.39345044
H        0.01175948      -1.69533663       1.14672947
H       -2.48077447       1.42216877       0.14193469
13
Frame=6 idx=004526 GeodesicLength=0.2921375166796437 rxn_smarts="[C:1]([C@@:2]1([H:10])[C:3]([H:11])([H:12])[N:4]=[C:5]([H:13])[O:6]1)([H:7])([H:8])[H:9]>>[C:1]([C@@:2]1([H:10])[C:3]([H:11])([H:12])[N:4]1[C:5](=[O:6])[H:13])([H:7])([H:8])[H:9]"
C        1.51510115       0.49749652       0.30054436
C        0.44773040      -0.25333050      -0.40776451
C       -0.40578340      -1.23236875       0.25074848
N       -1.24055359      -0.09686778       0.66758252
C       -1.74576309       0.70655485      -0.24460926
O       -1.24776886       0.89359299      -1.37489866
H        1.53925448       1.52926014      -0.05522279
H        1.37867191       0.49250628       1.38082128
H        2.48377551       0.04380142       0.06839140
H        0.60742457      -0.37063173      -1.47292173
H       -0.89270427      -1.95444815      -0.40158032
H        0.01987850      -1.69788743       1.13724260
H       -2.45926332       1.44232214       0.15166664
13
Frame=7 idx=004526 GeodesicLength=0.3407860035777309 rxn_smarts="[C:1]([C@@:2]1([H:10])[C:3]([H:11])([H:12])[N:4]=[C:5]([H:13])[O:6]1)([H:7])([H:8])[H:9]>>[C:1]([C@@:2]1([H:10])[C:3]([H:11])([H:12])[N:4]1[C:5](=[O:6])[H:13])([H:7])([H:8])[H:9]"
C        1.51369278       0.50198938       0.30180230
C        0.43332240      -0.23315802      -0.40807456
C       -0.40700415      -1.23362505       0.24628598
N       -1.23771210      -0.10087482       0.66607278
C       -1.75815449       0.69731173      -0.24165825
O       -1.26574163       0.86600694      -1.37957160
H        1.55763185       1.53199050      -0.05692469
H        1.37166895       0.50489901       1.38156541
H        2.47571393       0.02949318       0.08107632
H        0.61388691      -0.36981767      -1.46837113
H       -0.88857881      -1.95551613      -0.40975749
H        0.02817424      -1.70039623       1.12746589
H       -2.43689989       1.46169716       0.16008904
13
Frame=8 idx=004526 GeodesicLength=0.3894630611255292 rxn_smarts="[C:1]([C@@:2]1([H:10])[C:3]([H:11])([H:12])[N:4]=[C:5]([H:13])[O:6]1)([H:7])([H:8])[H:9]>>[C:1]([C@@:2]1([H:10])[C:3]([H:11])([H:12])[N:4]1[C:5](=[O:6])[H:13])([H:7])([H:8])[H:9]"
C        1.51210489       0.50635849       0.30293642
C        0.41890553      -0.21312793      -0.40840768
C       -0.40811378      -1.23475055       0.24173912
N       -1.23482762      -0.10489865       0.66474075
C       -1.77003460       0.68864351      -0.23799872
O       -1.28367743       0.83849266      -1.38346918
H        1.57607910       1.53416834      -0.05879556
H        1.36461131       0.51752455       1.38211020
H        2.46705808       0.01523854       0.09384827
H        0.61986247      -0.36850553      -1.46330349
H       -0.88447922      -1.95635601      -0.41796528
H        0.03663435      -1.70284873       1.11739760
H       -2.41412308       1.48006133       0.16716756
13
Frame=9 idx=004526 GeodesicLength=0.43818258039264474 rxn_smarts="[C:1]([C@@:2]1([H:10])[C:3]([H:11])([H:12])[N:4]=[C:5]([H:13])[O:6]1)([H:7])([H:8])[H:9]>>[C:1]([C@@:2]1([H:10])[C:3]([H:11])([H:12])[N:4]1[C:5](=[O:6])[H:13])([H:7])([H:8])[H:9]"
C        1.51028693       0.51063770       0.30395653
C        0.40448353      -0.19329463      -0.40875909
C       -0.40911103      -1.23581223       0.23710094
N       -1.23191366      -0.10900384       0.66356534
C       -1.78143364       0.68047865      -0.23368648
O       -1.30154950       0.81103610      -1.38659449
H        1.59449488       1.53580530      -0.06086559
H        1.35742736       0.53043837       1.38246537
H        2.45779709       0.00112513       0.10676754
H        0.62534676      -0.36671439      -1.45778426
H       -0.88038683      -1.95704467      -0.42622874
H        0.04527187      -1.70529411       1.10703734
H       -2.39071376       1.49764260       0.17302557
13
Frame=10 idx=004526 GeodesicLength=0.48696716211231245 rxn_smarts="[C:1]([C@@:2]1([H:10])[C:3]([H:11])([H:12])[N:4]=[C:5]([H:13])[O:6]1)([H:7])([H:8])[H:9]>>[C:1]([C@@:2]1([H:10])[C:3]([H:11])([H:12])[N:4]1[C:5](=[O:6])[H:13])([H:7])([H:8])[H:9]"
C        1.50827166       0.51481231       0.30485722
C        0.39007454      -0.17366823      -0.40911811
C       -0.41000181      -1.23679027       0.23237905
N       -1.22893153      -0.11315396       0.66254256
C       -1.79233366       0.67281171      -0.22875820
O       -1.31925970       0.78377411      -1.38889164
H        1.61296709       1.53683102      -0.06319933
H        1.35011893       0.54369888       1.38259941
H        2.44794788      -0.01290331       0.11990209
H        0.63033381      -0.36444602      -1.45184873
H       -0.87632378      -1.95753759      -0.43453972
H        0.05408411      -1.70770995       1.09637717
H       -2.36694754       1.51428130       0.17769824
13
Frame=11 idx=004526 GeodesicLength=0.5358164699045399 rxn_smarts="[C:1]([C@@:2]1([H:10])[C:3]([H:11])([H:12])[N:4]=[C:5]([H:13])[O:6]1)([H:7])([H:8])[H:9]>>[C:1]([C@@:2]1([H:10])[C:3]([H:11])([H:12])[N:4]1[C:5](=[O:6])[H:13])([H:7])([H:8])[H:9]"
C        1.50603876       0.51890028       0.30563599
C        0.37569945      -0.15431862      -0.40948561
C       -0.41080954      -1.23773507       0.22759945
N       -1.22586288      -0.11734119       0.66166268
C       -1.80271439       0.66562211      -0.22327406
O       -1.33669408       0.75677475      -1.39038115
H        1.63131534       1.53731106      -0.06570716
H        1.34273446       0.55720657       1.38252466
H        2.43754136      -0.02668892       0.13315594
H        0.63484645      -0.36177382      -1.44555894
H       -0.87233157      -1.95790059      -0.44286432
H        0.06302612      -1.71012577       1.08546729
H       -2.34278948       1.53006922       0.18122524
13
Frame=12 idx=004526 GeodesicLength=0.5847139571449972 rxn_smarts="[C:1]([C@@:2]1([H:10])[C:3]([H:11])([H:12])[N:4]=[C:5]([H:13])[O:6]1)([H:7])([H:8])[H:9]>>[C:1]([C@@:2]1([H:10])[C:3]([H:11])([H:12])[N:4]1[C:5](=[O:6])[H:13])([H:7])([H:8])[H:9]"
C        1.50364220       0.52288113       0.30628650
C        0.36139610      -0.13528167      -0.40985838
C       -0.41156191      -1.23862631       0.22279754
N       -1.22266640      -0.12148883       0.66091511
C       -1.81254561       0.65891651      -0.21730933
O       -1.35370857       0.73019212      -1.39106584
H        1.64949866       1.53725157      -0.06831506
H        1.33538859       0.57085481       1.38223819
H        2.42665997      -0.04017973       0.14642727
H        0.63891606      -0.35877345      -1.43894932
H       -0.86847553      -1.95810227      -0.45115152
H        0.07204325      -1.71250511       1.07435944
H       -2.31858681       1.54486124       0.18362540
13
Frame=13 idx=004526 GeodesicLength=0.633661248960895 rxn_smarts="[C:1]([C@@:2]1([H:10])[C:3]([H:11])([H:12])[N:4]=[C:5]([H:13])[O:6]1)([H:7])([H:8])[H:9]>>[C:1]([C@@:2]1([H:10])[C:3]([H:11])([H:12])[N:4]1[C:5](=[O:6])[H:13])([H:7])([H:8])[H:9]"
C        1.50112121       0.52673945       0.30680591
C        0.34719178      -0.11656370      -0.41021734
C       -0.41226407      -1.23944772       0.21798117
N       -1.21930878      -0.12556121       0.66029594
C       -1.82183317       0.65267095      -0.21089614
O       -1.37022539       0.70413968      -1.39092283
H        1.66759828       1.53659174      -0.07108731
H        1.32809440       0.58467627       1.38171717
H        2.41533957      -0.05342253       0.15977632
H        0.64255404      -0.35545263      -1.43204786
H       -0.86476850      -1.95810914      -0.45939710
H        0.08113261      -1.71483207       1.06304416
H       -2.29463197       1.55857090       0.18494790
13
Frame=14 idx=004526 GeodesicLength=0.6826408349607567 rxn_smarts="[C:1]([C@@:2]1([H:10])[C:3]([H:11])([H:12])[N:4]=[C:5]([H:13])[O:6]1)([H:7])([H:8])[H:9]>>[C:1]([C@@:2]1([H:10])[C:3]([H:11])([H:12])[N:4]1[C:5](=[O:6])[H:13])([H:7])([H:8])[H:9]"
C        1.49849511       0.53048017       0.30719496
C        0.33311263      -0.09820332      -0.41057398
C       -0.41293396      -1.24022657       0.21317556
N       -1.21576729      -0.12952679       0.65979490
C       -1.83056289       0.64688324      -0.20409830
O       -1.38616504       0.67869767      -1.39001454
H        1.68552594       1.53538838      -0.07395847
H        1.32091440       0.59859538       1.38098188
H        2.40363966      -0.06634538       0.17313279
H        0.64579993      -0.35189278      -1.42490978
H       -0.86124754      -1.95796227      -0.46757216
H        0.09025648      -1.71712413       1.05157512
H       -2.27106741       1.57123641       0.18527200
13
Frame=15 idx=004526 GeodesicLength=0.7316218760827171 rxn_smarts="[C:1]([C@@:2]1([H:10])[C:3]([H:11])([H:12])[N:4]=[C:5]([H:13])[O:6]1)([H:7])([H:8])[H:9]>>[C:1]([C@@:2]1([H:10])[C:3]([H:11])([H:12])[N:4]1[C:5](=[O:6])[H:13])([H:7])([H:8])[H:9]"
C        1.49581845       0.53408129       0.30744905
C        0.31919848      -0.08021923      -0.41092115
C       -0.41359023      -1.24094110       0.20840959
N       -1.21200841      -0.13331769       0.65939540
C       -1.83873044       0.64153687      -0.19698577
O       -1.40142078       0.65398251      -1.38837426
H        1.70326543       1.53364557      -0.07688088
H        1.31394489       0.61251704       1.38003023
H        2.39164315      -0.07892623       0.18642065
H        0.64869646      -0.34816185      -1.41755246
H       -0.85795194      -1.95763573      -0.47563463
H        0.09937211      -1.71934848       1.03999124
H       -2.24823718       1.58278704       0.18465299
13
Frame=16 idx=004526 GeodesicLength=0.7805738042293426 rxn_smarts="[C:1]([C@@:2]1([H:10])[C:3]([H:11])([H:12])[N:4]=[C:5]([H:13])[O:6]1)([H:7])([H:8])[H:9]>>[C:1]([C@@:2]1([H:10])[C:3]([H:11])([H:12])[N:4]1[C:5](=[O:6])[H:13])([H:7])([H:8])[H:9]"
C        1.49313048       0.53753255       0.30756672
C        0.30548365      -0.06263097      -0.41125950
C       -0.41424869      -1.24158814       0.20370725
N       -1.20800925      -0.13688788       0.65907959
C       -1.84633429       0.63661441      -0.18962433
O       -1.41591559       0.63007306      -1.38605959
H        1.72077884       1.53139233      -0.07981013
H        1.30725590       0.62636022       1.37887078
H        2.37942504      -0.09113511       0.19957457
H        0.65128986      -0.34433179      -1.40999944
H       -0.85491200      -1.95712980      -0.48355192
H        0.10844230      -1.72149293       1.02833199
H       -2.22638625       1.59322405       0.18317401
