16
Frame=0 idx=009346 GeodesicLength=0.0 rxn_smarts="[C:1]([N:2]1[C@@:3]2([H:11])[C@@:4]3([H:12])[C:5]([H:13])([H:14])[C@:6]1([H:15])[C@@:7]23[H:16])([H:8])([H:9])[H:10]>>[C-:1]([N+:2]1=[C:3]2[C@@:4]3([H:12])[C:5]([H:13])([H:14])[C@:6]1([H:15])[C@@:7]23[H:16])([H:8])[H:10].[H:9][H:11]"
C        1.84993834       0.54601769      -0.06716838
N        0.78544833      -0.14223403      -0.43772797
C        0.08432666      -0.96921461       0.47961277
C       -1.21720794      -0.23764768       0.81533814
C       -1.21265754       1.01813211      -0.05432343
C       -0.51396114       0.12863692      -1.12033129
C       -1.10682344      -1.10978643      -0.41549637
H        2.42635572       1.03386823      -0.84779180
H        2.26427974      -1.00770867       0.92307641
H        1.98019993       0.90304758       0.94713406
H        1.45768916      -1.36465767       1.08672186
H       -1.80364613      -0.41916619       1.70459053
H       -0.63831239       1.89331162       0.27143120
H       -2.21960318       1.31989383      -0.34696104
H       -0.48064358       0.37912266      -2.17831581
H       -1.65538259      -1.97161532      -0.75978894
16
Frame=1 idx=009346 GeodesicLength=0.07957388103461535 rxn_smarts="[C:1]([N:2]1[C@@:3]2([H:11])[C@@:4]3([H:12])[C:5]([H:13])([H:14])[C@:6]1([H:15])[C@@:7]23[H:16])([H:8])([H:9])[H:10]>>[C-:1]([N+:2]1=[C:3]2[C@@:4]3([H:12])[C:5]([H:13])([H:14])[C@:6]1([H:15])[C@@:7]23[H:16])([H:8])[H:10].[H:9][H:11]"
C        1.85812336       0.53668229      -0.06442706
N        0.78296722      -0.14079902      -0.42823483
C        0.08045475      -0.96768445       0.49299575
C       -1.22294254      -0.23122350       0.81559701
C       -1.21476810       1.02121809      -0.05853554
C       -0.51069323       0.12827671      -1.11692720
C       -1.10623505      -1.10881278      -0.40962482
H        2.39853131       1.06444686      -0.84529423
H        2.28044192      -1.01441007       0.90863417
H        1.99262392       0.89545790       0.94923987
H        1.45728796      -1.39305190       1.07657208
H       -1.81163051      -0.40837648       1.70423199
H       -0.64450401       1.89949880       0.26555443
H       -2.22023727       1.31851866      -0.36060901
H       -0.46900570       0.37392833      -2.17574806
H       -1.65041403      -1.97366946      -0.75342456
16
Frame=2 idx=009346 GeodesicLength=0.15887116877317858 rxn_smarts="[C:1]([N:2]1[C@@:3]2([H:11])[C@@:4]3([H:12])[C:5]([H:13])([H:14])[C@:6]1([H:15])[C@@:7]23[H:16])([H:8])([H:9])[H:10]>>[C-:1]([N+:2]1=[C:3]2[C@@:4]3([H:12])[C:5]([H:13])([H:14])[C@:6]1([H:15])[C@@:7]23[H:16])([H:8])[H:10].[H:9][H:11]"
C        1.86625300       0.52776516      -0.06214005
N        0.78048084      -0.13898980      -0.41866562
C        0.07670325      -0.96571604       0.50660776
C       -1.22860539      -0.22459683       0.81588405
C       -1.21706962       1.02431121      -0.06295811
C       -0.50745918       0.12788632      -1.11350853
C       -1.10546344      -1.10782945      -0.40349422
H        2.37077660       1.09429093      -0.84039396
H        2.29719429      -1.02135368       0.89272655
H        2.00530966       0.88758984       0.95116207
H        1.45620004      -1.42137833       1.06582647
H       -1.81953108      -0.39730724       1.70389832
H       -0.65108682       1.90586626       0.25925632
H       -2.22104813       1.31682642      -0.37446756
H       -0.45749757       0.36847015      -2.17314130
H       -1.64515643      -1.97583491      -0.74659219
16
Frame=3 idx=009346 GeodesicLength=0.23794200712429536 rxn_smarts="[C:1]([N:2]1[C@@:3]2([H:11])[C@@:4]3([H:12])[C:5]([H:13])([H:14])[C@:6]1([H:15])[C@@:7]23[H:16])([H:8])([H:9])[H:10]>>[C-:1]([N+:2]1=[C:3]2[C@@:4]3([H:12])[C:5]([H:13])([H:14])[C@:6]1([H:15])[C@@:7]23[H:16])([H:8])[H:10].[H:9][H:11]"
C        1.87428886       0.51930926      -0.06026287
N        0.77798698      -0.13678940      -0.40898644
C        0.07306392      -0.96330302       0.52046556
C       -1.23422286      -0.21778735       0.81619790
C       -1.21958749       1.02739842      -0.06758150
C       -0.50425023       0.12747970      -1.11005828
C       -1.10450066      -1.10683619      -0.39710960
H        2.34327199       1.12326327      -0.83321299
H        2.31458234      -1.02846625       0.87517215
H        2.01828297       0.87942989       0.95293908
H        1.45432051      -1.44956168       1.05463092
H       -1.82739155      -0.38599637       1.70357264
H       -0.65810247       1.91240123       0.25255909
H       -2.22205662       1.31479139      -0.38853768
H       -0.44609760       0.36277508      -2.17047297
H       -1.63958809      -1.97810800      -0.73931500
16
Frame=4 idx=009346 GeodesicLength=0.3168414219277885 rxn_smarts="[C:1]([N:2]1[C@@:3]2([H:11])[C@@:4]3([H:12])[C:5]([H:13])([H:14])[C@:6]1([H:15])[C@@:7]23[H:16])([H:8])([H:9])[H:10]>>[C-:1]([N+:2]1=[C:3]2[C@@:4]3([H:12])[C:5]([H:13])([H:14])[C@:6]1([H:15])[C@@:7]23[H:16])([H:8])[H:10].[H:9][H:11]"
C        1.88220517       0.51132572      -0.05874889
N        0.77548847      -0.13420102      -0.39916579
C        0.06952479      -0.96045051       0.53458314
C       -1.23981802      -0.21081527       0.81653382
C       -1.22233091       1.03046403      -0.07239563
C       -0.50104855       0.12706263      -1.10655762
C       -1.10334075      -1.10583284      -0.39047652
H        2.31614298       1.15130918      -0.82387676
H        2.33262039      -1.03563997       0.85576843
H        2.03157902       0.87094347       0.95459782
H        1.45153318      -1.47754481       1.04316742
H       -1.83525554      -0.37447666       1.70323341
H       -0.66557021       1.91908227       0.24548589
H       -2.22326350       1.31239035      -0.40281999
H       -0.43477062       0.35685927      -2.16771277
H       -1.63369587      -1.98047583      -0.73161597
16
Frame=5 idx=009346 GeodesicLength=0.3956516688956625 rxn_smarts="[C:1]([N:2]1[C@@:3]2([H:11])[C@@:4]3([H:12])[C:5]([H:13])([H:14])[C@:6]1([H:15])[C@@:7]23[H:16])([H:8])([H:9])[H:10]>>[C-:1]([N+:2]1=[C:3]2[C@@:4]3([H:12])[C:5]([H:13])([H:14])[C@:6]1([H:15])[C@@:7]23[H:16])([H:8])[H:10].[H:9][H:11]"
C        1.88996653       0.50387075      -0.05754315
N        0.77298827      -0.13122077      -0.38916689
C        0.06607316      -0.95714986       0.54898267
C       -1.24541486      -0.20368700       0.81688993
C       -1.22531628       1.03349912      -0.07740724
C       -0.49783873       0.12663750      -1.10299192
C       -1.10197878      -1.10482043      -0.38359001
H        2.28949210       1.17840144      -0.81246814
H        2.35140805      -1.04288235       0.83423267
H        2.04521509       0.86207744       0.95621064
H        1.44772389      -1.50525713       1.03163661
H       -1.84316527      -0.36275951       1.70286470
H       -0.67352261       1.92590292       0.23803386
H       -2.22467825       1.30960256      -0.41734004
H       -0.42348558       0.35072575      -2.16484508
H       -1.62746674      -1.98294041      -0.72349862
16
Frame=6 idx=009346 GeodesicLength=0.47448159184250965 rxn_smarts="[C:1]([N:2]1[C@@:3]2([H:11])[C@@:4]3([H:12])[C:5]([H:13])([H:14])[C@:6]1([H:15])[C@@:7]23[H:16])([H:8])([H:9])[H:10]>>[C-:1]([N+:2]1=[C:3]2[C@@:4]3([H:12])[C:5]([H:13])([H:14])[C@:6]1([H:15])[C@@:7]23[H:16])([H:8])[H:10].[H:9][H:11]"
C        1.89754688       0.49694720      -0.05658905
N        0.77049300      -0.12786824      -0.37895579
C        0.06268878      -0.95341165       0.56368158
C       -1.25103521      -0.19641882       0.81726028
C       -1.22853835       1.03648762      -0.08261245
C       -0.49459588       0.12620316      -1.09934240
C       -1.10041481      -1.10379972      -0.37645323
H        2.26338115       1.20453047      -0.79907784
H        2.37097787      -1.05003615       0.81033184
H        2.05922654       0.85276950       0.95779449
H        1.44277721      -1.53268486       1.02023231
H       -1.85116472      -0.35086648       1.70244356
H       -0.68196185       1.93284056       0.23021675
H       -2.22628061       1.30641128      -0.43210534
H       -0.41219718       0.34438355      -2.16184361
H       -1.62090282      -1.98548743      -0.71498110
16
Frame=7 idx=009346 GeodesicLength=0.5533498844605108 rxn_smarts="[C:1]([N:2]1[C@@:3]2([H:11])[C@@:4]3([H:12])[C:5]([H:13])([H:14])[C@:6]1([H:15])[C@@:7]23[H:16])([H:8])([H:9])[H:10]>>[C-:1]([N+:2]1=[C:3]2[C@@:4]3([H:12])[C:5]([H:13])([H:14])[C@:6]1([H:15])[C@@:7]23[H:16])([H:8])[H:10].[H:9][H:11]"
C        1.90492586       0.49057411      -0.05583586
N        0.76801078      -0.12416667      -0.36850291
C        0.05935355      -0.94923868       0.57869779
C       -1.25669808      -0.18901444       0.81763800
C       -1.23199269       1.03941492      -0.08802062
C       -0.49129562       0.12574933      -1.09559460
C       -1.09864864      -1.10277116      -0.36906078
H        2.23784930       1.22975497      -0.78375451
H        2.39137735      -1.05705137       0.78373057
H        2.07363773       0.84295298       0.95941980
H        1.43658373      -1.55978770       1.00919594
H       -1.85929309      -0.33879881       1.70194835
H       -0.69089005       1.93987455       0.22202661
H       -2.22805353       1.30279888      -0.44714008
H       -0.40086244       0.33781750      -2.15868393
H       -1.61400415      -1.98810842      -0.70606377
16
Frame=8 idx=009346 GeodesicLength=0.6322312595278722 rxn_smarts="[C:1]([N:2]1[C@@:3]2([H:11])[C@@:4]3([H:12])[C:5]([H:13])([H:14])[C@:6]1([H:15])[C@@:7]23[H:16])([H:8])([H:9])[H:10]>>[C-:1]([N+:2]1=[C:3]2[C@@:4]3([H:12])[C:5]([H:13])([H:14])[C@:6]1([H:15])[C@@:7]23[H:16])([H:8])[H:10].[H:9][H:11]"
C        1.91207894       0.48478096      -0.05522087
N        0.76555129      -0.12013864      -0.35777782
C        0.05604714      -0.94462826       0.59405389
C       -1.26242559      -0.18147831       0.81801491
C       -1.23567702       1.04226155      -0.09364433
C       -0.48790735       0.12526447      -1.09173183
C       -1.09667667      -1.10173170      -0.36140480
H        2.21292218       1.25415259      -0.76651826
H        2.41260331      -1.06384422       0.75406457
H        2.08852233       0.83253069       0.96112083
H        1.42904475      -1.58655458       0.99879137
H       -1.86759686      -0.32655329       1.70135538
H       -0.70031581       1.94697809       0.21345081
H       -2.22997873       1.29873677      -0.46247110
H       -0.38942616       0.33101073      -2.15533993
H       -1.60676577      -1.99078686      -0.69674282
16
Frame=9 idx=009346 GeodesicLength=0.7121028458924523 rxn_smarts="[C:1]([N:2]1[C@@:3]2([H:11])[C@@:4]3([H:12])[C:5]([H:13])([H:14])[C@:6]1([H:15])[C@@:7]23[H:16])([H:8])([H:9])[H:10]>>[C-:1]([N+:2]1=[C:3]2[C@@:4]3([H:12])[C:5]([H:13])([H:14])[C@:6]1([H:15])[C@@:7]23[H:16])([H:8])[H:10].[H:9][H:11]"
C        1.91893386       0.47972416      -0.05452927
N        0.76315160      -0.11579487      -0.34664107
C        0.05273258      -0.93950071       0.60987917
C       -1.26825269      -0.17374008       0.81838700
C       -1.23957131       1.04504580      -0.09958608
C       -0.48436444       0.12469829      -1.08772734
C       -1.09448778      -1.10069841      -0.35341189
H        2.18817636       1.27808098      -0.74730087
H        2.43515202      -1.07047385       0.72058357
H        2.10404247       0.82104266       0.96311748
H        1.41985675      -1.61306840       0.98926831
H       -1.87615559      -0.31400275       1.70062617
H       -0.71025113       1.95419980       0.20435782
H       -2.23200472       1.29421744      -0.47828120
H       -0.37777938       0.32385739      -2.15182626
H       -1.59917861      -1.99358746      -0.68691553
16
Frame=10 idx=009346 GeodesicLength=0.7921140593446789 rxn_smarts="[C:1]([N:2]1[C@@:3]2([H:11])[C@@:4]3([H:12])[C:5]([H:13])([H:14])[C@:6]1([H:15])[C@@:7]23[H:16])([H:8])([H:9])[H:10]>>[C-:1]([N+:2]1=[C:3]2[C@@:4]3([H:12])[C:5]([H:13])([H:14])[C@:6]1([H:15])[C@@:7]23[H:16])([H:8])[H:10].[H:9][H:11]"
C        1.92553526       0.47523942      -0.05386186
N        0.76080312      -0.11121855      -0.33516886
C        0.04939442      -0.93394580       0.62610771
C       -1.27416871      -0.16585323       0.81874193
C       -1.24363792       1.04772185      -0.10580265
C       -0.48066092       0.12404190      -1.08358724
C       -1.09210239      -1.09966583      -0.34512146
H        2.16385822       1.30149127      -0.72592382
H        2.45860407      -1.07656124       0.68314268
H        2.12016961       0.80862606       0.96523188
H        1.40907822      -1.63926351       0.98090930
H       -1.88495865      -0.30121111       1.69975506
H       -0.72063206       1.96145319       0.19480198
H       -2.23408533       1.28922481      -0.49448609
H       -0.36591284       0.31636356      -2.14810168
H       -1.59128411      -1.99644278      -0.67663688
16
Frame=11 idx=009346 GeodesicLength=0.8722923563035184 rxn_smarts="[C:1]([N:2]1[C@@:3]2([H:11])[C@@:4]3([H:12])[C:5]([H:13])([H:14])[C@:6]1([H:15])[C@@:7]23[H:16])([H:8])([H:9])[H:10]>>[C-:1]([N+:2]1=[C:3]2[C@@:4]3([H:12])[C:5]([H:13])([H:14])[C@:6]1([H:15])[C@@:7]23[H:16])([H:8])[H:10].[H:9][H:11]"
C        1.93186387       0.47135589      -0.05315807
N        0.75852249      -0.10644768      -0.32332524
C        0.04600646      -0.92795181       0.64277074
C       -1.28018540      -0.15780085       0.81906636
C       -1.24785077       1.05028053      -0.11233211
C       -0.47676308       0.12326448      -1.07929742
C       -1.08952535      -1.09863951      -0.33651197
H        2.13985765       1.32453159      -0.70227181
H        2.48308431      -1.08205154       0.64128133
H        2.13692877       0.79511907       0.96753820
H        1.39659096      -1.66511597       0.97396931
H       -1.89403808      -0.28813839       1.69870948
H       -0.73143728       1.96872938       0.18473219
H       -2.23617585       1.28374286      -0.51114674
H       -0.35377919       0.30847788      -2.14415120
H       -1.58309952      -1.99935595      -0.66587306
16
Frame=12 idx=009346 GeodesicLength=0.9527202976912237 rxn_smarts="[C:1]([N:2]1[C@@:3]2([H:11])[C@@:4]3([H:12])[C:5]([H:13])([H:14])[C@:6]1([H:15])[C@@:7]23[H:16])([H:8])([H:9])[H:10]>>[C-:1]([N+:2]1=[C:3]2[C@@:4]3([H:12])[C:5]([H:13])([H:14])[C@:6]1([H:15])[C@@:7]23[H:16])([H:8])[H:10].[H:9][H:11]"
C        1.93790320       0.46807521      -0.05235350
N        0.75632648      -0.10153784      -0.31107836
C        0.04253718      -0.92152041       0.65990729
C       -1.28631099      -0.14956728       0.81934817
C       -1.25216856       1.05271153      -0.11921582
C       -0.47263182       0.12232901      -1.07484889
C       -1.08676630      -1.09762882      -0.32756095
H        2.11605343       1.34730052      -0.67608583
H        2.50862890      -1.08664829       0.59446509
H        2.15437841       0.78030423       0.97002894
H        1.38228014      -1.69065556       0.96871587
H       -1.90342307      -0.27473652       1.69746348
H       -0.74262619       1.97601562       0.17409069
H       -2.23821036       1.27776243      -0.52832614
H       -0.34131736       0.30013171      -2.13996418
H       -1.57465311      -2.00233554      -0.65458587
16
Frame=13 idx=009346 GeodesicLength=1.0332682969536233 rxn_smarts="[C:1]([N:2]1[C@@:3]2([H:11])[C@@:4]3([H:12])[C:5]([H:13])([H:14])[C@:6]1([H:15])[C@@:7]23[H:16])([H:8])([H:9])[H:10]>>[C-:1]([N+:2]1=[C:3]2[C@@:4]3([H:12])[C:5]([H:13])([H:14])[C@:6]1([H:15])[C@@:7]23[H:16])([H:8])[H:10].[H:9][H:11]"
C        1.94364050       0.46543715      -0.05140412
N        0.75423331      -0.09653625      -0.29840685
C        0.03896143      -0.91462969       0.67755183
C       -1.29255271      -0.14112313       0.81957083
C       -1.25656023       1.05499731      -0.12650941
C       -0.46822859       0.12119097      -1.07023614
C       -1.08382658      -1.09663661      -0.31823680
H        2.09231269       1.36996773      -0.64706114
H        2.53525965      -1.09021672       0.54208315
H        2.17259988       0.76395925       0.97275046
H        1.36604940      -1.71587559       0.96546925
H       -1.91314089      -0.26093875       1.69598554
H       -0.75417618       1.98329562       0.16279425
H       -2.24013928       1.27125345      -0.54610094
H       -0.32847574       0.29123996      -2.13553227
H       -1.56595668      -2.00538467      -0.64271767
16
Frame=14 idx=009346 GeodesicLength=1.1137083839730106 rxn_smarts="[C:1]([N:2]1[C@@:3]2([H:11])[C@@:4]3([H:12])[C:5]([H:13])([H:14])[C@:6]1([H:15])[C@@:7]23[H:16])([H:8])([H:9])[H:10]>>[C-:1]([N+:2]1=[C:3]2[C@@:4]3([H:12])[C:5]([H:13])([H:14])[C@:6]1([H:15])[C@@:7]23[H:16])([H:8])[H:10].[H:9][H:11]"
C        1.94905533       0.46348435      -0.05024640
N        0.75226052      -0.09148854      -0.28528048
C        0.03525077      -0.90725734       0.69574065
C       -1.29892150      -0.13244795       0.81971251
C       -1.26099637       1.05711611      -0.13426184
C       -0.46351682       0.11981215      -1.06544509
C       -1.08070887      -1.09566524      -0.30851282
H        2.06855470       1.39261862      -0.61493012
H        2.56297108      -1.09256198       0.48355837
H        2.19166453       0.74589804       0.97573978
H        1.34780603      -1.74076490       0.96450648
H       -1.92322476      -0.24669203       1.69423167
H       -0.76605990       1.99054178       0.15077117
H       -2.24191082       1.26418245      -0.56453493
H       -0.31520047       0.28172423      -2.13082909
H       -1.55702347      -2.00849974      -0.63021984
16
Frame=15 idx=009346 GeodesicLength=1.1939661024261683 rxn_smarts="[C:1]([N:2]1[C@@:3]2([H:11])[C@@:4]3([H:12])[C:5]([H:13])([H:14])[C@:6]1([H:15])[C@@:7]23[H:16])([H:8])([H:9])[H:10]>>[C-:1]([N+:2]1=[C:3]2[C@@:4]3([H:12])[C:5]([H:13])([H:14])[C@:6]1([H:15])[C@@:7]23[H:16])([H:8])[H:10].[H:9][H:11]"
C        1.95413362       0.46223796      -0.04881463
N        0.75042986      -0.08646467      -0.27166935
C        0.03137038      -0.89939143       0.71452785
C       -1.30541943      -0.12350852       0.81975763
C       -1.26542313       1.05905247      -0.14254186
C       -0.45844703       0.11813264      -1.06047178
C       -1.07742054      -1.09472808      -0.29834988
H        2.04464244       1.41529723      -0.57917693
H        2.59167944      -1.09318749       0.41814811
H        2.21168124       0.72580131       0.97895209
H        1.32744293      -1.76536221       0.96615130
H       -1.93369832      -0.23191077       1.69217123
H       -0.77822435       1.99773966       0.13791502
H       -2.24344171       1.25652293      -0.58372275
H       -0.30142268       0.27146852      -2.12585730
H       -1.54788273      -2.01169954      -0.61701875
16
Frame=16 idx=009346 GeodesicLength=1.2737565202885188 rxn_smarts="[C:1]([N:2]1[C@@:3]2([H:11])[C@@:4]3([H:12])[C:5]([H:13])([H:14])[C@:6]1([H:15])[C@@:7]23[H:16])([H:8])([H:9])[H:10]>>[C-:1]([N+:2]1=[C:3]2[C@@:4]3([H:12])[C:5]([H:13])([H:14])[C@:6]1([H:15])[C@@:7]23[H:16])([H:8])[H:10].[H:9][H:11]"
C        1.95885814       0.46175732      -0.04705450
N        0.74876396      -0.08152489      -0.25754804
C        0.02729079      -0.89099969       0.73396653
C       -1.31205038      -0.11426465       0.81968379
C       -1.26980037       1.06078528      -0.15142824
C       -0.45297329       0.11609163      -1.05531442
C       -1.07396135      -1.09383391      -0.28770417
H        2.02044772       1.43806445      -0.53926826
H        2.62128739      -1.09172231       0.34510806
H        2.23278217       0.70336001       0.98237536
H        1.30487683      -1.78966944       0.97073051
H       -1.94458749      -0.21649970       1.68976500
H       -0.79063433       2.00486936       0.12410165
H       -2.24466912       1.24823715      -0.60376428
H       -0.28708200       0.26034728      -2.12061847
H       -1.53854866      -2.01499790      -0.60303052
