17
Frame=0 idx=011643 GeodesicLength=0.0 rxn_smarts="[O:1]([C:2]([C@@:3]1([H:11])[C:4]([H:12])([H:13])[C:5]([H:14])([H:15])[O:6][C:7]1([H:16])[H:17])([H:9])[H:10])[H:8]>>[O:1]([C:2]([C:3]([C:4]([C:5]([O:6][H:11])([H:14])[H:15])([H:12])[H:13])=[C:7]([H:16])[H:17])([H:9])[H:10])[H:8]"
O        2.18901912      -0.39849080       1.38815566
C        1.75393530      -0.70214316       0.07354799
C        0.34243615      -0.28255007      -0.21145941
C       -0.18537984       1.12852594      -0.18278140
C       -1.69515301       0.88601916       0.23329954
O       -1.84364829      -0.48726667       0.50626612
C       -0.61091375      -1.10017931      -0.85539821
H        2.26466528       0.55279606       1.47455366
H        2.44984518      -0.26625049      -0.65611277
H        1.83195228      -1.78756139      -0.02525202
H       -0.57094702      -0.65116529       0.72820847
H        0.33638333       1.75073159       0.54821088
H       -0.14193377       1.64122755      -1.14696924
H       -2.37365595       1.18845085      -0.57007028
H       -1.95030816       1.46066384       1.12591359
H       -1.28394265      -0.75184161      -1.63511004
H       -0.51235418      -2.18096628      -0.79500261
17
Frame=1 idx=011643 GeodesicLength=0.07539402757793431 rxn_smarts="[O:1]([C:2]([C@@:3]1([H:11])[C:4]([H:12])([H:13])[C:5]([H:14])([H:15])[O:6][C:7]1([H:16])[H:17])([H:9])[H:10])[H:8]>>[O:1]([C:2]([C:3]([C:4]([C:5]([O:6][H:11])([H:14])[H:15])([H:12])[H:13])=[C:7]([H:16])[H:17])([H:9])[H:10])[H:8]"
O        2.17415778      -0.38566196       1.39556257
C        1.74820099      -0.69933449       0.08054601
C        0.33341829      -0.28975495      -0.19803069
C       -0.19081212       1.12345983      -0.17925367
C       -1.69921069       0.89146190       0.23405951
O       -1.86546905      -0.48515460       0.48482306
C       -0.60916286      -1.10652031      -0.86023820
H        2.32577827       0.55836872       1.45569732
H        2.43494760      -0.26041750      -0.65589997
H        1.83372294      -1.78464207      -0.01638793
H       -0.59126836      -0.66257701       0.74705127
H        0.33203337       1.75292395       0.54430898
H       -0.14454430       1.62529332      -1.14898585
H       -2.37811792       1.21588533      -0.55981959
H       -1.93942948       1.45112516       1.14069010
H       -1.25632962      -0.75712974      -1.66095700
H       -0.50791482      -2.18732559      -0.80316593
17
Frame=2 idx=011643 GeodesicLength=0.15066186367252676 rxn_smarts="[O:1]([C:2]([C@@:3]1([H:11])[C:4]([H:12])([H:13])[C:5]([H:14])([H:15])[O:6][C:7]1([H:16])[H:17])([H:9])[H:10])[H:8]>>[O:1]([C:2]([C:3]([C:4]([C:5]([O:6][H:11])([H:14])[H:15])([H:12])[H:13])=[C:7]([H:16])[H:17])([H:9])[H:10])[H:8]"
O        2.15914518      -0.37111195       1.40249572
C        1.74236192      -0.69576326       0.08739417
C        0.32427169      -0.29662524      -0.18509036
C       -0.19649207       1.11867365      -0.17656752
C       -1.70318253       0.89706822       0.23504349
O       -1.88644687      -0.48247211       0.46326233
C       -0.60720369      -1.11284007      -0.86508564
H        2.38598037       0.55880072       1.43850447
H        2.41985401      -0.25409320      -0.65590347
H        1.83561089      -1.78093609      -0.00707932
H       -0.61180328      -0.67345309       0.76584016
H        0.32776257       1.75569888       0.53891870
H       -0.14812204       1.60929672      -1.15188717
H       -2.38276471       1.24352213      -0.54835469
H       -1.92819875       1.44092568       1.15554702
H       -1.22773908      -0.76308952      -1.68633601
H       -0.50303361      -2.19360149      -0.81070186
17
Frame=3 idx=011643 GeodesicLength=0.22581726827949244 rxn_smarts="[O:1]([C:2]([C@@:3]1([H:11])[C:4]([H:12])([H:13])[C:5]([H:14])([H:15])[O:6][C:7]1([H:16])[H:17])([H:9])[H:10])[H:8]>>[O:1]([C:2]([C:3]([C:4]([C:5]([O:6][H:11])([H:14])[H:15])([H:12])[H:13])=[C:7]([H:16])[H:17])([H:9])[H:10])[H:8]"
O        2.14402278      -0.35487369       1.40890723
C        1.73641186      -0.69141937       0.09407165
C        0.31500042      -0.30313206      -0.17263838
C       -0.20244409       1.11417967      -0.17470308
C       -1.70710537       0.90282433       0.23623615
O       -1.90659617      -0.47924289       0.44163386
C       -0.60503921      -1.11913113      -0.86993377
H        2.44548478       0.55404045       1.42304283
H        2.40457451      -0.24722801      -0.65610549
H        1.83761259      -1.77642083       0.00260429
H       -0.63254109      -0.68377667       0.78460086
H        0.32349086       1.75906906       0.53206690
H       -0.15269175       1.59326325      -1.15563999
H       -2.38760547       1.27127934      -0.53570519
H       -1.91668674       1.43010329       1.17038407
H       -1.19815921      -0.76974351      -1.71122793
H       -0.49772867      -2.19979123      -0.81759402
17
Frame=4 idx=011643 GeodesicLength=0.3007921035896725 rxn_smarts="[O:1]([C:2]([C@@:3]1([H:11])[C:4]([H:12])([H:13])[C:5]([H:14])([H:15])[O:6][C:7]1([H:16])[H:17])([H:9])[H:10])[H:8]>>[O:1]([C:2]([C:3]([C:4]([C:5]([O:6][H:11])([H:14])[H:15])([H:12])[H:13])=[C:7]([H:16])[H:17])([H:9])[H:10])[H:8]"
O        2.12899646      -0.33678555       1.41468897
C        1.73034332      -0.68635901       0.10059492
C        0.30562488      -0.30926452      -0.16066104
C       -0.20866248       1.10998100      -0.17358262
C       -1.71099432       0.90870269       0.23765006
O       -1.92592869      -0.47551737       0.41995547
C       -0.60265282      -1.12535796      -0.87482331
H        2.50418450       0.54422418       1.40915705
H        2.38910469      -0.23999244      -0.65656650
H        1.83964302      -1.77116847       0.01282520
H       -0.65347340      -0.69358273       0.80334218
H        0.31913976       1.76302974       0.52387185
H       -0.15821769       1.57725542      -1.16013292
H       -2.39261551       1.29909946      -0.52187066
H       -1.90494272       1.41865180       1.18515781
H       -1.16754333      -0.77704654      -1.73565281
H       -0.49200567      -2.20586968      -0.82395364
17
Frame=5 idx=011643 GeodesicLength=0.37565483368002184 rxn_smarts="[O:1]([C:2]([C@@:3]1([H:11])[C:4]([H:12])([H:13])[C:5]([H:14])([H:15])[O:6][C:7]1([H:16])[H:17])([H:9])[H:10])[H:8]>>[O:1]([C:2]([C:3]([C:4]([C:5]([O:6][H:11])([H:14])[H:15])([H:12])[H:13])=[C:7]([H:16])[H:17])([H:9])[H:10])[H:8]"
O        2.11374243      -0.31761985       1.41978164
C        1.72426609      -0.68026050       0.10659345
C        0.29616156      -0.31494857      -0.14929973
C       -0.21520178       1.10610145      -0.17355740
C       -1.71482202       0.91478504       0.23922745
O       -1.94435667      -0.47117072       0.39853123
C       -0.60012116      -1.13167780      -0.87949573
H        2.56183814       0.52822595       1.39844429
H        2.37360383      -0.23125787      -0.65709315
H        1.84217635      -1.76471769       0.02231784
H       -0.67441231      -0.70258856       0.82219465
H        0.31477894       1.76768611       0.51373971
H       -0.16498392       1.56104726      -1.16581418
H       -2.39787467       1.32687606      -0.50685311
H       -1.89277550       1.40686390       1.19967639
H       -1.13607301      -0.78538219      -1.75931159
H       -0.48594630      -2.21196203      -0.82908177
17
Frame=6 idx=011643 GeodesicLength=0.4503728232930791 rxn_smarts="[O:1]([C:2]([C@@:3]1([H:11])[C:4]([H:12])([H:13])[C:5]([H:14])([H:15])[O:6][C:7]1([H:16])[H:17])([H:9])[H:10])[H:8]>>[O:1]([C:2]([C:3]([C:4]([C:5]([O:6][H:11])([H:14])[H:15])([H:12])[H:13])=[C:7]([H:16])[H:17])([H:9])[H:10])[H:8]"
O        2.09874449      -0.29642363       1.42404628
C        1.71808492      -0.67335996       0.11235094
C        0.28661941      -0.32017595      -0.13841868
C       -0.22207083       1.10255542      -0.17426025
C       -1.71868494       0.92096174       0.24099486
O       -1.96198655      -0.46639184       0.37718934
C       -0.59736069      -1.13791725      -0.88417506
H        2.61886576       0.50655500       1.38956336
H        2.35794148      -0.22198853      -0.65790970
H        1.84476715      -1.75742049       0.03224886
H       -0.69547697      -0.71101541       0.84110620
H        0.31017894       1.77296738       0.50227211
H       -0.17279166       1.54490217      -1.17219625
H       -2.40333130       1.35452680      -0.49073350
H       -1.88049609       1.39457039       1.21394575
H       -1.10352485      -0.79441811      -1.78242819
H       -0.47947828      -2.21792771      -0.83359606
17
Frame=7 idx=011643 GeodesicLength=0.52484925480733 rxn_smarts="[O:1]([C:2]([C@@:3]1([H:11])[C:4]([H:12])([H:13])[C:5]([H:14])([H:15])[O:6][C:7]1([H:16])[H:17])([H:9])[H:10])[H:8]>>[O:1]([C:2]([C:3]([C:4]([C:5]([O:6][H:11])([H:14])[H:15])([H:12])[H:13])=[C:7]([H:16])[H:17])([H:9])[H:10])[H:8]"
O        2.08410861      -0.27337832       1.42730988
C        1.71187772      -0.66557289       0.11767781
C        0.27705612      -0.32491068      -0.12808846
C       -0.22925413       1.09935356      -0.17578197
C       -1.72253970       0.92725001       0.24295424
O       -1.97874154      -0.46116769       0.35614762
C       -0.59438771      -1.14411283      -0.88877082
H        2.67454591       0.47878865       1.38314541
H        2.34221376      -0.21182677      -0.65902000
H        1.84758529      -1.74914328       0.04215077
H       -0.71650182      -0.71876109       0.86016300
H        0.30535962       1.77890918       0.48929754
H       -0.18170752       1.52876503      -1.17938547
H       -2.40897678       1.38192165      -0.47352978
H       -1.86801658       1.38195786       1.22786760
H       -1.06998821      -0.80427821      -1.80484662
H       -0.47263303      -2.22379420      -0.83729077
17
Frame=8 idx=011643 GeodesicLength=0.5989806639264389 rxn_smarts="[O:1]([C:2]([C@@:3]1([H:11])[C:4]([H:12])([H:13])[C:5]([H:14])([H:15])[O:6][C:7]1([H:16])[H:17])([H:9])[H:10])[H:8]>>[O:1]([C:2]([C:3]([C:4]([C:5]([O:6][H:11])([H:14])[H:15])([H:12])[H:13])=[C:7]([H:16])[H:17])([H:9])[H:10])[H:8]"
O        2.07016435      -0.24827310       1.42935549
C        1.70567325      -0.65697269       0.12254063
C        0.26752450      -0.32915428      -0.11829145
C       -0.23670994       1.09648748      -0.17803838
C       -1.72635754       0.93362347       0.24513435
O       -1.99461068      -0.45555305       0.33546154
C       -0.59117255      -1.15022517      -0.89331355
H        2.72815988       0.44507854       1.37909099
H        2.32644683      -0.20097341      -0.66054412
H        1.85056792      -1.73997270       0.05215740
H       -0.73742364      -0.72586137       0.87939995
H        0.30029124       1.78548302       0.47493316
H       -0.19166167       1.51267994      -1.18726088
H       -2.41475040       1.40900314      -0.45524117
H       -1.85532116       1.36905246       1.24143375
H       -1.03541002      -0.81489579      -1.82655149
H       -0.46541036      -2.22952648      -0.84026623
17
Frame=9 idx=011643 GeodesicLength=0.6728961275853482 rxn_smarts="[O:1]([C:2]([C@@:3]1([H:11])[C:4]([H:12])([H:13])[C:5]([H:14])([H:15])[O:6][C:7]1([H:16])[H:17])([H:9])[H:10])[H:8]>>[O:1]([C:2]([C:3]([C:4]([C:5]([O:6][H:11])([H:14])[H:15])([H:12])[H:13])=[C:7]([H:16])[H:17])([H:9])[H:10])[H:8]"
O        2.05658742      -0.22166818       1.43005711
C        1.69962643      -0.64719471       0.12649431
C        0.25809688      -0.33279608      -0.10924663
C       -0.24450458       1.09400013      -0.18141409
C       -1.73007856       0.94014344       0.24753038
O       -2.00945643      -0.44949657       0.31554187
C       -0.58779062      -1.15641184      -0.89756853
H        2.77913818       0.40399631       1.37923294
H        2.31084038      -0.18826064      -0.66238899
H        1.85420970      -1.72942407       0.06099201
H       -0.75790129      -0.73201699       0.89897822
H        0.29503377       1.79281938       0.45851709
H       -0.20301772       1.49643590      -1.19628967
H       -2.42075628       1.43560664      -0.43583284
H       -1.84213069       1.35619340       1.25452680
H       -1.00002340      -0.82667687      -1.84725829
H       -0.45787321      -2.23524925      -0.84187167
17
Frame=10 idx=011643 GeodesicLength=0.7463940810517581 rxn_smarts="[O:1]([C:2]([C@@:3]1([H:11])[C:4]([H:12])([H:13])[C:5]([H:14])([H:15])[O:6][C:7]1([H:16])[H:17])([H:9])[H:10])[H:8]>>[O:1]([C:2]([C:3]([C:4]([C:5]([O:6][H:11])([H:14])[H:15])([H:12])[H:13])=[C:7]([H:16])[H:17])([H:9])[H:10])[H:8]"
O        2.04426107      -0.19267999       1.42906723
C        1.69368149      -0.63663620       0.12980889
C        0.24882713      -0.33590584      -0.10073055
C       -0.25252364       1.09185186      -0.18543050
C       -1.73370730       0.94670523       0.25018621
O       -2.02335873      -0.44315674       0.29620928
C       -0.58411261      -1.16245971      -0.90175872
H        2.82655637       0.35678354       1.38198371
H        2.29527132      -0.17499237      -0.66490416
H        1.85801467      -1.71801400       0.06989230
H       -0.77804093      -0.73750673       0.91887193
H        0.28947121       1.80075790       0.44080383
H       -0.21537053       1.48027683      -1.20585356
H       -2.42680724       1.46169452      -0.41540532
H       -1.82869003       1.34321431       1.26719530
H       -0.96353577      -0.83915719      -1.86713709
H       -0.44993648      -2.24077542      -0.84279879
17
Frame=11 idx=011643 GeodesicLength=0.8193594255577847 rxn_smarts="[O:1]([C:2]([C@@:3]1([H:11])[C:4]([H:12])([H:13])[C:5]([H:14])([H:15])[O:6][C:7]1([H:16])[H:17])([H:9])[H:10])[H:8]>>[O:1]([C:2]([C:3]([C:4]([C:5]([O:6][H:11])([H:14])[H:15])([H:12])[H:13])=[C:7]([H:16])[H:17])([H:9])[H:10])[H:8]"
O        2.03310548      -0.16242135       1.42627518
C        1.68805622      -0.62529725       0.13200002
C        0.23987755      -0.33855684      -0.09298538
C       -0.26057556       1.08997681      -0.19033087
C       -1.73694997       0.95337901       0.25322914
O       -2.03612992      -0.43647954       0.27792224
C       -0.58025918      -1.16853585      -0.90577304
H        2.86797055       0.30423805       1.38889697
H        2.28002969      -0.16046058      -0.66810379
H        1.86239296      -1.70565582       0.07747654
H       -0.79742426      -0.74220158       0.93924115
H        0.28395686       1.80925113       0.42133836
H       -0.22877790       1.46398897      -1.21624813
H       -2.43271794       1.48723561      -0.39378929
H       -1.81443043       1.33042679       1.27951200
H       -0.92628994      -0.85261820      -1.88598395
H       -0.44183420      -2.24626936      -0.84267714
17
Frame=12 idx=011643 GeodesicLength=0.8918833239997471 rxn_smarts="[O:1]([C:2]([C@@:3]1([H:11])[C:4]([H:12])([H:13])[C:5]([H:14])([H:15])[O:6][C:7]1([H:16])[H:17])([H:9])[H:10])[H:8]>>[O:1]([C:2]([C:3]([C:4]([C:5]([O:6][H:11])([H:14])[H:15])([H:12])[H:13])=[C:7]([H:16])[H:17])([H:9])[H:10])[H:8]"
O        2.02386205      -0.12985861       1.42138478
C        1.68264322      -0.61347766       0.13342094
C        0.23123571      -0.34077719      -0.08570953
C       -0.26864437       1.08836319      -0.19563138
C       -1.73992907       0.96005137       0.25662341
O       -2.04793067      -0.42961442       0.26038759
C       -0.57606422      -1.17440707      -0.90980992
H        2.90347536       0.24712654       1.39824594
H        2.26490759      -0.14596161      -0.67232567
H        1.86682454      -1.69276953       0.08511171
H       -0.81628671      -0.74634687       0.96004727
H        0.27826555       1.81815732       0.40091139
H       -0.24287845       1.44782305      -1.22685924
H       -2.43840275       1.51218431      -0.37117611
H       -1.79978010       1.31760514       1.29146544
H       -0.88790327      -0.86658640      -1.90395008
H       -0.43339441      -2.25151155      -0.84213655
17
Frame=13 idx=011643 GeodesicLength=0.9637738375237352 rxn_smarts="[O:1]([C:2]([C@@:3]1([H:11])[C:4]([H:12])([H:13])[C:5]([H:14])([H:15])[O:6][C:7]1([H:16])[H:17])([H:9])[H:10])[H:8]>>[O:1]([C:2]([C:3]([C:4]([C:5]([O:6][H:11])([H:14])[H:15])([H:12])[H:13])=[C:7]([H:16])[H:17])([H:9])[H:10])[H:8]"
O        2.01551934      -0.09739952       1.41442313
C        1.67779288      -0.60104958       0.13311573
C        0.22315880      -0.34267010      -0.07952751
C       -0.27651656       1.08688072      -0.20197374
C       -1.74208866       0.96687352       0.26061362
O       -2.05831599      -0.42237414       0.24444992
C       -0.57180180      -1.18041061      -0.91360730
H        2.92974070       0.18658982       1.41336576
H        2.25034690      -0.12983091      -0.67740897
H        1.87221265      -1.67901035       0.08993357
H       -0.83373779      -0.74960740       0.98146583
H        0.27296032       1.82733582       0.37840126
H       -0.25808851       1.43133268      -1.23837395
H       -2.44359081       1.53654923      -0.34709199
H       -1.78355501       1.30528307       1.30315165
H       -0.84900649      -0.88169483      -1.92065705
H       -0.42502996      -2.25679742      -0.84027996
17
Frame=14 idx=011643 GeodesicLength=1.0353032942501081 rxn_smarts="[O:1]([C:2]([C@@:3]1([H:11])[C:4]([H:12])([H:13])[C:5]([H:14])([H:15])[O:6][C:7]1([H:16])[H:17])([H:9])[H:10])[H:8]>>[O:1]([C:2]([C:3]([C:4]([C:5]([O:6][H:11])([H:14])[H:15])([H:12])[H:13])=[C:7]([H:16])[H:17])([H:9])[H:10])[H:8]"
O        2.00900821      -0.06411364       1.40540464
C        1.67335085      -0.58847238       0.13165735
C        0.21557031      -0.34435887      -0.07397396
C       -0.28408642       1.08550308      -0.20867478
C       -1.74360467       0.97371898       0.26513643
O       -2.06764774      -0.41495320       0.22965263
C       -0.56734820      -1.18631216      -0.91750000
H        2.94733120       0.12446619       1.43168711
H        2.23610585      -0.11372459      -0.68371201
H        1.87785772      -1.66502801       0.09363739
H       -0.85029566      -0.75238072       1.00349540
H        0.26792815       1.83661088       0.35495209
H       -0.27376788       1.41483645      -1.25002447
H       -2.44811970       1.56032826      -0.32189311
H       -1.76639041       1.29318025       1.31461950
H       -0.80920385      -0.89734931      -1.93643294
H       -0.41668778      -2.26195121      -0.83803129
17
Frame=15 idx=011643 GeodesicLength=1.1065195286147285 rxn_smarts="[O:1]([C:2]([C@@:3]1([H:11])[C:4]([H:12])([H:13])[C:5]([H:14])([H:15])[O:6][C:7]1([H:16])[H:17])([H:9])[H:10])[H:8]>>[O:1]([C:2]([C:3]([C:4]([C:5]([O:6][H:11])([H:14])[H:15])([H:12])[H:13])=[C:7]([H:16])[H:17])([H:9])[H:10])[H:8]"
O        2.00421988      -0.03033295       1.39430362
C        1.66933675      -0.57585402       0.12900875
C        0.20852103      -0.34590056      -0.06908467
C       -0.29130862       1.08417509      -0.21570533
C       -1.74436180       0.98057396       0.27025743
O       -2.07587506      -0.40735312       0.21605716
C       -0.56268445      -1.19208014      -0.92154059
H        2.95558438       0.06160961       1.45328113
H        2.22214419      -0.09779274      -0.69127136
H        1.88378802      -1.65091364       0.09607507
H       -0.86581989      -0.75471190       1.02613391
H        0.26323316       1.84587845       0.33051913
H       -0.28993682       1.39827667      -1.26173326
H       -2.45185592       1.58353569      -0.29548272
H       -1.74808815       1.28128930       1.32590870
H       -0.76855270      -0.91346948      -1.95122174
H       -0.40834400      -2.26693021      -0.83550522
17
Frame=16 idx=011643 GeodesicLength=1.1774721954462775 rxn_smarts="[O:1]([C:2]([C@@:3]1([H:11])[C:4]([H:12])([H:13])[C:5]([H:14])([H:15])[O:6][C:7]1([H:16])[H:17])([H:9])[H:10])[H:8]>>[O:1]([C:2]([C:3]([C:4]([C:5]([O:6][H:11])([H:14])[H:15])([H:12])[H:13])=[C:7]([H:16])[H:17])([H:9])[H:10])[H:8]"
O        2.00101521       0.00328567       1.38129776
C        1.66576903      -0.56340869       0.12514692
C        0.20204062      -0.34743319      -0.06487788
C       -0.29805281       1.08281462      -0.22296448
C       -1.74422892       0.98743133       0.27601358
O       -2.08302583      -0.39957574       0.20367938
C       -0.55785692      -1.19773492      -0.92583039
H        2.95393945      -0.00026788       1.47792523
H        2.20846591      -0.08220715      -0.70009758
H        1.89000645      -1.63688752       0.09701932
H       -0.88027961      -0.75669961       1.04939663
H        0.25902411       1.85493724       0.30530753
H       -0.30640589       1.38166093      -1.27335540
H       -2.45457627       1.60623970      -0.26783880
H       -1.72851573       1.26959575       1.33706672
H       -0.72717298      -0.92998058      -1.96504279
H       -0.40014581      -2.27176995      -0.83284576
