12
Frame=0 idx=009149 GeodesicLength=0.0 rxn_smarts="[C:1]([c:2]1[c:3]([H:11])[o:4][c:5](=[O:6])[n:7]1[H:12])([H:8])([H:9])[H:10]>>[C:1]([C@@:2]1([C:3](=[O:4])[H:11])[C:5](=[O:6])[N:7]1[H:12])([H:8])([H:9])[H:10]"
C       -1.54103594      -0.33992644      -0.41778722
C       -0.13297851       0.07747804      -0.18163429
C        0.42027657       1.34625363      -0.04811191
O        1.61968859       1.54588565       0.23222206
C        1.43729852      -0.67974220       1.00093424
O        1.85935426      -0.65870101       2.06122972
N        0.89458020      -0.97296246      -0.11610054
H       -1.67452620      -0.85780968      -1.37396323
H       -1.93018897      -0.99329588       0.36855170
H       -2.16838304       0.55308450      -0.43740165
H       -0.27073796       2.19572543      -0.17974117
H        1.48665247      -1.21598958      -0.90819767
12
Frame=1 idx=009149 GeodesicLength=0.060204717298152695 rxn_smarts="[C:1]([c:2]1[c:3]([H:11])[o:4][c:5](=[O:6])[n:7]1[H:12])([H:8])([H:9])[H:10]>>[C:1]([C@@:2]1([C:3](=[O:4])[H:11])[C:5](=[O:6])[N:7]1[H:12])([H:8])([H:9])[H:10]"
C       -1.53779679      -0.33973492      -0.41910730
C       -0.13162183       0.07875718      -0.17357879
C        0.42105233       1.35242180      -0.07441801
O        1.61826009       1.54235820       0.23131427
C        1.43195867      -0.64688982       1.00273817
O        1.86324189      -0.66248323       2.06246168
N        0.89866124      -0.96418239      -0.11579942
H       -1.66697707      -0.83782997      -1.38612529
H       -1.92109476      -1.01208690       0.35375086
H       -2.17140100       0.54893803      -0.41966677
H       -0.27531897       2.20231663      -0.16054308
H        1.47103621      -1.26158460      -0.90102632
12
Frame=2 idx=009149 GeodesicLength=0.12009691329279143 rxn_smarts="[C:1]([c:2]1[c:3]([H:11])[o:4][c:5](=[O:6])[n:7]1[H:12])([H:8])([H:9])[H:10]>>[C:1]([C@@:2]1([C:3](=[O:4])[H:11])[C:5](=[O:6])[N:7]1[H:12])([H:8])([H:9])[H:10]"
C       -1.53428820      -0.33955555      -0.41981326
C       -0.13010986       0.08067244      -0.16541056
C        0.42045338       1.35889251      -0.09605105
O        1.61543197       1.53987241       0.23295668
C        1.42636898      -0.61550576       1.00408304
O        1.86714553      -0.66796794       2.06187813
N        0.90369451      -0.95409147      -0.11693559
H       -1.65945473      -0.81686131      -1.39758426
H       -1.91084359      -1.03142893       0.33875356
H       -2.17451920       0.54402203      -0.40042345
H       -0.27813009       2.20876835      -0.14938089
H        1.45425130      -1.30681680      -0.89207235
12
Frame=3 idx=009149 GeodesicLength=0.1797216633436574 rxn_smarts="[C:1]([c:2]1[c:3]([H:11])[o:4][c:5](=[O:6])[n:7]1[H:12])([H:8])([H:9])[H:10]>>[C:1]([C@@:2]1([C:3](=[O:4])[H:11])[C:5](=[O:6])[N:7]1[H:12])([H:8])([H:9])[H:10]"
C       -1.53042619      -0.33939622      -0.42026943
C       -0.12840130       0.08307083      -0.15708153
C        0.41884467       1.36564493      -0.11382343
O        1.61162554       1.53838162       0.23643414
C        1.42073659      -0.58536728       1.00504638
O        1.87164487      -0.67453279       2.05938305
N        0.90971740      -0.94280485      -0.11935921
H       -1.65164665      -0.79532201      -1.40848664
H       -1.89968684      -1.05088827       0.32333735
H       -2.17751835       0.53837397      -0.38072024
H       -0.28021909       2.21544063      -0.14351477
H        1.43532935      -1.35260056      -0.88094568
12
Frame=4 idx=009149 GeodesicLength=0.23903546120506736 rxn_smarts="[C:1]([c:2]1[c:3]([H:11])[o:4][c:5](=[O:6])[n:7]1[H:12])([H:8])([H:9])[H:10]>>[C:1]([C@@:2]1([C:3](=[O:4])[H:11])[C:5](=[O:6])[N:7]1[H:12])([H:8])([H:9])[H:10]"
C       -1.52606339      -0.33930484      -0.42033427
C       -0.12616431       0.08591760      -0.14949333
C        0.41660422       1.37279210      -0.12854648
O        1.60686272       1.53802774       0.24237393
C        1.41496854      -0.55659305       1.00531216
O        1.87537943      -0.68240887       2.05519151
N        0.91718089      -0.93018691      -0.12382848
H       -1.64396083      -0.77383379      -1.41834863
H       -1.88709797      -1.07000548       0.30827709
H       -2.18015516       0.53199607      -0.36059621
H       -0.28198658       2.22255189      -0.14237108
H        1.41443243      -1.39895247      -0.86763621
12
Frame=5 idx=009149 GeodesicLength=0.2980152613333781 rxn_smarts="[C:1]([c:2]1[c:3]([H:11])[o:4][c:5](=[O:6])[n:7]1[H:12])([H:8])([H:9])[H:10]>>[C:1]([C@@:2]1([C:3](=[O:4])[H:11])[C:5](=[O:6])[N:7]1[H:12])([H:8])([H:9])[H:10]"
C       -1.52104660      -0.33932413      -0.42017122
C       -0.12311015       0.08915417      -0.14345541
C        0.41404652       1.38043057      -0.14115062
O        1.60136621       1.53879727       0.25028055
C        1.40905515      -0.52904938       1.00457461
O        1.87750315      -0.69111855       2.04942743
N        0.92641815      -0.91620070      -0.13083804
H       -1.63653333      -0.75310177      -1.42705072
H       -1.87283286      -1.08828548       0.29401692
H       -2.18213771       0.52496742      -0.34064630
H       -0.28386955       2.23002356      -0.14333399
H        1.39114101      -1.44629298      -0.85165320
12
Frame=6 idx=009149 GeodesicLength=0.35673176828878755 rxn_smarts="[C:1]([c:2]1[c:3]([H:11])[o:4][c:5](=[O:6])[n:7]1[H:12])([H:8])([H:9])[H:10]>>[C:1]([C@@:2]1([C:3](=[O:4])[H:11])[C:5](=[O:6])[N:7]1[H:12])([H:8])([H:9])[H:10]"
C       -1.51523310      -0.33950077      -0.42010282
C       -0.11915591       0.09273271      -0.13890126
C        0.41119272       1.38867074      -0.15181284
O        1.59524535       1.54074653       0.25977904
C        1.40325848      -0.50255517       1.00271185
O        1.87870410      -0.70026710       2.04188772
N        0.93768982      -0.90071491      -0.14052204
H       -1.62894050      -0.73344275      -1.43491863
H       -1.85698111      -1.10563554       0.28034429
H       -2.18332003       0.51730903      -0.32159995
H       -0.28622011       2.23781883      -0.14476564
H        1.36376031      -1.49516161      -0.83209974
12
Frame=7 idx=009149 GeodesicLength=0.4150406630871818 rxn_smarts="[C:1]([c:2]1[c:3]([H:11])[o:4][c:5](=[O:6])[n:7]1[H:12])([H:8])([H:9])[H:10]>>[C:1]([C@@:2]1([C:3](=[O:4])[H:11])[C:5](=[O:6])[N:7]1[H:12])([H:8])([H:9])[H:10]"
C       -1.50849509      -0.33992103      -0.41992857
C       -0.11382125       0.09652465      -0.13730628
C        0.40838382       1.39753727      -0.16125910
O        1.58861798       1.54369611       0.27091605
C        1.39736868      -0.47739617       0.99906128
O        1.87668370      -0.70994824       2.03298032
N        0.95146046      -0.88386787      -0.15391887
H       -1.62188742      -0.71580153      -1.44141764
H       -1.83898553      -1.12149615       0.26848551
H       -2.18334419       0.50917018      -0.30339680
H       -0.28900438       2.24575853      -0.14556343
H        1.33302320      -1.54425576      -0.80865247
12
Frame=8 idx=009149 GeodesicLength=0.4732961524170387 rxn_smarts="[C:1]([c:2]1[c:3]([H:11])[o:4][c:5](=[O:6])[n:7]1[H:12])([H:8])([H:9])[H:10]>>[C:1]([C@@:2]1([C:3](=[O:4])[H:11])[C:5](=[O:6])[N:7]1[H:12])([H:8])([H:9])[H:10]"
C       -1.50076277      -0.34069446      -0.41998935
C       -0.10735489       0.10029966      -0.13715084
C        0.40546684       1.40681212      -0.16912220
O        1.58151936       1.54752840       0.28342046
C        1.39196671      -0.45335140       0.99400351
O        1.87391569      -0.72012411       2.02226395
N        0.96753381      -0.86589788      -0.17012105
H       -1.61431777      -0.69955946      -1.44736656
H       -1.81946288      -1.13664335       0.25714251
H       -2.18225748       0.50038636      -0.28634090
H       -0.29227909       2.25373028      -0.14634979
H        1.29603247      -1.59248615      -0.78038974
12
Frame=9 idx=009149 GeodesicLength=0.5313157877794162 rxn_smarts="[C:1]([c:2]1[c:3]([H:11])[o:4][c:5](=[O:6])[n:7]1[H:12])([H:8])([H:9])[H:10]>>[C:1]([C@@:2]1([C:3](=[O:4])[H:11])[C:5](=[O:6])[N:7]1[H:12])([H:8])([H:9])[H:10]"
C       -1.49260404      -0.34178224      -0.41979042
C       -0.09979051       0.10343657      -0.13962215
C        0.40304003       1.41562743      -0.17682142
O        1.57455303       1.55076938       0.29604861
C        1.38605219      -0.43108153       0.98769039
O        1.86781314      -0.73050391       2.01098415
N        0.98473859      -0.84868104      -0.18848094
H       -1.60788203      -0.68510664      -1.45207103
H       -1.79890832      -1.15051677       0.24755876
H       -2.18004760       0.49147058      -0.26960366
H       -0.29521233       2.26103651      -0.14664269
H        1.25824784      -1.63466835      -0.74924960
12
Frame=10 idx=009149 GeodesicLength=0.5894666414665599 rxn_smarts="[C:1]([c:2]1[c:3]([H:11])[o:4][c:5](=[O:6])[n:7]1[H:12])([H:8])([H:9])[H:10]>>[C:1]([C@@:2]1([C:3](=[O:4])[H:11])[C:5](=[O:6])[N:7]1[H:12])([H:8])([H:9])[H:10]"
C       -1.48450281      -0.34314110      -0.41949953
C       -0.09187159       0.10562297      -0.14286104
C        0.40100680       1.42340252      -0.18437395
O        1.56825995       1.55267950       0.30736290
C        1.37984860      -0.41031963       0.98115440
O        1.86050449      -0.74046189       1.99956832
N        1.00167832      -0.83333236      -0.20681867
H       -1.60211223      -0.67158329      -1.45616244
H       -1.77873002      -1.16371151       0.23848674
H       -2.17721141       0.48252672      -0.25330953
H       -0.29752447       2.26743462      -0.14666599
H        1.22065436      -1.66911655      -0.71688121
12
Frame=11 idx=009149 GeodesicLength=0.6477564751370724 rxn_smarts="[C:1]([c:2]1[c:3]([H:11])[o:4][c:5](=[O:6])[n:7]1[H:12])([H:8])([H:9])[H:10]>>[C:1]([C@@:2]1([C:3](=[O:4])[H:11])[C:5](=[O:6])[N:7]1[H:12])([H:8])([H:9])[H:10]"
C       -1.47686000      -0.34470149      -0.41890317
C       -0.08415157       0.10678690      -0.14570603
C        0.39938042       1.42980639      -0.19189672
O        1.56278799       1.55288284       0.31705047
C        1.37324949      -0.39094726       0.97518970
O        1.85260854      -0.75001870       1.98855880
N        1.01731570      -0.82038032      -0.22367495
H       -1.59694856      -0.65863783      -1.45957774
H       -1.75980519      -1.17637527       0.22973245
H       -2.17412793       0.47370180      -0.23737569
H       -0.29884645       2.27291703      -0.14757828
H        1.18539755      -1.69503408      -0.68581885
12
Frame=12 idx=009149 GeodesicLength=0.7061142405919039 rxn_smarts="[C:1]([c:2]1[c:3]([H:11])[o:4][c:5](=[O:6])[n:7]1[H:12])([H:8])([H:9])[H:10]>>[C:1]([C@@:2]1([C:3](=[O:4])[H:11])[C:5](=[O:6])[N:7]1[H:12])([H:8])([H:9])[H:10]"
C       -1.46981562      -0.34634121      -0.41816519
C       -0.07676651       0.10709168      -0.14846148
C        0.39806100       1.43501350      -0.19960529
O        1.55838248       1.55138908       0.32434844
C        1.36603104      -0.37268001       0.96980618
O        1.84405270      -0.75857562       1.97816847
N        1.03140203      -0.80973700      -0.23896708
H       -1.59260784      -0.64613280      -1.46250201
H       -1.74224076      -1.18838697       0.22123236
H       -2.17096298       0.46515564      -0.22190315
H       -0.29934443       2.27752830      -0.14767781
H        1.15380889      -1.71432458      -0.65627345
12
Frame=13 idx=009149 GeodesicLength=0.7645803214064802 rxn_smarts="[C:1]([c:2]1[c:3]([H:11])[o:4][c:5](=[O:6])[n:7]1[H:12])([H:8])([H:9])[H:10]>>[C:1]([C@@:2]1([C:3](=[O:4])[H:11])[C:5](=[O:6])[N:7]1[H:12])([H:8])([H:9])[H:10]"
C       -1.46325661      -0.34806038      -0.41724264
C       -0.06974049       0.10676090      -0.15072610
C        0.39694246       1.43927733      -0.20726488
O        1.55472562       1.54868312       0.33007792
C        1.35845420      -0.35530936       0.96507146
O        1.83529261      -0.76648926       1.96830657
N        1.04420917      -0.80084183      -0.25274207
H       -1.58870992      -0.63399029      -1.46496183
H       -1.72587786      -1.19992761       0.21288264
H       -2.16779024       0.45678260      -0.20688399
H       -0.29915214       2.28154960      -0.14789923
H        1.12490321      -1.72843482      -0.62861784
12
Frame=14 idx=009149 GeodesicLength=0.8231259840941044 rxn_smarts="[C:1]([c:2]1[c:3]([H:11])[o:4][c:5](=[O:6])[n:7]1[H:12])([H:8])([H:9])[H:10]>>[C:1]([C@@:2]1([C:3](=[O:4])[H:11])[C:5](=[O:6])[N:7]1[H:12])([H:8])([H:9])[H:10]"
C       -1.45712516      -0.34982598      -0.41619343
C       -0.06304010       0.10594171      -0.15263648
C        0.39595737       1.44279472      -0.21486543
O        1.55175136       1.54500513       0.33435580
C        1.35056008      -0.33866649       0.96086470
O        1.82631277      -0.77370589       1.95894106
N        1.05591253      -0.79337044      -0.26523366
H       -1.58522517      -0.62208868      -1.46704881
H       -1.71052445      -1.21106877       0.20459343
H       -2.16463432       0.44855021      -0.19223236
H       -0.29840802       2.28510018      -0.14794327
H        1.09846312      -1.73866569      -0.60260155
12
Frame=15 idx=009149 GeodesicLength=0.8816950813258062 rxn_smarts="[C:1]([c:2]1[c:3]([H:11])[o:4][c:5](=[O:6])[n:7]1[H:12])([H:8])([H:9])[H:10]>>[C:1]([C@@:2]1([C:3](=[O:4])[H:11])[C:5](=[O:6])[N:7]1[H:12])([H:8])([H:9])[H:10]"
C       -1.45138359      -0.35161473      -0.41503004
C       -0.05664308       0.10473854      -0.15428765
C        0.39506901       1.44569994      -0.22241172
O        1.54936678       1.54053229       0.33737903
C        1.34234488      -0.32264409       0.95711967
O        1.81708340      -0.78025829       1.95005232
N        1.06664650      -0.78707555      -0.27661016
H       -1.58217396      -0.61027709      -1.46880774
H       -1.69601825      -1.22189087       0.19629704
H       -2.16150532       0.44042116      -0.17778617
H       -0.29718381       2.28827990      -0.14783292
H        1.07439745      -1.74591122      -0.57808167
12
Frame=16 idx=009149 GeodesicLength=0.9403162038316745 rxn_smarts="[C:1]([c:2]1[c:3]([H:11])[o:4][c:5](=[O:6])[n:7]1[H:12])([H:8])([H:9])[H:10]>>[C:1]([C@@:2]1([C:3](=[O:4])[H:11])[C:5](=[O:6])[N:7]1[H:12])([H:8])([H:9])[H:10]"
C       -1.44593542      -0.35343844      -0.41373597
C       -0.05048586       0.10324942      -0.15566831
C        0.39424764       1.44812926      -0.22981797
O        1.54740850       1.53549020       0.33955651
C        1.33392537      -0.30717072       0.95376473
O        1.80764690      -0.78634211       1.94156228
N        1.07664309      -0.78167575      -0.28706231
H       -1.57939722      -0.59868239      -1.47020760
H       -1.68219860      -1.23238791       0.18809222
H       -2.15838361       0.43236250      -0.16361552
H       -0.29556442       2.29120405      -0.14782477
H        1.05209363      -1.75073811      -0.55504327
