15
Frame=0 idx=008445 GeodesicLength=0.0 rxn_smarts="[C:1]1([H:8])([H:9])[C@@:2]2([H:10])[C@@:3]3([H:11])[O:4][C:5]([H:12])([H:13])[C@:6]1([H:14])[C@@:7]23[H:15]>>[C:1](=[C:2]([C@@:3]1([H:11])[O:4][C:5]([H:12])([H:13])[C:6]([H:14])=[C:7]1[H:15])[H:10])([H:8])[H:9]"
C        0.92655555       1.10681555       0.22581185
C        1.34455144      -0.24186044       0.40050742
C        0.40071814      -1.26048121      -0.10087699
O       -0.72876784      -1.32081434       0.80432047
C       -1.42723642      -0.09772562       0.63189558
C       -0.74031191       0.56111422      -0.56936535
C       -0.08777500      -0.47407501      -1.24698201
H        1.09230924       1.75817172       1.09562809
H        1.10972883       1.67383995      -0.67610260
H        2.15825460      -0.50516991       1.07175430
H        0.79227853      -2.26227628      -0.24977368
H       -1.37669675       0.50454283       1.54355868
H       -2.47824276      -0.30636422       0.41127482
H       -1.21833600       1.39708016      -1.06725589
H        0.23297030      -0.53279745      -2.27439465
15
Frame=1 idx=008445 GeodesicLength=0.07485345705994431 rxn_smarts="[C:1]1([H:8])([H:9])[C@@:2]2([H:10])[C@@:3]3([H:11])[O:4][C:5]([H:12])([H:13])[C@:6]1([H:14])[C@@:7]23[H:15]>>[C:1](=[C:2]([C@@:3]1([H:11])[O:4][C:5]([H:12])([H:13])[C:6]([H:14])=[C:7]1[H:15])[H:10])([H:8])[H:9]"
C        0.93310442       1.10966663       0.24628413
C        1.35617613      -0.24082707       0.37995818
C        0.39445812      -1.26136594      -0.08392425
O       -0.72524032      -1.29902029       0.82936230
C       -1.44226362      -0.09228128       0.62309204
C       -0.74610831       0.55990886      -0.57415400
C       -0.07927409      -0.47726632      -1.23803913
H        1.10946821       1.73848251       1.12988588
H        1.10384047       1.70814782      -0.63762559
H        2.21446519      -0.51490968       0.98806518
H        0.77647360      -2.26765302      -0.22819835
H       -1.41819383       0.52479300       1.52596210
H       -2.48666172      -0.32199559       0.39120332
H       -1.22851310       1.38483860      -1.08633598
H        0.23826883      -0.55051825      -2.26553583
15
Frame=2 idx=008445 GeodesicLength=0.1490732806336224 rxn_smarts="[C:1]1([H:8])([H:9])[C@@:2]2([H:10])[C@@:3]3([H:11])[O:4][C:5]([H:12])([H:13])[C@:6]1([H:14])[C@@:7]23[H:15]>>[C:1](=[C:2]([C@@:3]1([H:11])[O:4][C:5]([H:12])([H:13])[C:6]([H:14])=[C:7]1[H:15])[H:10])([H:8])[H:9]"
C        0.94037314       1.11199854       0.26750774
C        1.36758955      -0.23950095       0.35926059
C        0.38872875      -1.26146995      -0.06646278
O       -0.72143231      -1.27599496       0.85413829
C       -1.45692800      -0.08693386       0.61398539
C       -0.75152657       0.55874041      -0.57915183
C       -0.07079266      -0.48061103      -1.22894429
H        1.12773939       1.71722899       1.16461507
H        1.09757067       1.74208082      -0.59676892
H        2.26612250      -0.52286852       0.90096275
H        0.76128339      -2.27215663      -0.20542383
H       -1.45929927       0.54468321       1.50713097
H       -2.49410537      -0.33818838       0.37134998
H       -1.23789014       1.37240568      -1.10567206
H        0.24256693      -0.56941337      -2.25652708
15
Frame=3 idx=008445 GeodesicLength=0.22267140531842022 rxn_smarts="[C:1]1([H:8])([H:9])[C@@:2]2([H:10])[C@@:3]3([H:11])[O:4][C:5]([H:12])([H:13])[C@:6]1([H:14])[C@@:7]23[H:15]>>[C:1](=[C:2]([C@@:3]1([H:11])[O:4][C:5]([H:12])([H:13])[C:6]([H:14])=[C:7]1[H:15])[H:10])([H:8])[H:9]"
C        0.94850176       1.11388170       0.28913148
C        1.37883775      -0.23778352       0.33821921
C        0.38365260      -1.26076228      -0.04878386
O       -0.71731095      -1.25200985       0.87825624
C       -1.47102180      -0.08175433       0.60466808
C       -0.75663405       0.55762204      -0.58440587
C       -0.06243779      -0.48404095      -1.21990562
H        1.14736039       1.69464956       1.19926419
H        1.09097469       1.77551780      -0.55388481
H        2.31195725      -0.52921197       0.81257072
H        0.74703443      -2.27568602      -0.18181261
H       -1.49940794       0.56392693       1.48731987
H       -2.50049505      -0.35479277       0.35209745
H       -1.24670306       1.35980035      -1.12518794
H        0.24569177      -0.58935667      -2.24754653
15
Frame=4 idx=008445 GeodesicLength=0.29568713443638184 rxn_smarts="[C:1]1([H:8])([H:9])[C@@:2]2([H:10])[C@@:3]3([H:11])[O:4][C:5]([H:12])([H:13])[C@:6]1([H:14])[C@@:7]23[H:15]>>[C:1](=[C:2]([C@@:3]1([H:11])[O:4][C:5]([H:12])([H:13])[C:6]([H:14])=[C:7]1[H:15])[H:10])([H:8])[H:9]"
C        0.95750885       1.11532110       0.31097463
C        1.38983504      -0.23560790       0.31673147
C        0.37925752      -1.25919933      -0.03105792
O       -0.71289693      -1.22717754       0.90148860
C       -1.48445763      -0.07675046       0.59517274
C       -0.76147548       0.55654413      -0.58995024
C       -0.05426917      -0.48752571      -1.21104065
H        1.16840484       1.67081429       1.23352662
H        1.08403240       1.80830129      -0.50909025
H        2.35171311      -0.53403354       0.72404396
H        0.73387585      -2.27813713      -0.15757199
H       -1.53827311       0.58242627       1.46666722
H       -2.50579372      -0.37167278       0.33360360
H       -1.25507134       1.34698249      -1.14485325
H        0.24760976      -0.61028518      -2.23864450
15
Frame=5 idx=008445 GeodesicLength=0.3685097782547404 rxn_smarts="[C:1]1([H:8])([H:9])[C@@:2]2([H:10])[C@@:3]3([H:11])[O:4][C:5]([H:12])([H:13])[C@:6]1([H:14])[C@@:7]23[H:15]>>[C:1](=[C:2]([C@@:3]1([H:11])[O:4][C:5]([H:12])([H:13])[C:6]([H:14])=[C:7]1[H:15])[H:10])([H:8])[H:9]"
C        0.96737369       1.11630922       0.33319753
C        1.40043025      -0.23298138       0.29511294
C        0.37546534      -1.25681542      -0.01313723
O       -0.70841445      -1.20152932       0.92385562
C       -1.49741458      -0.07189114       0.58541412
C       -0.76607568       0.55551764      -0.59582481
C       -0.04626170      -0.49110458      -1.20228683
H        1.19093010       1.64571677       1.26748729
H        1.07670003       1.84036997      -0.46211264
H        2.38632121      -0.53723776       0.63446868
H        0.72176485      -2.27956205      -0.13247004
H       -1.57616270       0.60026517       1.44509182
H       -2.51019479      -0.38877594       0.31566239
H       -1.26297437       1.33395535      -1.16480880
H        0.24851282      -0.63223654      -2.22965004
15
Frame=6 idx=008445 GeodesicLength=0.44113743443071696 rxn_smarts="[C:1]1([H:8])([H:9])[C@@:2]2([H:10])[C@@:3]3([H:11])[O:4][C:5]([H:12])([H:13])[C@:6]1([H:14])[C@@:7]23[H:15]>>[C:1](=[C:2]([C@@:3]1([H:11])[O:4][C:5]([H:12])([H:13])[C:6]([H:14])=[C:7]1[H:15])[H:10])([H:8])[H:9]"
C        0.97806332       1.11675926       0.35585221
C        1.41043041      -0.22995701       0.27364770
C        0.37220753      -1.25362830       0.00501142
O       -0.70403484      -1.17511831       0.94525973
C       -1.50990905      -0.06714388       0.57536172
C       -0.77040793       0.55448709      -0.60203417
C       -0.03837792      -0.49482663      -1.19360861
H        1.21493082       1.61939832       1.30105027
H        1.06888760       1.87144206      -0.41282442
H        2.41599985      -0.53850303       0.54344151
H        0.71067385      -2.27993360      -0.10649855
H       -1.61306515       0.61747398       1.42260443
H       -2.51371201      -0.40594169       0.29821132
H       -1.27030193       1.32066180      -1.18505248
H        0.24861545      -0.65517005      -2.22042207
15
Frame=7 idx=008445 GeodesicLength=0.5135210710706839 rxn_smarts="[C:1]1([H:8])([H:9])[C@@:2]2([H:10])[C@@:3]3([H:11])[O:4][C:5]([H:12])([H:13])[C@:6]1([H:14])[C@@:7]23[H:15]>>[C:1](=[C:2]([C@@:3]1([H:11])[O:4][C:5]([H:12])([H:13])[C:6]([H:14])=[C:7]1[H:15])[H:10])([H:8])[H:9]"
C        0.98967518       1.11680386       0.37846930
C        1.41990503      -0.22641139       0.25200453
C        0.36956701      -1.24962271       0.02300746
O       -0.69966513      -1.14828018       0.96540687
C       -1.52179653      -0.06258234       0.56514941
C       -0.77463793       0.55347201      -0.60862466
C       -0.03076404      -0.49856547      -1.18525252
H        1.24058451       1.59220212       1.33356661
H        1.06075105       1.90138456      -0.36177010
H        2.44001920      -0.53833226       0.45370514
H        0.70087518      -2.27918061      -0.08020260
H       -1.64849411       0.63382529       1.39956102
H       -2.51637926      -0.42306847       0.28163873
H       -1.27746884       1.30710275      -1.20548936
H        0.24782867      -0.67874717      -2.21116982
15
Frame=8 idx=008445 GeodesicLength=0.5857515640053578 rxn_smarts="[C:1]1([H:8])([H:9])[C@@:2]2([H:10])[C@@:3]3([H:11])[O:4][C:5]([H:12])([H:13])[C@:6]1([H:14])[C@@:7]23[H:15]>>[C:1](=[C:2]([C@@:3]1([H:11])[O:4][C:5]([H:12])([H:13])[C:6]([H:14])=[C:7]1[H:15])[H:10])([H:8])[H:9]"
C        1.00220633       1.11643401       0.40100854
C        1.42878213      -0.22235643       0.23025407
C        0.36749284      -1.24483000       0.04081220
O       -0.69538191      -1.12109241       0.98426821
C       -1.53312342      -0.05817997       0.55477262
C       -0.77881447       0.55245290      -0.61562598
C       -0.02343564      -0.50233028      -1.17723909
H        1.26793058       1.56420192       1.36490615
H        1.05223742       1.93005743      -0.30891118
H        2.45881004      -0.53669967       0.36547078
H        0.69234118      -2.27733158      -0.05365332
H       -1.68249158       0.64938115       1.37601314
H       -2.51828955      -0.44006726       0.26592042
H       -1.28453866       1.29324052      -1.22615289
H        0.24627471      -0.70288032      -2.20184368
15
Frame=9 idx=008445 GeodesicLength=0.6579250757142204 rxn_smarts="[C:1]1([H:8])([H:9])[C@@:2]2([H:10])[C@@:3]3([H:11])[O:4][C:5]([H:12])([H:13])[C@:6]1([H:14])[C@@:7]23[H:15]>>[C:1](=[C:2]([C@@:3]1([H:11])[O:4][C:5]([H:12])([H:13])[C:6]([H:14])=[C:7]1[H:15])[H:10])([H:8])[H:9]"
C        1.01567012       1.11561901       0.42346161
C        1.43701544      -0.21782595       0.20848209
C        0.36592815      -1.23928720       0.05842512
O       -0.69125503      -1.09359287       1.00186605
C       -1.54394368      -0.05389703       0.54421809
C       -0.78296598       0.55140713      -0.62307436
C       -0.01639104      -0.50614212      -1.16956751
H        1.29702107       1.53542810       1.39498342
H        1.04321646       1.95733175      -0.25412738
H        2.47282240      -0.53351970       0.27870931
H        0.68500428      -2.27442967      -0.02686378
H       -1.71514383       0.66424029       1.35196900
H       -2.51953290      -0.45686033       0.25100603
H       -1.29153569       1.27903138      -1.24710503
H        0.24409021      -0.72750279      -2.19238265
15
Frame=10 idx=008445 GeodesicLength=0.729844582977911 rxn_smarts="[C:1]1([H:8])([H:9])[C@@:2]2([H:10])[C@@:3]3([H:11])[O:4][C:5]([H:12])([H:13])[C@:6]1([H:14])[C@@:7]23[H:15]>>[C:1](=[C:2]([C@@:3]1([H:11])[O:4][C:5]([H:12])([H:13])[C:6]([H:14])=[C:7]1[H:15])[H:10])([H:8])[H:9]"
C        1.03000898       1.11448298       0.44550686
C        1.44453128      -0.21267282       0.18647944
C        0.36486375      -1.23293274       0.07556745
O       -0.68719948      -1.06595000       1.01805806
C       -1.55419458      -0.04977911       0.53358125
C       -0.78725617       0.55032569      -0.63097544
C       -0.00973368      -0.50987204      -1.16239187
H        1.32781914       1.50618096       1.42335712
H        1.03397099       1.98297280      -0.19785958
H        2.48207100      -0.52936831       0.19528338
H        0.67896442      -2.27035405      -0.00027347
H       -1.74622531       0.67827404       1.32771328
H       -2.52012366      -0.47341672       0.23710722
H       -1.29880991       1.26439064      -1.26824037
H        0.24131323      -0.75228130      -2.18291333
15
Frame=11 idx=008445 GeodesicLength=0.8017078129485302 rxn_smarts="[C:1]1([H:8])([H:9])[C@@:2]2([H:10])[C@@:3]3([H:11])[O:4][C:5]([H:12])([H:13])[C@:6]1([H:14])[C@@:7]23[H:15]>>[C:1](=[C:2]([C@@:3]1([H:11])[O:4][C:5]([H:12])([H:13])[C:6]([H:14])=[C:7]1[H:15])[H:10])([H:8])[H:9]"
C        1.04526968       1.11296229       0.46728171
C        1.45131751      -0.20701396       0.16452111
C        0.36421245      -1.22586628       0.09238476
O       -0.68335900      -1.03814206       1.03297718
C       -1.56402258      -0.04575138       0.52280557
C       -0.79167506       0.54918323      -0.63937030
C       -0.00338951      -0.51359295      -1.15561656
H        1.36040462       1.47646080       1.45010148
H        1.02422294       2.00688946      -0.13977244
H        2.48729622      -0.52395793       0.11417728
H        0.67404621      -2.26526082       0.02629381
H       -1.77600369       0.69168933       1.30313451
H       -2.52023292      -0.48966775       0.22406198
H       -1.30627329       1.24929849      -1.28968656
H        0.23818642      -0.77723047      -2.17329352
15
Frame=12 idx=008445 GeodesicLength=0.8735922473945372 rxn_smarts="[C:1]1([H:8])([H:9])[C@@:2]2([H:10])[C@@:3]3([H:11])[O:4][C:5]([H:12])([H:13])[C@:6]1([H:14])[C@@:7]23[H:15]>>[C:1](=[C:2]([C@@:3]1([H:11])[O:4][C:5]([H:12])([H:13])[C:6]([H:14])=[C:7]1[H:15])[H:10])([H:8])[H:9]"
C        1.06147312       1.11106617       0.48874104
C        1.45737703      -0.20081173       0.14254397
C        0.36393739      -1.21806512       0.10885462
O       -0.67970411      -1.01010835       1.04668002
C       -1.57344398      -0.04176116       0.51187614
C       -0.79625403       0.54796584      -0.64830920
C        0.00262692      -0.51730775      -1.14925878
H        1.39481144       1.44623594       1.47515200
H        1.01381910       2.02900467      -0.07961124
H        2.48883643      -0.51740128       0.03547519
H        0.67020127      -2.25912734       0.05284822
H       -1.80455063       0.70460475       1.27821223
H       -2.51988316      -0.50559351       0.21183918
H       -1.31399913       1.23364907      -1.31153422
H        0.23475234      -0.80235020      -2.16350916
15
Frame=13 idx=008445 GeodesicLength=0.9454037981520986 rxn_smarts="[C:1]1([H:8])([H:9])[C@@:2]2([H:10])[C@@:3]3([H:11])[O:4][C:5]([H:12])([H:13])[C@:6]1([H:14])[C@@:7]23[H:15]>>[C:1](=[C:2]([C@@:3]1([H:11])[O:4][C:5]([H:12])([H:13])[C:6]([H:14])=[C:7]1[H:15])[H:10])([H:8])[H:9]"
C        1.07859026       1.10886339       0.50973643
C        1.46267135      -0.19402019       0.12053085
C        0.36399277      -1.20953471       0.12487512
O       -0.67622455      -0.98191459       1.05916446
C       -1.58250257      -0.03781923       0.50083704
C       -0.80110777       0.54665914      -0.65780290
C        0.00828954      -0.52095071      -1.14336195
H        1.43100675       1.41571489       1.49827031
H        1.00291948       2.04907882      -0.01754705
H        2.48704200      -0.50994706      -0.04013703
H        0.66739205      -2.25195573       0.07919507
H       -1.83188194       0.71701028       1.25307140
H       -2.51916526      -0.52118559       0.20051460
H       -1.32217780       1.21739952      -1.33374299
H        0.23115568      -0.82739822      -2.15360337
15
Frame=14 idx=008445 GeodesicLength=1.0170641659589263 rxn_smarts="[C:1]1([H:8])([H:9])[C@@:2]2([H:10])[C@@:3]3([H:11])[O:4][C:5]([H:12])([H:13])[C@:6]1([H:14])[C@@:7]23[H:15]>>[C:1](=[C:2]([C@@:3]1([H:11])[O:4][C:5]([H:12])([H:13])[C:6]([H:14])=[C:7]1[H:15])[H:10])([H:8])[H:9]"
C        1.09657309       1.10641483       0.53018640
C        1.46715779      -0.18659934       0.09853281
C        0.36431890      -1.20027416       0.14040094
O       -0.67292520      -0.95358285       1.07046574
C       -1.59125914      -0.03393711       0.48971165
C       -0.80632982       0.54524474      -0.66785065
C        0.01359265      -0.52446221      -1.13792944
H        1.46892115       1.38508357       1.51930541
H        0.99174998       2.06687906       0.04629842
H        2.48229080      -0.50178284      -0.11235817
H        0.66554966      -2.24374323       0.10521794
H       -1.85807727       0.72890538       1.22778994
H       -2.51815601      -0.53646373       0.19010382
H       -1.33094902       1.20049336      -1.35628529
H        0.22754246      -0.85217549      -2.14358951
15
Frame=15 idx=008445 GeodesicLength=1.0887368684496115 rxn_smarts="[C:1]1([H:8])([H:9])[C@@:2]2([H:10])[C@@:3]3([H:11])[O:4][C:5]([H:12])([H:13])[C@:6]1([H:14])[C@@:7]23[H:15]>>[C:1](=[C:2]([C@@:3]1([H:11])[O:4][C:5]([H:12])([H:13])[C:6]([H:14])=[C:7]1[H:15])[H:10])([H:8])[H:9]"
C        1.11556691       1.10366169       0.55008054
C        1.47089867      -0.17858351       0.07648766
C        0.36489100      -1.19027176       0.15550050
O       -0.66975381      -0.92488115       1.08070151
C       -1.59970124      -0.02996166       0.47844995
C       -0.81187086       0.54368640      -0.67856794
C        0.01857265      -0.52792919      -1.13294228
H        1.50862367       1.35413114       1.53828249
H        0.97957767       2.08228382       0.11270160
H        2.47499926      -0.49280383      -0.18176996
H        0.66454410      -2.23450656       0.13110330
H       -1.88321671       0.74059380       1.20219012
H       -2.51683674      -0.55132930       0.18057240
H       -1.34024502       1.18277861      -1.37936760
H        0.22395045      -0.87686851      -2.13342228
15
Frame=16 idx=008445 GeodesicLength=1.160285394984022 rxn_smarts="[C:1]1([H:8])([H:9])[C@@:2]2([H:10])[C@@:3]3([H:11])[O:4][C:5]([H:12])([H:13])[C@:6]1([H:14])[C@@:7]23[H:15]>>[C:1](=[C:2]([C@@:3]1([H:11])[O:4][C:5]([H:12])([H:13])[C:6]([H:14])=[C:7]1[H:15])[H:10])([H:8])[H:9]"
C        1.13541189       1.10073727       0.56937120
C        1.47381696      -0.16986858       0.05451958
C        0.36564023      -1.17950172       0.17012650
O       -0.66675253      -0.89588746       1.08988537
C       -1.60795225      -0.02599266       0.46707906
C       -0.81787370       0.54198850      -0.68989079
C        0.02322259      -0.53121438      -1.12838296
H        1.55001786       1.32318821       1.55502409
H        0.96722456       2.09493609       0.18120623
H        2.46542835      -0.48323554      -0.24795863
H        0.66434918      -2.22420276       0.15669137
H       -1.90747876       0.75191190       1.17639827
H       -2.51531156      -0.56591475       0.17190181
H       -1.35026556       1.16424249      -1.40285887
H        0.22052274      -0.90118659      -2.12311222
