16
Frame=0 idx=009350 GeodesicLength=0.0 rxn_smarts="[C:1]([N:2]1[C@@:3]2([H:11])[C@@:4]3([H:12])[C:5]([H:13])([H:14])[C@:6]1([H:15])[C@@:7]23[H:16])([H:8])([H:9])[H:10]>>[C:1]([N:2]1[C:3]([H:11])=[C:7]2[C:4]([H:12])([H:16])[C:5]([H:13])([H:14])[C@@:6]12[H:15])([H:8])([H:9])[H:10]"
C        1.87344638       0.44568734       0.11553798
N        0.94487156      -0.54783045      -0.38048490
C       -0.00441177      -1.17939827       0.51087450
C       -1.19496187      -0.20008525       0.77645791
C       -1.01732445       0.85166388      -0.30946388
C       -0.24668326      -0.16351223      -1.16522823
C       -0.95017858      -1.47445884      -0.60875309
H        1.42553918       1.21040741       0.76503284
H        2.34630245       0.94588184      -0.73185300
H        2.65780891      -0.05940683       0.68178051
H        0.30204854      -1.85674544       1.30248982
H       -1.52831737      -0.04470280       1.79788692
H       -0.47001067       1.75743094      -0.04431687
H       -1.96641358       1.13113183      -0.76622004
H       -0.11473462       0.01635586      -2.23009099
H       -2.05698078      -0.83241902       0.28635054
16
Frame=1 idx=009350 GeodesicLength=0.11437816056915139 rxn_smarts="[C:1]([N:2]1[C@@:3]2([H:11])[C@@:4]3([H:12])[C:5]([H:13])([H:14])[C@:6]1([H:15])[C@@:7]23[H:16])([H:8])([H:9])[H:10]>>[C:1]([N:2]1[C:3]([H:11])=[C:7]2[C:4]([H:12])([H:16])[C:5]([H:13])([H:14])[C@@:6]12[H:15])([H:8])([H:9])[H:10]"
C        1.89029427       0.44479774       0.10985988
N        0.94627269      -0.53902035      -0.37090613
C        0.00461185      -1.17658786       0.52090748
C       -1.22068784      -0.20373635       0.76869577
C       -1.02718986       0.85347321      -0.31022017
C       -0.24383877      -0.16026125      -1.15817505
C       -0.94806146      -1.46007704      -0.58825247
H        1.45786327       1.20077434       0.77932107
H        2.34471004       0.95554037      -0.74125190
H        2.68610946      -0.07205511       0.64937991
H        0.31339858      -1.84918605       1.31531101
H       -1.55774880      -0.04846376       1.78869852
H       -0.48204134       1.75619134      -0.03088243
H       -1.96832343       1.13772721      -0.78027077
H       -0.10771151       0.01363014      -2.22337277
H       -2.08765714      -0.85274659       0.27115803
16
Frame=2 idx=009350 GeodesicLength=0.2287634436797386 rxn_smarts="[C:1]([N:2]1[C@@:3]2([H:11])[C@@:4]3([H:12])[C:5]([H:13])([H:14])[C@:6]1([H:15])[C@@:7]23[H:16])([H:8])([H:9])[H:10]>>[C:1]([N:2]1[C:3]([H:11])=[C:7]2[C:4]([H:12])([H:16])[C:5]([H:13])([H:14])[C@@:6]12[H:15])([H:8])([H:9])[H:10]"
C        1.90748595       0.44377487       0.10387262
N        0.94759242      -0.52975649      -0.36078743
C        0.01355845      -1.17318314       0.53149702
C       -1.24684773      -0.20726498       0.76077587
C       -1.03722321       0.85542894      -0.31080512
C       -0.24108040      -0.15684104      -1.15067866
C       -0.94571871      -1.44561769      -0.56734381
H        1.49185241       1.19063298       0.79350115
H        2.34304856       0.96530672      -0.75047516
H        2.71414015      -0.08516781       0.61541793
H        0.32463040      -1.84073283       1.32891554
H       -1.58830383      -0.05275608       1.77918329
H       -0.49450596       1.75497007      -0.01710936
H       -1.97008566       1.14442977      -0.79424848
H       -0.10078859       0.01087207      -2.21620073
H       -2.11775427      -0.87409537       0.25448533
16
Frame=3 idx=009350 GeodesicLength=0.34315026281088534 rxn_smarts="[C:1]([N:2]1[C@@:3]2([H:11])[C@@:4]3([H:12])[C:5]([H:13])([H:14])[C@:6]1([H:15])[C@@:7]23[H:16])([H:8])([H:9])[H:10]>>[C:1]([N:2]1[C:3]([H:11])=[C:7]2[C:4]([H:12])([H:16])[C:5]([H:13])([H:14])[C@@:6]12[H:15])([H:8])([H:9])[H:10]"
C        1.92501063       0.44259929       0.09756849
N        0.94881855      -0.51999673      -0.35009921
C        0.02241151      -1.16916050       0.54265855
C       -1.27345117      -0.21063831       0.75269201
C       -1.04745034       0.85754070      -0.31121722
C       -0.23841704      -0.15323164      -1.14272094
C       -0.94315865      -1.43105287      -0.54601879
H        1.52758801       1.17993881       0.80753569
H        2.34134493       0.97516081      -0.75948364
H        2.74178285      -0.09880349       0.57985239
H        0.33572325      -1.83133631       1.34333376
H       -1.61995782      -0.05756021       1.76933664
H       -0.50745416       1.75378550      -0.00301493
H       -1.97172220       1.15123349      -0.80814424
H       -0.09396309       0.00810413      -2.20855119
H       -2.14710525      -0.89658266       0.23627263
16
Frame=4 idx=009350 GeodesicLength=0.4575473990326634 rxn_smarts="[C:1]([N:2]1[C@@:3]2([H:11])[C@@:4]3([H:12])[C:5]([H:13])([H:14])[C@:6]1([H:15])[C@@:7]23[H:16])([H:8])([H:9])[H:10]>>[C:1]([N:2]1[C:3]([H:11])=[C:7]2[C:4]([H:12])([H:16])[C:5]([H:13])([H:14])[C@@:6]12[H:15])([H:8])([H:9])[H:10]"
C        1.94285682       0.44124876       0.09094446
N        0.94993901      -0.50969010      -0.33880199
C        0.03115800      -1.16448816       0.55441884
C       -1.30051694      -0.21382990       0.74443166
C       -1.05789924       0.85982075      -0.31145879
C       -0.23585379      -0.14941046      -1.13427966
C       -0.94039283      -1.41634552      -0.52425413
H        1.56517143       1.16860550       0.82139288
H        2.33960997       0.98511155      -0.76822418
H        2.76891278      -0.11303378       0.54259617
H        0.34665519      -1.82093542       1.35860959
H       -1.65269687      -0.06285593       1.75914248
H       -0.52094150       1.75265977       0.01138535
H       -1.97325171       1.15813571      -0.82195976
H       -0.08722688       0.00534196      -2.20039773
H       -2.17552344      -0.92033472       0.21645483
16
Frame=5 idx=009350 GeodesicLength=0.5719474883093193 rxn_smarts="[C:1]([N:2]1[C@@:3]2([H:11])[C@@:4]3([H:12])[C:5]([H:13])([H:14])[C@:6]1([H:15])[C@@:7]23[H:16])([H:8])([H:9])[H:10]>>[C:1]([N:2]1[C:3]([H:11])=[C:7]2[C:4]([H:12])([H:16])[C:5]([H:13])([H:14])[C@@:6]12[H:15])([H:8])([H:9])[H:10]"
C        1.96101115       0.43969843       0.08400104
N        0.95094107      -0.49878973      -0.32685956
C        0.03978446      -1.15913953       0.56679956
C       -1.32805898      -0.21680964       0.73597958
C       -1.06859575       0.86227832      -0.31152993
C       -0.23339569      -0.14535263      -1.12533427
C       -0.93744675      -1.40146174      -0.50203701
H        1.60468887       1.15656235       0.83503414
H        2.33786638       0.99515018      -0.77664178
H        2.79538107      -0.12791956       0.50357510
H        0.35740201      -1.80947719       1.37478124
H       -1.68648747      -0.06861020       1.74858767
H       -0.53501907       1.75161407       0.02607457
H       -1.97469629       1.16513276      -0.83569266
H       -0.08057054       0.00261175      -2.19171295
H       -2.20280448      -0.94548765       0.19497527
16
Frame=6 idx=009350 GeodesicLength=0.6863713168697405 rxn_smarts="[C:1]([N:2]1[C@@:3]2([H:11])[C@@:4]3([H:12])[C:5]([H:13])([H:14])[C@:6]1([H:15])[C@@:7]23[H:16])([H:8])([H:9])[H:10]>>[C:1]([N:2]1[C:3]([H:11])=[C:7]2[C:4]([H:12])([H:16])[C:5]([H:13])([H:14])[C@@:6]12[H:15])([H:8])([H:9])[H:10]"
C        1.97946221       0.43791006       0.07673264
N        0.95180953      -0.48723490      -0.31422429
C        0.04827727      -1.15307735       0.57983400
C       -1.35610948      -0.21955921       0.72730919
C       -1.07956856       0.86493171      -0.31143768
C       -0.23104940      -0.14103481      -1.11585816
C       -0.93433966      -1.38634772      -0.47932701
H        1.64626879       1.14366038       0.84841773
H        2.33611275       1.00531515      -0.78465920
H        2.82102583      -0.14351758       0.46268028
H        0.36793574      -1.79689186       1.39189714
H       -1.72131254      -0.07479710       1.73764520
H       -0.54974887       1.75067555       0.04103716
H       -1.97606795       1.17223039      -0.84935605
H       -0.07398596      -0.00007796      -2.18246748
H       -2.22870969      -0.97218474       0.17177653
16
Frame=7 idx=009350 GeodesicLength=0.8008314248415833 rxn_smarts="[C:1]([N:2]1[C@@:3]2([H:11])[C@@:4]3([H:12])[C:5]([H:13])([H:14])[C@:6]1([H:15])[C@@:7]23[H:16])([H:8])([H:9])[H:10]>>[C:1]([N:2]1[C:3]([H:11])=[C:7]2[C:4]([H:12])([H:16])[C:5]([H:13])([H:14])[C@@:6]12[H:15])([H:8])([H:9])[H:10]"
C        1.99819524       0.43584196       0.06913245
N        0.95252597      -0.47495904      -0.30085146
C        0.05662239      -1.14625793       0.59355554
C       -1.38469578      -0.22205741       0.71838754
C       -1.09085045       0.86779827      -0.31118557
C       -0.22882117      -0.13642107      -1.10582606
C       -0.93110349      -1.37095124      -0.45609044
H        1.69002533       1.12976665       0.86147882
H        2.33436795       1.01561891      -0.79220076
H        2.84565518      -0.15990029       0.41982537
H        0.37823373      -1.78310437       1.41000925
H       -1.75713989      -0.08138775       1.72628484
H       -0.56519467       1.74987201       0.05626061
H       -1.97738691       1.17942838      -0.86295580
H       -0.06746411      -0.00269873      -2.17262716
H       -2.25296930      -1.00058835       0.14680283
16
Frame=8 idx=009350 GeodesicLength=0.9153514159276369 rxn_smarts="[C:1]([N:2]1[C@@:3]2([H:11])[C@@:4]3([H:12])[C:5]([H:13])([H:14])[C@:6]1([H:15])[C@@:7]23[H:16])([H:8])([H:9])[H:10]>>[C:1]([N:2]1[C:3]([H:11])=[C:7]2[C:4]([H:12])([H:16])[C:5]([H:13])([H:14])[C@@:6]12[H:15])([H:8])([H:9])[H:10]"
C        2.01718843       0.43345079       0.06119196
N        0.95307127      -0.46188516      -0.28669224
C        0.06480542      -1.13863040       0.60799873
C       -1.41385565      -0.22429539       0.70917197
C       -1.10247554       0.87089825      -0.31078026
C       -0.22671880      -0.13147361      -1.09520928
C       -0.92777439      -1.35520282      -0.43227584
H        1.73610118       1.11471291       0.87413367
H        2.33265546       1.02609029      -0.79917432
H        2.86903671      -0.17714593       0.37491850
H        0.38826642      -1.76802643       1.42916521
H       -1.79394707      -0.08835731       1.71446746
H       -0.58143058       1.74923326       0.07173851
H       -1.97866993       1.18673914      -0.87650471
H       -0.06099909      -0.00523347      -2.16216026
H       -2.27525385      -1.03087413       0.12001089
16
Frame=9 idx=009350 GeodesicLength=1.029237320720999 rxn_smarts="[C:1]([N:2]1[C@@:3]2([H:11])[C@@:4]3([H:12])[C:5]([H:13])([H:14])[C@:6]1([H:15])[C@@:7]23[H:16])([H:8])([H:9])[H:10]>>[C:1]([N:2]1[C:3]([H:11])=[C:7]2[C:4]([H:12])([H:16])[C:5]([H:13])([H:14])[C@@:6]12[H:15])([H:8])([H:9])[H:10]"
C        2.03645187       0.43062224       0.05291888
N        0.95343000      -0.44786217      -0.27170041
C        0.07283870      -1.13012584       0.62317892
C       -1.44368186      -0.22648641       0.69946750
C       -1.11454723       0.87417402      -0.31027994
C       -0.22471379      -0.12613263      -1.08402128
C       -0.92431973      -1.33909707      -0.40790018
H        1.78456286       1.09804097       0.88628263
H        2.33105117       1.03675481      -0.80537705
H        2.89107432      -0.19510501       0.32789125
H        0.39803327      -1.75153661       1.44939784
H       -1.83155972      -0.09573002       1.70205871
H       -0.59867100       1.74872063       0.08748943
H       -1.97998226       1.19408323      -0.89010689
H       -0.05452826      -0.00764261      -2.15107051
H       -2.29543834      -1.06267754       0.09177111
16
Frame=10 idx=009350 GeodesicLength=1.1430938902533967 rxn_smarts="[C:1]([N:2]1[C@@:3]2([H:11])[C@@:4]3([H:12])[C:5]([H:13])([H:14])[C@:6]1([H:15])[C@@:7]23[H:16])([H:8])([H:9])[H:10]>>[C:1]([N:2]1[C:3]([H:11])=[C:7]2[C:4]([H:12])([H:16])[C:5]([H:13])([H:14])[C@@:6]12[H:15])([H:8])([H:9])[H:10]"
C        2.05594644       0.42735628       0.04428977
N        0.95358121      -0.43283447      -0.25579008
C        0.08069310      -1.12069336       0.63916443
C       -1.47415598      -0.22846303       0.68933469
C       -1.12704877       0.87770314      -0.30964878
C       -0.22283343      -0.12037345      -1.07218910
C       -0.92079149      -1.32251590      -0.38287286
H        1.83557983       1.07972042       0.89783405
H        2.32957061       1.04764314      -0.81076753
H        2.91137485      -0.21402440       0.27851819
H        0.40747407      -1.73353886       1.47080762
H       -1.87011565      -0.10345692       1.68906854
H       -0.61690261       1.74841410       0.10349253
H       -1.98129736       1.20153679      -0.90371379
H       -0.04806217      -0.00990438      -2.13927638
H       -2.31301264      -1.09656911       0.06174868
16
Frame=11 idx=009350 GeodesicLength=1.256950220844644 rxn_smarts="[C:1]([N:2]1[C@@:3]2([H:11])[C@@:4]3([H:12])[C:5]([H:13])([H:14])[C@:6]1([H:15])[C@@:7]23[H:16])([H:8])([H:9])[H:10]>>[C:1]([N:2]1[C:3]([H:11])=[C:7]2[C:4]([H:12])([H:16])[C:5]([H:13])([H:14])[C@@:6]12[H:15])([H:8])([H:9])[H:10]"
C        2.07563862       0.42359529       0.03527595
N        0.95350157      -0.41666354      -0.23890635
C        0.08836571      -1.11025577       0.65598573
C       -1.50530404      -0.23024189       0.67869700
C       -1.14003524       0.88150404      -0.30889132
C       -0.22108421      -0.11412107      -1.05968127
C       -0.91722152      -1.30538276      -0.35715537
H        1.88925171       1.05952751       0.90865776
H        2.32832993       1.05871871      -0.81526112
H        2.92966749      -0.23400779       0.22675574
H        0.41657725      -1.71390281       1.49344513
H       -1.90959632      -0.11153126       1.67542148
H       -0.63624431       1.74834965       0.11975381
H       -1.98265373       1.20909453      -0.91733276
H       -0.04159541      -0.01195393      -2.12673378
H       -2.32759749      -1.13272893       0.02996939
16
Frame=12 idx=009350 GeodesicLength=1.3707660581423138 rxn_smarts="[C:1]([N:2]1[C@@:3]2([H:11])[C@@:4]3([H:12])[C:5]([H:13])([H:14])[C@:6]1([H:15])[C@@:7]23[H:16])([H:8])([H:9])[H:10]>>[C:1]([N:2]1[C:3]([H:11])=[C:7]2[C:4]([H:12])([H:16])[C:5]([H:13])([H:14])[C@@:6]12[H:15])([H:8])([H:9])[H:10]"
C        2.09550200       0.41925130       0.02585826
N        0.95316911      -0.39920284      -0.22096944
C        0.09584811      -1.09872933       0.67368622
C       -1.53716890      -0.23186545       0.66745329
C       -1.15356062       0.88559666      -0.30801955
C       -0.21946622      -0.10730968      -1.04645935
C       -0.91362794      -1.28760747      -0.33069346
H        1.94570608       1.03712453       0.91858787
H        2.32742054       1.06999525      -0.81871468
H        2.94556766      -0.25510050       0.17246816
H        0.42530209      -1.69247375       1.51738120
H       -1.94999847      -0.11996547       1.66101493
H       -0.65682392       1.74855478       0.13628939
H       -1.98406892       1.21676887      -0.93099302
H       -0.03509982      -0.01374510      -2.11339494
H       -2.33870077      -1.17129181      -0.00349488
16
Frame=13 idx=009350 GeodesicLength=1.4842213340967865 rxn_smarts="[C:1]([N:2]1[C@@:3]2([H:11])[C@@:4]3([H:12])[C:5]([H:13])([H:14])[C@:6]1([H:15])[C@@:7]23[H:16])([H:8])([H:9])[H:10]>>[C:1]([N:2]1[C:3]([H:11])=[C:7]2[C:4]([H:12])([H:16])[C:5]([H:13])([H:14])[C@@:6]12[H:15])([H:8])([H:9])[H:10]"
C        2.11553678       0.41419019       0.01600033
N        0.95256108      -0.38020575      -0.20187876
C        0.10316208      -1.08597922       0.69232155
C       -1.56980884      -0.23353519       0.65540349
C       -1.16772905       0.88995848      -0.30705289
C       -0.21795024      -0.09982110      -1.03249175
C       -0.90997613      -1.26911416      -0.30346843
H        2.00502127       1.01203907       0.92734936
H        2.32705015       1.08141581      -0.82096221
H        2.95872517      -0.27729696       0.11557194
H        0.43363949      -1.66901490       1.54271118
H       -1.99129311      -0.12885963       1.64567331
H       -0.67888781       1.74901056       0.15316797
H       -1.98560176       1.22451977      -0.94475235
H       -0.02851244      -0.01517788      -2.09921382
H       -2.34593663      -1.21212909      -0.03837893
16
Frame=14 idx=009350 GeodesicLength=1.5977287588333362 rxn_smarts="[C:1]([N:2]1[C@@:3]2([H:11])[C@@:4]3([H:12])[C:5]([H:13])([H:14])[C@:6]1([H:15])[C@@:7]23[H:16])([H:8])([H:9])[H:10]>>[C:1]([N:2]1[C:3]([H:11])=[C:7]2[C:4]([H:12])([H:16])[C:5]([H:13])([H:14])[C@@:6]12[H:15])([H:8])([H:9])[H:10]"
C        2.13566691       0.40834064       0.00566534
N        0.95164323      -0.35951014      -0.18153203
C        0.11027879      -1.07190924       0.71194505
C       -1.60322407      -0.23516744       0.64251233
C       -1.18257570       0.89466467      -0.30597241
C       -0.21656042      -0.09156923      -1.01770679
C       -0.90632950      -1.24975629      -0.27539603
H        2.06734008       0.98398766       0.93475761
H        2.32734716       1.09296021      -0.82191064
H        2.96859944      -0.30079561       0.05590246
H        0.44152077      -1.64335005       1.56953122
H       -2.03356496      -0.13819424       1.62931425
H       -0.70252505       1.74980033       0.17039068
H       -1.98726297       1.23241254      -0.95858551
H       -0.02183622      -0.01617625      -2.08410529
H       -2.34851750      -1.25573756      -0.07481025
16
Frame=15 idx=009350 GeodesicLength=1.7112620914481482 rxn_smarts="[C:1]([N:2]1[C@@:3]2([H:11])[C@@:4]3([H:12])[C:5]([H:13])([H:14])[C@:6]1([H:15])[C@@:7]23[H:16])([H:8])([H:9])[H:10]>>[C:1]([N:2]1[C:3]([H:11])=[C:7]2[C:4]([H:12])([H:16])[C:5]([H:13])([H:14])[C@@:6]12[H:15])([H:8])([H:9])[H:10]"
C        2.15584211       0.40156177      -0.00519130
N        0.95038801      -0.33684737      -0.15981798
C        0.11720978      -1.05638605       0.73259651
C       -1.63742442      -0.23686467       0.62862414
C       -1.19818949       0.89973502      -0.30477445
C       -0.21528450      -0.08241072      -1.00204764
C       -0.90268881      -1.22941241      -0.24644428
H        2.13267294       0.95254323       0.94049895
H        2.32856855       1.10451444      -0.82144590
H        2.97467657      -0.32570168      -0.00658811
H        0.44891486      -1.61524186       1.59792263
H       -2.07682655      -0.14805234       1.61176579
H       -0.72795881       1.75095115       0.18801343
H       -1.98910595       1.24044486      -0.97250242
H       -0.01502994      -0.01659979      -2.06799445
H       -2.34576434      -1.30223359      -0.11261492
16
Frame=16 idx=009350 GeodesicLength=1.8248215901001512 rxn_smarts="[C:1]([N:2]1[C@@:3]2([H:11])[C@@:4]3([H:12])[C:5]([H:13])([H:14])[C@:6]1([H:15])[C@@:7]23[H:16])([H:8])([H:9])[H:10]>>[C:1]([N:2]1[C:3]([H:11])=[C:7]2[C:4]([H:12])([H:16])[C:5]([H:13])([H:14])[C@@:6]12[H:15])([H:8])([H:9])[H:10]"
C        2.17599036       0.39368184      -0.01663145
N        0.94876294      -0.31190164      -0.13659099
C        0.12396758      -1.03924708       0.75433677
C       -1.67241701      -0.23877311       0.61355086
C       -1.21467775       0.90519747      -0.30345127
C       -0.21410697      -0.07217887      -0.98544400
C       -0.89904759      -1.20793857      -0.21657118
H        2.20105501       0.91713461       0.94417503
H        2.33101160       1.11593906      -0.81944396
H        2.97635728      -0.35207860      -0.07195914
H        0.45576960      -1.58438189       1.62801215
H       -2.12112665      -0.15857220       1.59280881
H       -0.75545595       1.75248281       0.20612561
H       -1.99119223       1.24864118      -0.98651667
H       -0.00804735      -0.01629495      -2.05080093
H       -2.33684287      -1.35171006      -0.15159964
