17
Frame=0 idx=011052 GeodesicLength=0.0 rxn_smarts="[C:1]([N:2]([C:3](=[O:4])[N:5]([C:6]([H:12])([H:13])[H:14])[C:7]([H:15])([H:16])[H:17])[H:11])([H:8])([H:9])[H:10]>>[C:1](/[N:2]=[C:3](/[O:4][H:11])[N:5]([C:6]([H:12])([H:13])[H:14])[C:7]([H:15])([H:16])[H:17])([H:8])([H:9])[H:10]"
C        2.14209740       0.34421324      -0.91268735
N        1.67559915      -0.08522444       0.37927770
C        0.45903667      -0.42609962       0.75778799
O        0.59769708      -1.15186787       1.82399086
N       -0.74791561      -0.15694708       0.23170082
C       -1.93338691      -0.77837866       0.78475346
C       -0.97830405       0.92916889      -0.69487893
H        1.55776137      -0.08184910      -1.73571109
H        2.14846834       1.43481764      -1.02289464
H        3.17128511       0.00616707      -1.03516666
H        1.77301251      -0.87973112       1.45245815
H       -2.48201100      -0.08351549       1.42902623
H       -1.64870302      -1.64776034       1.36982728
H       -2.59405192      -1.08844209      -0.02901996
H       -0.06223886       1.48117096      -0.87690642
H       -1.36700494       0.56049171      -1.64837120
H       -1.71134139       1.62378622      -0.27318627
17
Frame=1 idx=011052 GeodesicLength=0.06807198001992489 rxn_smarts="[C:1]([N:2]([C:3](=[O:4])[N:5]([C:6]([H:12])([H:13])[H:14])[C:7]([H:15])([H:16])[H:17])[H:11])([H:8])([H:9])[H:10]>>[C:1](/[N:2]=[C:3](/[O:4][H:11])[N:5]([C:6]([H:12])([H:13])[H:14])[C:7]([H:15])([H:16])[H:17])([H:8])([H:9])[H:10]"
C        2.15341960       0.31900606      -0.91862193
N        1.66829337      -0.04932062       0.38482148
C        0.45817752      -0.44236078       0.73256134
O        0.59407985      -1.14920727       1.81083362
N       -0.75211574      -0.16412945       0.21652413
C       -1.93339849      -0.79500808       0.76762184
C       -0.98788156       0.94954560      -0.67460494
H        1.58616946      -0.14945452      -1.73054456
H        2.14312922       1.40237633      -1.08316921
H        3.18987799      -0.00656588      -1.00899093
H        1.77873914      -0.78604190       1.50111087
H       -2.47651479      -0.11480840       1.43200238
H       -1.64453879      -1.67666932       1.33205537
H       -2.60169851      -1.08628406      -0.04684468
H       -0.06916699       1.49076935      -0.87473980
H       -1.41165440       0.60982728      -1.62376525
H       -1.69491687       1.64832564      -0.21624975
17
Frame=2 idx=011052 GeodesicLength=0.13663200452394647 rxn_smarts="[C:1]([N:2]([C:3](=[O:4])[N:5]([C:6]([H:12])([H:13])[H:14])[C:7]([H:15])([H:16])[H:17])[H:11])([H:8])([H:9])[H:10]>>[C:1](/[N:2]=[C:3](/[O:4][H:11])[N:5]([C:6]([H:12])([H:13])[H:14])[C:7]([H:15])([H:16])[H:17])([H:8])([H:9])[H:10]"
C        2.16578476       0.29423166      -0.92329144
N        1.65948697      -0.01609827       0.38678462
C        0.45788084      -0.45670539       0.70738396
O        0.59219626      -1.14826941       1.79492478
N       -0.75611519      -0.17036093       0.20155205
C       -1.93294853      -0.81033129       0.75149594
C       -0.99753145       0.96898183      -0.65431362
H        1.61947691      -0.21812752      -1.72305248
H        2.13593249       1.36727205      -1.14198951
H        3.21004743      -0.01329651      -0.98019813
H        1.77578049      -0.69372883       1.54315205
H       -2.47015766      -0.14470446       1.43525659
H       -1.63970055      -1.70338986       1.29551235
H       -2.60917682      -1.08357895      -0.06265518
H       -0.07724551       1.49964068      -0.87460512
H       -1.45690618       0.65760125      -1.59645297
H       -1.67680424       1.67086395      -0.15950389
17
Frame=3 idx=011052 GeodesicLength=0.2054061088121374 rxn_smarts="[C:1]([N:2]([C:3](=[O:4])[N:5]([C:6]([H:12])([H:13])[H:14])[C:7]([H:15])([H:16])[H:17])[H:11])([H:8])([H:9])[H:10]>>[C:1](/[N:2]=[C:3](/[O:4][H:11])[N:5]([C:6]([H:12])([H:13])[H:14])[C:7]([H:15])([H:16])[H:17])([H:8])([H:9])[H:10]"
C        2.17920815       0.27035057      -0.92667650
N        1.64960225       0.01441906       0.38558413
C        0.45781850      -0.46928091       0.68201431
O        0.59124249      -1.14696791       1.77767501
N       -0.76021294      -0.17587447       0.18654738
C       -1.93226793      -0.82434848       0.73656859
C       -1.00745025       0.98733548      -0.63429912
H        1.65764957      -0.28631768      -1.71331645
H        2.12827235       1.33000538      -1.19853500
H        3.23116644      -0.01432252      -0.94956359
H        1.76586483      -0.60616105       1.57743067
H       -2.46297385      -0.17293189       1.43893362
H       -1.63444132      -1.72773882       1.26080286
H       -2.61677917      -1.08063201      -0.07613894
H       -0.08673856       1.50789834      -0.87605730
H       -1.50221982       0.70340996      -1.56697367
H       -1.65774074       1.69115695      -0.10399601
17
Frame=4 idx=011052 GeodesicLength=0.27457642991633463 rxn_smarts="[C:1]([N:2]([C:3](=[O:4])[N:5]([C:6]([H:12])([H:13])[H:14])[C:7]([H:15])([H:16])[H:17])[H:11])([H:8])([H:9])[H:10]>>[C:1](/[N:2]=[C:3](/[O:4][H:11])[N:5]([C:6]([H:12])([H:13])[H:14])[C:7]([H:15])([H:16])[H:17])([H:8])([H:9])[H:10]"
C        2.19324603       0.24669147      -0.92904070
N        1.63900484       0.04286229       0.38187109
C        0.45787459      -0.47974730       0.65715039
O        0.59095225      -1.14431414       1.76024299
N       -0.76427001      -0.18036551       0.17157441
C       -1.93131442      -0.83751601       0.72184166
C       -1.01739747       1.00546542      -0.61392114
H        1.70045583      -0.35671205      -1.69970348
H        2.11814599       1.28910476      -1.25515601
H        3.25279258      -0.00884706      -0.91785674
H        1.75101533      -0.52313686       1.60489484
H       -2.45566979      -0.20050389       1.44205493
H       -1.62860892      -1.75041187       1.22657997
H       -2.62391421      -1.07756186      -0.08892952
H       -0.09741354       1.51625101      -0.87852696
H       -1.54783625       0.74879766      -1.53463340
H       -1.63706282       1.70994396      -0.04844232
17
Frame=5 idx=011052 GeodesicLength=0.3438843949019511 rxn_smarts="[C:1]([N:2]([C:3](=[O:4])[N:5]([C:6]([H:12])([H:13])[H:14])[C:7]([H:15])([H:16])[H:17])[H:11])([H:8])([H:9])[H:10]>>[C:1](/[N:2]=[C:3](/[O:4][H:11])[N:5]([C:6]([H:12])([H:13])[H:14])[C:7]([H:15])([H:16])[H:17])([H:8])([H:9])[H:10]"
C        2.20797683       0.22371004      -0.93041145
N        1.62774974       0.06938228       0.37575225
C        0.45786632      -0.48887738       0.63213475
O        0.59096752      -1.14103453       1.74207257
N       -0.76857088      -0.18407904       0.15653747
C       -1.93039298      -0.84962085       0.70773788
C       -1.02751971       1.02305446      -0.59349564
H        1.74809057      -0.42752127      -1.68235353
H        2.10709402       1.24488479      -1.31103315
H        3.27433170       0.00267859      -0.88555522
H        1.73248534      -0.44492045       1.62599902
H       -2.44798049      -0.22688262       1.44521471
H       -1.62275988      -1.77127499       1.19336483
H       -2.63126857      -1.07412231      -0.10033263
H       -0.10945627       1.52464428      -0.88171746
H       -1.59316333       0.79305117      -1.50000268
H       -1.61544993       1.72692781       0.00608828
17
Frame=6 idx=011052 GeodesicLength=0.41332247156783186 rxn_smarts="[C:1]([N:2]([C:3](=[O:4])[N:5]([C:6]([H:12])([H:13])[H:14])[C:7]([H:15])([H:16])[H:17])[H:11])([H:8])([H:9])[H:10]>>[C:1](/[N:2]=[C:3](/[O:4][H:11])[N:5]([C:6]([H:12])([H:13])[H:14])[C:7]([H:15])([H:16])[H:17])([H:8])([H:9])[H:10]"
C        2.22287933       0.20068836      -0.93105938
N        1.61623039       0.09426323       0.36765796
C        0.45777637      -0.49617035       0.60777054
O        0.59090863      -1.13588852       1.72444472
N       -0.77289296      -0.18662367       0.14157921
C       -1.92935869      -0.86112886       0.69319812
C       -1.03752642       1.04089521      -0.57233178
H        1.80015548      -0.50077976      -1.65940460
H        2.09313530       1.19535819      -1.36803367
H        3.29512426       0.02107646      -0.85404334
H        1.71194755      -0.37106428       1.64165765
H       -2.44067299      -0.25313131       1.44725550
H       -1.61657745      -1.79090910       1.15985040
H       -2.63799370      -1.07061742      -0.11211353
H       -0.12257830       1.53386016      -0.88484394
H       -1.63816773       0.83752465      -1.46236321
H       -1.59238905       1.74264701       0.06077934
17
Frame=7 idx=011052 GeodesicLength=0.4824492291062603 rxn_smarts="[C:1]([N:2]([C:3](=[O:4])[N:5]([C:6]([H:12])([H:13])[H:14])[C:7]([H:15])([H:16])[H:17])[H:11])([H:8])([H:9])[H:10]>>[C:1](/[N:2]=[C:3](/[O:4][H:11])[N:5]([C:6]([H:12])([H:13])[H:14])[C:7]([H:15])([H:16])[H:17])([H:8])([H:9])[H:10]"
C        2.23818547       0.17841371      -0.93090620
N        1.60420222       0.11742537       0.35741455
C        0.45745813      -0.50281957       0.58286154
O        0.59097830      -1.13101448       1.70554861
N       -0.77758267      -0.18840248       0.12665919
C       -1.92853323      -0.87147337       0.67926748
C       -1.04762387       1.05818385      -0.55112761
H        1.85683716      -0.57306634      -1.63175254
H        2.07898971       1.14173306      -1.42388409
H        3.31451969       0.04515661      -0.82345756
H        1.68948972      -0.30138068       1.65216903
H       -2.43305211      -0.27799786       1.44938742
H       -1.61077968      -1.80877441       1.12727824
H       -2.64512169      -1.06647498      -0.12257201
H       -0.13699056       1.54345653      -0.88781985
H       -1.68195028       0.88049817      -1.42287081
H       -1.56902631       1.75653685       0.11380464
17
Frame=8 idx=011052 GeodesicLength=0.5514507922660443 rxn_smarts="[C:1]([N:2]([C:3](=[O:4])[N:5]([C:6]([H:12])([H:13])[H:14])[C:7]([H:15])([H:16])[H:17])[H:11])([H:8])([H:9])[H:10]>>[C:1](/[N:2]=[C:3](/[O:4][H:11])[N:5]([C:6]([H:12])([H:13])[H:14])[C:7]([H:15])([H:16])[H:17])([H:8])([H:9])[H:10]"
C        2.25363555       0.15654684      -0.93014408
N        1.59201119       0.13913172       0.34539893
C        0.45692110      -0.50851323       0.55795587
O        0.59096710      -1.12579102       1.68625332
N       -0.78252564      -0.18917728       0.11189805
C       -1.92791938      -0.88102469       0.66528215
C       -1.05761835       1.07545163      -0.52948333
H        1.91787969      -0.64524990      -1.59792896
H        2.06356678       1.08250195      -1.47983998
H        3.33204026       0.07545190      -0.79505762
H        1.66628252      -0.23560981       1.65832286
H       -2.42570360      -0.30225582       1.45091580
H       -1.60528146      -1.82537055       1.09482896
H       -2.65224881      -1.06193762      -0.13288562
H       -0.15240578       1.55394578      -0.89027515
H       -1.72461078       0.92285190      -1.38118314
H       -1.54499038       1.76904820       0.16594195
17
Frame=9 idx=011052 GeodesicLength=0.6203680165201707 rxn_smarts="[C:1]([N:2]([C:3](=[O:4])[N:5]([C:6]([H:12])([H:13])[H:14])[C:7]([H:15])([H:16])[H:17])[H:11])([H:8])([H:9])[H:10]>>[C:1](/[N:2]=[C:3](/[O:4][H:11])[N:5]([C:6]([H:12])([H:13])[H:14])[C:7]([H:15])([H:16])[H:17])([H:8])([H:9])[H:10]"
C        2.26886510       0.13480372      -0.92871330
N        1.57980680       0.15945800       0.33196143
C        0.45617509      -0.51317482       0.53325775
O        0.59065263      -1.12013961       1.66666465
N       -0.78751773      -0.18874764       0.09728308
C       -1.92737401      -0.88980619       0.65053968
C       -1.06719276       1.09307051      -0.50694909
H        1.98431018      -0.71844236      -1.55535211
H        2.04433188       1.01478160      -1.53709813
H        3.34689273       0.11429476      -0.77034508
H        1.64302191      -0.17372365       1.66063786
H       -2.41884019      -0.32624902       1.45115087
H       -1.59994957      -1.84084153       1.06143813
H       -2.65890582      -1.05671934      -0.14403892
H       -0.16857152       1.56553876      -0.89188210
H       -1.76616235       0.96540023      -1.33656827
H       -1.51954235       1.78049658       0.21801355
17
Frame=10 idx=011052 GeodesicLength=0.6889890412720762 rxn_smarts="[C:1]([N:2]([C:3](=[O:4])[N:5]([C:6]([H:12])([H:13])[H:14])[C:7]([H:15])([H:16])[H:17])[H:11])([H:8])([H:9])[H:10]>>[C:1](/[N:2]=[C:3](/[O:4][H:11])[N:5]([C:6]([H:12])([H:13])[H:14])[C:7]([H:15])([H:16])[H:17])([H:8])([H:9])[H:10]"
C        2.28409132       0.11388378      -0.92667515
N        1.56749247       0.17840111       0.31707752
C        0.45514639      -0.51751885       0.50813496
O        0.59026034      -1.11532720       1.64598230
N       -0.79281180      -0.18754569       0.08278054
C       -1.92720573      -0.89762397       0.63590385
C       -1.07650174       1.11037397      -0.48426582
H        2.05495237      -0.78854307      -1.50550044
H        2.02489319       0.94040682      -1.59295736
H        3.35846147       0.15901095      -0.74988356
H        1.61971679      -0.11559776       1.65954025
H       -2.41208173      -0.34923240       1.45103388
H       -1.59536660      -1.85501902       1.02827073
H       -2.66594093      -1.05074416      -0.15475563
H       -0.18553030       1.57767798      -0.89316836
H       -1.80627768       1.00680045      -1.29015430
H       -1.49329781       1.79059706       0.26863659
17
Frame=11 idx=011052 GeodesicLength=0.7570375067265752 rxn_smarts="[C:1]([N:2]([C:3](=[O:4])[N:5]([C:6]([H:12])([H:13])[H:14])[C:7]([H:15])([H:16])[H:17])[H:11])([H:8])([H:9])[H:10]>>[C:1](/[N:2]=[C:3](/[O:4][H:11])[N:5]([C:6]([H:12])([H:13])[H:14])[C:7]([H:15])([H:16])[H:17])([H:8])([H:9])[H:10]"
C        2.29935937       0.09405323      -0.92398106
N        1.55498160       0.19575095       0.30077189
C        0.45381664      -0.52206552       0.48212056
O        0.58992446      -1.11202443       1.62361170
N       -0.79847234      -0.18592903       0.06828728
C       -1.92749401      -0.90427420       0.62187134
C       -1.08554207       1.12685221      -0.46190464
H        2.12880117      -0.85290557      -1.44953309
H        2.00716571       0.86080035      -1.64530746
H        3.36633950       0.20783890      -0.73396891
H        1.59621123      -0.06113827       1.65529234
H       -2.40500830      -0.37063975       1.45110005
H       -1.59181460      -1.86770643       0.99592124
H       -2.67378811      -1.04377204      -0.16415677
H       -0.20325041       1.58980850      -0.89449442
H       -1.84472121       1.04621445      -1.24261500
H       -1.46650863       1.79913667       0.31698494
17
Frame=12 idx=011052 GeodesicLength=0.8246571724191242 rxn_smarts="[C:1]([N:2]([C:3](=[O:4])[N:5]([C:6]([H:12])([H:13])[H:14])[C:7]([H:15])([H:16])[H:17])[H:11])([H:8])([H:9])[H:10]>>[C:1](/[N:2]=[C:3](/[O:4][H:11])[N:5]([C:6]([H:12])([H:13])[H:14])[C:7]([H:15])([H:16])[H:17])([H:8])([H:9])[H:10]"
C        2.31448179       0.07496736      -0.92085362
N        1.54232942       0.21230584       0.28305448
C        0.45222343      -0.52608162       0.45568279
O        0.58968888      -1.10888220       1.60039597
N       -0.80443860      -0.18370233       0.05394341
C       -1.92794921      -0.91037318       0.60803448
C       -1.09457766       1.14278217      -0.43958544
H        2.20278922      -0.91045257      -1.38848759
H        1.99354145       0.77708570      -1.69350388
H        3.37058639       0.25635402      -0.72293604
H        1.57296919      -0.00883650       1.64828112
H       -2.39796677      -0.39148778       1.45088879
H       -1.58856352      -1.87943044       0.96394148
H       -2.68173534      -1.03668583      -0.17302271
H       -0.22197265       1.60230721      -0.89549708
H       -1.88172957       1.08384708      -1.19383655
H       -1.43967646       1.80628306       0.36350038
17
Frame=13 idx=011052 GeodesicLength=0.8923826845035442 rxn_smarts="[C:1]([N:2]([C:3](=[O:4])[N:5]([C:6]([H:12])([H:13])[H:14])[C:7]([H:15])([H:16])[H:17])[H:11])([H:8])([H:9])[H:10]>>[C:1](/[N:2]=[C:3](/[O:4][H:11])[N:5]([C:6]([H:12])([H:13])[H:14])[C:7]([H:15])([H:16])[H:17])([H:8])([H:9])[H:10]"
C        2.32941076       0.05631723      -0.91725666
N        1.52964249       0.22823503       0.26403728
C        0.45039222      -0.52943779       0.42892502
O        0.58939958      -1.10554601       1.57656510
N       -0.81062084      -0.18077023       0.03957316
C       -1.92852227      -0.91610543       0.59375793
C       -1.10350232       1.15851766      -0.41688081
H        2.27753781      -0.96197817      -1.32074022
H        1.98249886       0.68717386      -1.73827653
H        3.37121988       0.30581891      -0.71768304
H        1.55017787       0.04178097       1.63879993
H       -2.39106872      -0.41236886       1.44991423
H       -1.58547412      -1.89050251       0.93128994
H       -2.68963953      -1.02932472      -0.18215384
H       -0.24173127       1.61524528      -0.89626680
H       -1.91791064       1.12069447      -1.14275854
H       -1.41180976       1.81225031       0.40915385
17
Frame=14 idx=011052 GeodesicLength=0.960426334458304 rxn_smarts="[C:1]([N:2]([C:3](=[O:4])[N:5]([C:6]([H:12])([H:13])[H:14])[C:7]([H:15])([H:16])[H:17])[H:11])([H:8])([H:9])[H:10]>>[C:1](/[N:2]=[C:3](/[O:4][H:11])[N:5]([C:6]([H:12])([H:13])[H:14])[C:7]([H:15])([H:16])[H:17])([H:8])([H:9])[H:10]"
C        2.34404484       0.03825668      -0.91316428
N        1.51690865       0.24303725       0.24394398
C        0.44826021      -0.53280292       0.40149861
O        0.58891019      -1.10323417       1.55150914
N       -0.81699323      -0.17726972       0.02513580
C       -1.92943160      -0.92110816       0.57913504
C       -1.11188616       1.17399345      -0.39382106
H        2.35511406      -1.00686704      -1.24507087
H        1.97252324       0.58906461      -1.77938047
H        3.36719325       0.35918224      -0.71956687
H        1.52777819       0.08975228       1.62712927
H       -2.38413498      -0.43275802       1.44839643
H       -1.58319184      -1.90074282       0.89789451
H       -2.69792134      -1.02092827      -0.19129418
H       -0.26203942       1.62862700      -0.89654960
H       -1.95258337       1.15674308      -1.08959489
H       -1.38255070       1.81705453       0.45379943
17
Frame=15 idx=011052 GeodesicLength=1.0286800577166257 rxn_smarts="[C:1]([N:2]([C:3](=[O:4])[N:5]([C:6]([H:12])([H:13])[H:14])[C:7]([H:15])([H:16])[H:17])[H:11])([H:8])([H:9])[H:10]>>[C:1](/[N:2]=[C:3](/[O:4][H:11])[N:5]([C:6]([H:12])([H:13])[H:14])[C:7]([H:15])([H:16])[H:17])([H:8])([H:9])[H:10]"
C        2.35854521       0.02064900      -0.90865390
N        1.50404208       0.25741008       0.22239053
C        0.44586027      -0.53566724       0.37344702
O        0.58851731      -1.10086267       1.52555963
N       -0.82366655      -0.17328121       0.01062973
C       -1.93047001      -0.92580077       0.56439829
C       -1.12031815       1.18897187      -0.37060417
H        2.43100677      -1.04324162      -1.16482286
H        1.96780835       0.48693719      -1.81475841
H        3.35999769       0.40975167      -0.72720119
H        1.50582237       0.13673169       1.61313359
H       -2.37705743      -0.45311957       1.44652191
H       -1.58110494      -1.91037198       0.86416110
H       -2.70641009      -1.01232508      -0.20012116
H       -0.28355633       1.64237870      -0.89650286
H       -1.98623750       1.19130890      -1.03463225
H       -1.35277905       1.82053105       0.49705501
17
Frame=16 idx=011052 GeodesicLength=1.0971176721789433 rxn_smarts="[C:1]([N:2]([C:3](=[O:4])[N:5]([C:6]([H:12])([H:13])[H:14])[C:7]([H:15])([H:16])[H:17])[H:11])([H:8])([H:9])[H:10]>>[C:1](/[N:2]=[C:3](/[O:4][H:11])[N:5]([C:6]([H:12])([H:13])[H:14])[C:7]([H:15])([H:16])[H:17])([H:8])([H:9])[H:10]"
C        2.37291498       0.00333282      -0.90376297
N        1.49104902       0.27135227       0.19924002
C        0.44318483      -0.53805694       0.34470988
O        0.58825554      -1.09831861       1.49872272
N       -0.83064263      -0.16882766      -0.00391849
C       -1.93160401      -0.93021458       0.54960454
C       -1.12884184       1.20342263      -0.34718996
H        2.50427689      -1.07101664      -1.08109827
H        1.96869313       0.38183006      -1.84390427
H        3.35025076       0.45635564      -0.74014137
H        1.48436609       0.18307196       1.59676824
H       -2.36979252      -0.47348606       1.44434317
H       -1.57916405      -1.91939521       0.83017761
H       -2.71508939      -1.00357061      -0.20854242
H       -0.30625523       1.65671683      -0.89570275
H       -2.01864777       1.22415432      -0.97817882
H       -1.32295380       1.82264977       0.53887315
