13
Frame=0 idx=003127 GeodesicLength=0.0 rxn_smarts="[O:1]([C:2]([C:3]([C:4]([C:5]#[N:6])([H:12])[H:13])([H:10])[H:11])([H:8])[H:9])[H:7]>>[C:2]1([H:8])([H:9])[C:3]([H:10])([H:11])[C:4]1([C:5]#[N:6])[H:13].[O:1]([H:7])[H:12]"
O        1.11645077      -0.01730022       1.60969538
C        1.11320887      -0.05867334      -0.45104461
C       -0.08618182      -0.71571034      -0.98760896
C       -1.04268367      -0.26087197       0.10463584
C       -1.70868744       0.95906509      -0.10972128
N       -2.18473238       1.99838348      -0.29271868
H        1.34582820       0.85862511       1.94350110
H        2.05100273      -0.57406966      -0.29831945
H        1.16734117       1.01715630      -0.56469140
H        0.01440822      -1.79884431      -1.01398276
H       -0.33642686      -0.35512249      -1.99102913
H        0.11855815      -0.01163177       1.41246518
H       -1.56808595      -1.04100592       0.63881875
13
Frame=1 idx=003127 GeodesicLength=0.08888216493955951 rxn_smarts="[O:1]([C:2]([C:3]([C:4]([C:5]#[N:6])([H:12])[H:13])([H:10])[H:11])([H:8])[H:9])[H:7]>>[C:2]1([H:8])([H:9])[C:3]([H:10])([H:11])[C:4]1([C:5]#[N:6])[H:13].[O:1]([H:7])[H:12]"
O        1.12270564      -0.04485444       1.60885743
C        1.09858138      -0.03698712      -0.44863501
C       -0.08681771      -0.72158719      -0.98413765
C       -1.03579093      -0.24829552       0.10610120
C       -1.70972032       0.96701992      -0.12590767
N       -2.19514589       1.99685397      -0.33261037
H        1.39615198       0.80326719       1.97738794
H        2.05003122      -0.53479437      -0.32283462
H        1.14423073       1.03799025      -0.57493959
H        0.02675407      -1.80356688      -0.98528213
H       -0.34130764      -0.37920650      -1.99206935
H        0.10212009      -0.01231043       1.43666072
H       -1.57179262      -1.02352889       0.63740910
13
Frame=2 idx=003127 GeodesicLength=0.17757873385008838 rxn_smarts="[O:1]([C:2]([C:3]([C:4]([C:5]#[N:6])([H:12])[H:13])([H:10])[H:11])([H:8])[H:9])[H:7]>>[C:2]1([H:8])([H:9])[C:3]([H:10])([H:11])[C:4]1([C:5]#[N:6])[H:13].[O:1]([H:7])[H:12]"
O        1.12825087      -0.07133008       1.60742874
C        1.08418470      -0.01541749      -0.44583234
C       -0.08707468      -0.72687885      -0.98006739
C       -1.02875318      -0.23533898       0.10783190
C       -1.71115711       0.97466326      -0.14236994
N       -2.20663089       1.99399557      -0.37264673
H        1.44706430       0.74455258       2.00891040
H        2.04781751      -0.49579003      -0.34553719
H        1.12170086       1.05834360      -0.58603336
H        0.03919340      -1.80701207      -0.95669668
H       -0.34542613      -0.40243436      -1.99215737
H        0.08568637      -0.01154219       1.46084717
H       -1.57485601      -1.00581095       0.63632279
13
Frame=3 idx=003127 GeodesicLength=0.26608908233472084 rxn_smarts="[O:1]([C:2]([C:3]([C:4]([C:5]#[N:6])([H:12])[H:13])([H:10])[H:11])([H:8])[H:9])[H:7]>>[C:2]1([H:8])([H:9])[C:3]([H:10])([H:11])[C:4]1([C:5]#[N:6])[H:13].[O:1]([H:7])[H:12]"
O        1.13317754      -0.09650539       1.60549203
C        1.07003866       0.00609238      -0.44265712
C       -0.08694907      -0.73158305      -0.97539651
C       -1.02157432      -0.22198747       0.10982823
C       -1.71293096       0.98201734      -0.15906016
N       -2.21903760       1.98984275      -0.41272902
H        1.49814966       0.68249144       2.03797050
H        2.04449902      -0.45711622      -0.36644910
H        1.09972859       1.07822252      -0.59808662
H        0.05173324      -1.80923196      -0.92819859
H       -0.34880693      -0.42485014      -1.99132284
H        0.06927050      -0.00954759       1.48504317
H       -1.57729832      -0.98784462       0.63556602
13
Frame=4 idx=003127 GeodesicLength=0.35441882159021293 rxn_smarts="[O:1]([C:2]([C:3]([C:4]([C:5]#[N:6])([H:12])[H:13])([H:10])[H:11])([H:8])[H:9])[H:7]>>[C:2]1([H:8])([H:9])[C:3]([H:10])([H:11])[C:4]1([C:5]#[N:6])[H:13].[O:1]([H:7])[H:12]"
O        1.13757199      -0.12011850       1.60316757
C        1.05616016       0.02759898      -0.43912759
C       -0.08643213      -0.73572415      -0.97013674
C       -1.01428446      -0.20826047       0.11208252
C       -1.71500717       0.98907828      -0.17593182
N       -2.23212106       1.98450310      -0.45267902
H        1.54902918       0.61719620       2.06441787
H        2.04022080      -0.41880843      -0.38561123
H        1.07829197       1.09763466      -0.61120322
H        0.06439197      -1.81030983      -0.89977816
H       -0.35145528      -0.44651936      -1.98961165
H        0.05281913      -0.00660026       1.50928454
H       -1.57918510      -0.96967022       0.63512693
13
Frame=5 idx=003127 GeodesicLength=0.44256450443661716 rxn_smarts="[O:1]([C:2]([C:3]([C:4]([C:5]#[N:6])([H:12])[H:13])([H:10])[H:11])([H:8])[H:9])[H:7]>>[C:2]1([H:8])([H:9])[C:3]([H:10])([H:11])[C:4]1([C:5]#[N:6])[H:13].[O:1]([H:7])[H:12]"
O        1.14163129      -0.14200737       1.60044379
C        1.04254249       0.04915157      -0.43526292
C       -0.08552073      -0.73926179      -0.96423871
C       -1.00683715      -0.19408691       0.11458969
C       -1.71726267       0.99591653      -0.19296125
N       -2.24592103       1.97790519      -0.49253565
H        1.59928429       0.54851180       2.08827686
H        2.03508098      -0.38089002      -0.40308862
H        1.05732510       1.11652010      -0.62547889
H        0.07719845      -1.81021804      -0.87130957
H       -0.35342722      -0.46747457      -1.98697644
H        0.03636641      -0.00288381       1.53353462
H       -1.58046020      -0.95118269       0.63500706
13
Frame=6 idx=003127 GeodesicLength=0.5305460398586515 rxn_smarts="[O:1]([C:2]([C:3]([C:4]([C:5]#[N:6])([H:12])[H:13])([H:10])[H:11])([H:8])[H:9])[H:7]>>[C:2]1([H:8])([H:9])[C:3]([H:10])([H:11])[C:4]1([C:5]#[N:6])[H:13].[O:1]([H:7])[H:12]"
O        1.14540857      -0.16187003       1.59754135
C        1.02920203       0.07080796      -0.43106222
C       -0.08419917      -0.74225521      -0.95773532
C       -0.99931227      -0.17953942       0.11733334
C       -1.71974042       1.00247636      -0.21011584
N       -2.26009812       1.97024754      -0.53204911
H        1.64873046       0.47664639       2.10922943
H        2.02922716      -0.34336688      -0.41892236
H        1.03682064       1.13489519      -0.64094014
H        0.09018468      -1.80908133      -0.84282467
H       -0.35468524      -0.48779921      -1.98349099
H        0.01972324       0.00134513       1.55787405
H       -1.58126157      -0.93250648       0.63516248
13
Frame=7 idx=003127 GeodesicLength=0.6183442321538286 rxn_smarts="[O:1]([C:2]([C:3]([C:4]([C:5]#[N:6])([H:12])[H:13])([H:10])[H:11])([H:8])[H:9])[H:7]>>[C:2]1([H:8])([H:9])[C:3]([H:10])([H:11])[C:4]1([C:5]#[N:6])[H:13].[O:1]([H:7])[H:12]"
O        1.14904284      -0.17951634       1.59454865
C        1.01612063       0.09264358      -0.42652726
C       -0.08245453      -0.74468755      -0.95058065
C       -0.99170167      -0.16458931       0.12031479
C       -1.72239297       1.00876677      -0.22739059
N       -2.27459847       1.96151405      -0.57126396
H        1.69714661       0.40138834       2.12711206
H        2.02274618      -0.30619030      -0.43318825
H        1.01670697       1.15273436      -0.65760539
H        0.10340089      -1.80689398      -0.81420238
H       -0.35524489      -0.50754406      -1.97912267
H        0.00280877       0.00598192       1.58231280
H       -1.58158036      -0.91360747       0.63559285
13
Frame=8 idx=003127 GeodesicLength=0.7059118859997744 rxn_smarts="[O:1]([C:2]([C:3]([C:4]([C:5]#[N:6])([H:12])[H:13])([H:10])[H:11])([H:8])[H:9])[H:7]>>[C:2]1([H:8])([H:9])[C:3]([H:10])([H:11])[C:4]1([C:5]#[N:6])[H:13].[O:1]([H:7])[H:12]"
O        1.15265065      -0.19469332       1.59165335
C        1.00327043       0.11475853      -0.42167224
C       -0.08028491      -0.74655805      -0.94273843
C       -0.98401302      -0.14926305       0.12353382
C       -1.72517899       1.01473592      -0.24483309
N       -2.28921600       1.95176564      -0.61016793
H        1.74434082       0.32257572       2.14163537
H        2.01569339      -0.26926192      -0.44594798
H        0.99692677       1.17005646      -0.67550050
H        0.11687571      -1.80367095      -0.78530381
H       -0.35512006      -0.52676163      -1.97388000
H       -0.01450267       0.01086262       1.60691252
H       -1.58144214      -0.89454596       0.63630892
13
Frame=9 idx=003127 GeodesicLength=0.7931887393644067 rxn_smarts="[O:1]([C:2]([C:3]([C:4]([C:5]#[N:6])([H:12])[H:13])([H:10])[H:11])([H:8])[H:9])[H:7]>>[C:2]1([H:8])([H:9])[C:3]([H:10])([H:11])[C:4]1([C:5]#[N:6])[H:13].[O:1]([H:7])[H:12]"
O        1.15637557      -0.20705548       1.58872426
C        0.99064092       0.13719581      -0.41655244
C       -0.07758817      -0.74789039      -0.93413328
C       -0.97622122      -0.13350374       0.12702875
C       -1.72810692       1.02033182      -0.26230995
N       -2.30375171       1.94104224      -0.64860275
H        1.78965700       0.23984331       2.15258458
H        2.00817523      -0.23250859      -0.45741803
H        0.97735701       1.18672507      -0.69461883
H        0.13081592      -1.79937130      -0.75601089
H       -0.35421873      -0.54564915      -1.96761335
H       -0.03234291       0.01602492       1.63158634
H       -1.58079199      -0.87518452       0.63733556
13
Frame=10 idx=003127 GeodesicLength=0.8802733440050576 rxn_smarts="[O:1]([C:2]([C:3]([C:4]([C:5]#[N:6])([H:12])[H:13])([H:10])[H:11])([H:8])[H:9])[H:7]>>[C:2]1([H:8])([H:9])[C:3]([H:10])([H:11])[C:4]1([C:5]#[N:6])[H:13].[O:1]([H:7])[H:12]"
O        1.16048826      -0.21628314       1.58608247
C        0.97824588       0.16007845      -0.41119742
C       -0.07438380      -0.74874821      -0.92475452
C       -0.96838267      -0.11739720       0.13078493
C       -1.73125272       1.02547217      -0.27994897
N       -2.31796559       1.92961015      -0.68651871
H        1.83284010       0.15304267       2.15958630
H        2.00032351      -0.19578528      -0.46763469
H        0.95798043       1.20284344      -0.71496466
H        0.14525945      -1.79410874      -0.72617265
H       -0.35261845      -0.56432200      -1.96040259
H       -0.05080784       0.02131072       1.65645996
H       -1.57972655      -0.85571302       0.63868055
13
Frame=11 idx=003127 GeodesicLength=0.9671141923100002 rxn_smarts="[O:1]([C:2]([C:3]([C:4]([C:5]#[N:6])([H:12])[H:13])([H:10])[H:11])([H:8])[H:9])[H:7]>>[C:2]1([H:8])([H:9])[C:3]([H:10])([H:11])[C:4]1([C:5]#[N:6])[H:13].[O:1]([H:7])[H:12]"
O        1.16523316      -0.22198363       1.58374573
C        0.96604666       0.18350052      -0.40567373
C       -0.07058795      -0.74917383      -0.91450036
C       -0.96045036      -0.10096126       0.13484277
C       -1.73463654       1.03002383      -0.29771646
N       -2.33151576       1.91766559      -0.72378451
H        1.87304927       0.06175912       2.16219328
H        1.99218278      -0.15892470      -0.47676941
H        0.93863608       1.21837190      -0.73655123
H        0.16042459      -1.78786518      -0.69556936
H       -0.35028426      -0.58297791      -1.95211083
H       -0.06995227       0.02671369       1.68149479
H       -1.57814538      -0.83614815       0.64039932
13
Frame=12 idx=003127 GeodesicLength=1.0540890427569338 rxn_smarts="[O:1]([C:2]([C:3]([C:4]([C:5]#[N:6])([H:12])[H:13])([H:10])[H:11])([H:8])[H:9])[H:7]>>[C:2]1([H:8])([H:9])[C:3]([H:10])([H:11])[C:4]1([C:5]#[N:6])[H:13].[O:1]([H:7])[H:12]"
O        1.17124687      -0.22347467       1.58206346
C        0.95415395       0.20786259      -0.40023781
C       -0.06620626      -0.74910361      -0.90326881
C       -0.95253369      -0.08418088       0.13931317
C       -1.73862434       1.03377805      -0.31590667
N       -2.34453750       1.90524772      -0.76100488
H        1.90983317      -0.03605887       2.16073460
H        1.98413301      -0.12125753      -0.48517495
H        0.91925953       1.23356106      -0.75999250
H        0.17651827      -1.78047774      -0.66362864
H       -0.34744663      -0.60183792      -1.94287562
H       -0.08961545       0.03250241       1.70702240
H       -1.57618092      -0.81656060       0.64295624
13
Frame=13 idx=003127 GeodesicLength=1.1399773713472627 rxn_smarts="[O:1]([C:2]([C:3]([C:4]([C:5]#[N:6])([H:12])[H:13])([H:10])[H:11])([H:8])[H:9])[H:7]>>[C:2]1([H:8])([H:9])[C:3]([H:10])([H:11])[C:4]1([C:5]#[N:6])[H:13].[O:1]([H:7])[H:12]"
O        1.17786578      -0.22112861       1.58045325
C        0.94217532       0.23249780      -0.39441421
C       -0.06083292      -0.74875224      -0.89079502
C       -0.94396543      -0.06710026       0.14420632
C       -1.74203903       1.03669823      -0.33358877
N       -2.35566768       1.89250960      -0.79638369
H        1.94003343      -0.13703420       2.15135536
H        1.97519623      -0.08384733      -0.49249274
H        0.89954378       1.24763347      -0.78352923
H        0.19383906      -1.77207147      -0.63085170
H       -0.34323732      -0.62095843      -1.93166611
H       -0.11004410       0.03832542       1.73212952
H       -1.57286714      -0.79677198       0.64557703
13
Frame=14 idx=003127 GeodesicLength=1.2259514146878676 rxn_smarts="[O:1]([C:2]([C:3]([C:4]([C:5]#[N:6])([H:12])[H:13])([H:10])[H:11])([H:8])[H:9])[H:7]>>[C:2]1([H:8])([H:9])[C:3]([H:10])([H:11])[C:4]1([C:5]#[N:6])[H:13].[O:1]([H:7])[H:12]"
O        1.18674679      -0.21551330       1.57978156
C        0.93078544       0.25765938      -0.38876995
C       -0.05483103      -0.74802984      -0.87744700
C       -0.93525723      -0.04996329       0.14968989
C       -1.74584293       1.03869838      -0.35115641
N       -2.36559036       1.87997896      -0.83091918
H        1.96326576      -0.24099009       2.13623824
H        1.96673402      -0.04624343      -0.49945518
H        0.88021741       1.26100187      -0.80830546
H        0.21206701      -1.76271314      -0.59702813
H       -0.33855252      -0.64005248      -1.91955020
H       -0.13060381       0.04353570       1.75781395
H       -1.56913854      -0.77736871       0.64910786
13
Frame=15 idx=003127 GeodesicLength=1.3116916471336202 rxn_smarts="[O:1]([C:2]([C:3]([C:4]([C:5]#[N:6])([H:12])[H:13])([H:10])[H:11])([H:8])[H:9])[H:7]>>[C:2]1([H:8])([H:9])[C:3]([H:10])([H:11])[C:4]1([C:5]#[N:6])[H:13].[O:1]([H:7])[H:12]"
O        1.19803724      -0.20708577       1.57918722
C        0.91984587       0.28308731      -0.38332778
C       -0.04803807      -0.74696754      -0.86323567
C       -0.92578615      -0.03264619       0.15584114
C       -1.74913704       1.03981385      -0.36785845
N       -2.37402509       1.86697847      -0.86373597
H        1.97644712      -0.34659006       2.11513091
H        1.95823516      -0.00879831      -0.50639487
H        0.86113364       1.27320562      -0.83376436
H        0.23128496      -1.75231769      -0.56262449
H       -0.33321097      -0.65923607      -1.90611477
H       -0.15071017       0.04857242       1.78348139
H       -1.56407652      -0.75801606       0.65341570
13
Frame=16 idx=003127 GeodesicLength=1.397592666997619 rxn_smarts="[O:1]([C:2]([C:3]([C:4]([C:5]#[N:6])([H:12])[H:13])([H:10])[H:11])([H:8])[H:9])[H:7]>>[C:2]1([H:8])([H:9])[C:3]([H:10])([H:11])[C:4]1([C:5]#[N:6])[H:13].[O:1]([H:7])[H:12]"
O        1.21214508      -0.19806454       1.57844382
C        0.90971726       0.30833197      -0.37810004
C       -0.04060620      -0.74546050      -0.84843049
C       -0.91544113      -0.01512220       0.16267432
C       -1.75159408       1.04058312      -0.38339851
N       -2.38205665       1.85305549      -0.89487943
H        1.97886861      -0.45056739       2.08889488
H        1.95005948       0.02769291      -0.51351714
H        0.84293648       1.28408889      -0.85942047
H        0.25102584      -1.74109779      -0.52825996
H       -0.32740685      -0.67784134      -1.89160820
H       -0.16989175       0.05312214       1.80908631
H       -1.55775609      -0.73872076       0.65851491
