12
Frame=0 idx=004257 GeodesicLength=0.0 rxn_smarts="[O:1]([C:2]([C@@:3]([O:4][H:11])([C:5](=[O:6])[H:12])[H:10])([H:8])[H:9])[H:7]>>[C:2]([C@@:3]([O:4][H:11])([C:5](=[O:6])[H:12])[H:10])[H:9].[O:1]([H:7])[H:8]"
O       -1.74597693       0.65725390      -0.39027983
C       -0.98033770      -0.80925987       0.34028776
C        0.46548282      -0.60654302       0.03926394
O        0.70038455      -0.55071048      -1.34190009
C        1.04767301       0.62256325       0.71104251
O        1.61357639       1.48489080       0.09502528
H       -1.14573534       0.84416963      -1.12798771
H       -2.00850261      -0.35393535      -0.55935055
H       -1.19217198      -0.60924151       1.39484505
H        0.95418278      -1.47959610       0.51237599
H        1.38970333       0.11272163      -1.47893994
H        0.90172168       0.68768715       1.80561761
12
Frame=1 idx=004257 GeodesicLength=0.061875164076996676 rxn_smarts="[O:1]([C:2]([C@@:3]([O:4][H:11])([C:5](=[O:6])[H:12])[H:10])([H:8])[H:9])[H:7]>>[C:2]([C@@:3]([O:4][H:11])([C:5](=[O:6])[H:12])[H:10])[H:9].[O:1]([H:7])[H:8]"
O       -1.74124428       0.64939452      -0.39014092
C       -0.98444507      -0.79678774       0.34120559
C        0.46393984      -0.60284870       0.03964504
O        0.69602561      -0.54288197      -1.34227318
C        1.05091898       0.62260867       0.71317736
O        1.62289997       1.48246277       0.09911640
H       -1.14289337       0.83484395      -1.13015271
H       -2.01715857      -0.37102064      -0.56539645
H       -1.19526588      -0.59967726       1.39648323
H        0.95015891      -1.47938233       0.50796987
H        1.38709688       0.11904757      -1.47825250
H        0.90996698       0.68424114       1.80861827
12
Frame=2 idx=004257 GeodesicLength=0.12372883034667537 rxn_smarts="[O:1]([C:2]([C@@:3]([O:4][H:11])([C:5](=[O:6])[H:12])[H:10])([H:8])[H:9])[H:7]>>[C:2]([C@@:3]([O:4][H:11])([C:5](=[O:6])[H:12])[H:10])[H:9].[O:1]([H:7])[H:8]"
O       -1.73650920       0.64186946      -0.39003266
C       -0.98851457      -0.78442555       0.34201413
C        0.46239699      -0.59920072       0.03999564
O        0.69176001      -0.53510993      -1.34264473
C        1.05412462       0.62259487       0.71528675
O        1.63202945       1.48000170       0.10314785
H       -1.14003853       0.82559929      -1.13238513
H       -2.02549220      -0.38817483      -0.57088990
H       -1.19839587      -0.59012231       1.39797345
H        0.94612928      -1.47916528       0.50355063
H        1.38453450       0.12536195      -1.47754937
H        0.91797552       0.68077133       1.81153335
12
Frame=3 idx=004257 GeodesicLength=0.1855553018497045 rxn_smarts="[O:1]([C:2]([C@@:3]([O:4][H:11])([C:5](=[O:6])[H:12])[H:10])([H:8])[H:9])[H:7]>>[C:2]([C@@:3]([O:4][H:11])([C:5](=[O:6])[H:12])[H:10])[H:9].[O:1]([H:7])[H:8]"
O       -1.73175260       0.63469598      -0.38993185
C       -0.99254670      -0.77217354       0.34270815
C        0.46085668      -0.59560627       0.04031429
O        0.68758612      -0.52740176      -1.34301778
C        1.05730270       0.62251028       0.71736882
O        1.64093489       1.47752194       0.10710789
H       -1.13715709       0.81645538      -1.13466390
H       -2.03350972      -0.40540186      -0.57584519
H       -1.20155745      -0.58059250       1.39931516
H        0.94209481      -1.47895316       0.49911802
H        1.38202517       0.13164739      -1.47683145
H        0.92572319       0.67729812       1.81435784
12
Frame=4 idx=004257 GeodesicLength=0.247357495748943 rxn_smarts="[O:1]([C:2]([C@@:3]([O:4][H:11])([C:5](=[O:6])[H:12])[H:10])([H:8])[H:9])[H:7]>>[C:2]([C@@:3]([O:4][H:11])([C:5](=[O:6])[H:12])[H:10])[H:9].[O:1]([H:7])[H:8]"
O       -1.72695526       0.62788899      -0.38981428
C       -0.99654179      -0.76003195       0.34328491
C        0.45932097      -0.59207266       0.04060009
O        0.68350134      -0.51976549      -1.34339484
C        1.06046534       0.62234324       0.71942140
O        1.64958504       1.47503946       0.11098417
H       -1.13423506       0.80743382      -1.13696441
H       -2.04121881      -0.42270586      -0.58028671
H       -1.20474567      -0.57110206       1.40051011
H        0.93805658      -1.47875398       0.49467174
H        1.37957734       0.13788523      -1.47609977
H        0.93318997       0.67384125       1.81708759
12
Frame=5 idx=004257 GeodesicLength=0.30914021100767786 rxn_smarts="[O:1]([C:2]([C@@:3]([O:4][H:11])([C:5](=[O:6])[H:12])[H:10])([H:8])[H:9])[H:7]>>[C:2]([C@@:3]([O:4][H:11])([C:5](=[O:6])[H:12])[H:10])[H:9].[O:1]([H:7])[H:8]"
O       -1.72212555       0.62144130      -0.38969891
C       -1.00050618      -0.74798677       0.34374793
C        0.45778411      -0.58858917       0.04085409
O        0.67950362      -0.51219093      -1.34377441
C        1.06360154       0.62210472       0.72144882
O        1.65802584       1.47254192       0.11479749
H       -1.13128781       0.79851474      -1.13930985
H       -2.04862882      -0.44012783      -0.58421985
H       -1.20796800      -0.56162345       1.40155921
H        0.93400716      -1.47855959       0.49021166
H        1.37717296       0.14410192      -1.47535555
H        0.94042113       0.67037314       1.81973938
12
Frame=6 idx=004257 GeodesicLength=0.370887406961433 rxn_smarts="[O:1]([C:2]([C@@:3]([O:4][H:11])([C:5](=[O:6])[H:12])[H:10])([H:8])[H:9])[H:7]>>[C:2]([C@@:3]([O:4][H:11])([C:5](=[O:6])[H:12])[H:10])[H:9].[O:1]([H:7])[H:8]"
O       -1.71725518       0.61536241      -0.38956653
C       -1.00443918      -0.73603694       0.34409618
C        0.45624717      -0.58516068       0.04107604
O        0.67558798      -0.50468192      -1.34415802
C        1.06672204       0.62178497       0.72344963
O        1.66623392       1.47004111       0.11853745
H       -1.12830605       0.78971792      -1.14167821
H       -2.05574137      -0.45767260      -0.58767070
H       -1.21121989      -0.55216652       1.40246475
H        0.92994658      -1.47837626       0.48573760
H        1.37482018       0.15027984      -1.47459804
H        0.94740379       0.66690868       1.82230987
12
Frame=7 idx=004257 GeodesicLength=0.4326249129702865 rxn_smarts="[O:1]([C:2]([C@@:3]([O:4][H:11])([C:5](=[O:6])[H:12])[H:10])([H:8])[H:9])[H:7]>>[C:2]([C@@:3]([O:4][H:11])([C:5](=[O:6])[H:12])[H:10])[H:9].[O:1]([H:7])[H:8]"
O       -1.71234524       0.60964996      -0.38942363
C       -1.00834722      -0.72417146       0.34433143
C        0.45470545      -0.58177893       0.04126363
O        0.67175142      -0.49722773      -1.34454876
C        1.06982099       0.62139030       0.72542670
O        1.67425491       1.46752302       0.12222242
H       -1.12530245       0.78103005      -1.14408221
H       -2.06256680      -0.47537907      -0.59063941
H       -1.21450668      -0.54271244       1.40322871
H        0.92586979      -1.47819913       0.48124130
H        1.37251290       0.15643492      -1.47382938
H        0.95415293       0.66344051       1.82480920
12
Frame=8 idx=004257 GeodesicLength=0.4943510106384041 rxn_smarts="[O:1]([C:2]([C@@:3]([O:4][H:11])([C:5](=[O:6])[H:12])[H:10])([H:8])[H:9])[H:7]>>[C:2]([C@@:3]([O:4][H:11])([C:5](=[O:6])[H:12])[H:10])[H:9].[O:1]([H:7])[H:8]"
O       -1.70741036       0.60429105      -0.38928637
C       -1.01223578      -0.71237706       0.34445885
C        0.45315263      -0.57843139       0.04141734
O        0.66798993      -0.48981514      -1.34494548
C        1.07288628       0.62093310       0.72738375
O        1.68214903       1.46496352       0.12587480
H       -1.12229429       0.77243328      -1.14653881
H       -2.06910991      -0.49329068      -0.59313644
H       -1.21783430      -0.53323072       1.40385360
H        0.92177068      -1.47801824       0.47671950
H        1.37023287       0.16259473      -1.47305016
H        0.96070322       0.65994756       1.82724940
12
Frame=9 idx=004257 GeodesicLength=0.5560565528604209 rxn_smarts="[O:1]([C:2]([C@@:3]([O:4][H:11])([C:5](=[O:6])[H:12])[H:10])([H:8])[H:9])[H:7]>>[C:2]([C@@:3]([O:4][H:11])([C:5](=[O:6])[H:12])[H:10])[H:9].[O:1]([H:7])[H:8]"
O       -1.70243992       0.59930341      -0.38913241
C       -1.01610598      -0.70065367       0.34447180
C        0.45158923      -0.57512231       0.04153351
O        0.66429812      -0.48244302      -1.34535311
C        1.07592666       0.62040528       0.72931616
O        1.68989508       1.46237208       0.12948102
H       -1.11927525       0.76395292      -1.14902173
H       -2.07536817      -0.51141029      -0.59516578
H       -1.22119725      -0.52374840       1.40433893
H        0.91764830      -1.47783867       0.47216783
H        1.36800739       0.16872708      -1.47225825
H        0.96702180       0.65645559       1.82962203
12
Frame=10 idx=004257 GeodesicLength=0.6177532494249348 rxn_smarts="[O:1]([C:2]([C@@:3]([O:4][H:11])([C:5](=[O:6])[H:12])[H:10])([H:8])[H:9])[H:7]>>[C:2]([C@@:3]([O:4][H:11])([C:5](=[O:6])[H:12])[H:10])[H:9].[O:1]([H:7])[H:8]"
O       -1.69743300       0.59468438      -0.38897244
C       -1.01996186      -0.68898875       0.34437221
C        0.45001213      -0.57184641       0.04161216
O        0.66067501      -0.47510630      -1.34577174
C        1.07894123       0.61980776       0.73122886
O        1.69752205       1.45973784       0.13305722
H       -1.11625252       0.75557551      -1.15154717
H       -2.08134342      -0.52977329      -0.59672864
H       -1.22460006      -0.51423892       1.40468528
H        0.91349576      -1.47765938       0.46758383
H        1.36581546       0.17485814      -1.47145714
H        0.97312923       0.65294942       1.83193757
12
Frame=11 idx=004257 GeodesicLength=0.6794448028935481 rxn_smarts="[O:1]([C:2]([C@@:3]([O:4][H:11])([C:5](=[O:6])[H:12])[H:10])([H:8])[H:9])[H:7]>>[C:2]([C@@:3]([O:4][H:11])([C:5](=[O:6])[H:12])[H:10])[H:9].[O:1]([H:7])[H:8]"
O       -1.69240279       0.59042539      -0.38882907
C       -1.02381109      -0.67736546       0.34416453
C        0.44841393      -0.56859131       0.04165429
O        0.65711859      -0.46779285      -1.34619959
C        1.08191813       0.61915309       0.73312749
O        1.70507490       1.45704446       0.13662509
H       -1.11324460       0.74727900      -1.15413935
H       -2.08703312      -0.54842761      -0.59782740
H       -1.22805267      -0.50466379       1.40489375
H        0.90930339      -1.47747165       0.46296476
H        1.36363944       0.18101757      -1.47064546
H        0.97907588       0.64939316       1.83421097
12
Frame=12 idx=004257 GeodesicLength=0.7411260525596094 rxn_smarts="[O:1]([C:2]([C@@:3]([O:4][H:11])([C:5](=[O:6])[H:12])[H:10])([H:8])[H:9])[H:7]>>[C:2]([C@@:3]([O:4][H:11])([C:5](=[O:6])[H:12])[H:10])[H:9].[O:1]([H:7])[H:8]"
O       -1.68732455       0.58655056      -0.38868718
C       -1.02765547      -0.66577986       0.34384054
C        0.44679561      -0.56536508       0.04165762
O        0.65363101      -0.46051050      -1.34663933
C        1.08486977       0.61842465       0.73501033
O        1.71249640       1.45431835       0.14016959
H       -1.11023490       0.73907772      -1.15678644
H       -2.09243362      -0.56736835      -0.59845173
H       -1.23155184      -0.49504077       1.40496096
H        0.90506715      -1.47728402       0.45830920
H        1.36149472       0.18718409      -1.46982148
H        0.98484572       0.64579322       1.83643792
12
Frame=13 idx=004257 GeodesicLength=0.8028021759426812 rxn_smarts="[O:1]([C:2]([C@@:3]([O:4][H:11])([C:5](=[O:6])[H:12])[H:10])([H:8])[H:9])[H:7]>>[C:2]([C@@:3]([O:4][H:11])([C:5](=[O:6])[H:12])[H:10])[H:9].[O:1]([H:7])[H:8]"
O       -1.68221154       0.58305468      -0.38855728
C       -1.03150070      -0.65421974       0.34340010
C        0.44515221      -0.56215743       0.04162077
O        0.65020681      -0.45324621      -1.34709220
C        1.08778845       0.61763226       0.73688097
O        1.71984886       1.45153015       0.14371160
H       -1.10724406       0.73096119      -1.15949980
H       -2.09753788      -0.58664183      -0.59860152
H       -1.23510270      -0.48534551       1.40488611
H        0.90078111      -1.47709033       0.45361168
H        1.35936705       0.19338064      -1.46898641
H        0.99045240       0.64214213       1.83862597
12
Frame=14 idx=004257 GeodesicLength=0.8644769664762191 rxn_smarts="[O:1]([C:2]([C@@:3]([O:4][H:11])([C:5](=[O:6])[H:12])[H:10])([H:8])[H:9])[H:7]>>[C:2]([C@@:3]([O:4][H:11])([C:5](=[O:6])[H:12])[H:10])[H:9].[O:1]([H:7])[H:8]"
O       -1.67706251       0.57993701      -0.38845893
C       -1.03535295      -0.64266828       0.34284477
C        0.44347543      -0.55895842       0.04154369
O        0.64684437      -0.44598711      -1.34755653
C        1.09066500       0.61678037       0.73874300
O        1.72714958       1.44867135       0.14726476
H       -1.10428215       0.72291140      -1.16230215
H       -2.10233449      -0.60628798      -0.59826288
H       -1.23871080      -0.47554762       1.40466772
H        0.89643056      -1.47688395       0.44886991
H        1.35724600       0.19962911      -1.46813719
H        0.99593196       0.63840414       1.84078383
12
Frame=15 idx=004257 GeodesicLength=0.9261478016066345 rxn_smarts="[O:1]([C:2]([C@@:3]([O:4][H:11])([C:5](=[O:6])[H:12])[H:10])([H:8])[H:9])[H:7]>>[C:2]([C@@:3]([O:4][H:11])([C:5](=[O:6])[H:12])[H:10])[H:9].[O:1]([H:7])[H:8]"
O       -1.67186230       0.57722134      -0.38837177
C       -1.03921487      -0.63112510       0.34216304
C        0.44176820      -0.55577627       0.04142199
O        0.64354311      -0.43874042      -1.34803900
C        1.09351382       0.61585552       0.74059513
O        1.73438050       1.44574964       0.15082090
H       -1.10134086       0.71494907      -1.16517440
H       -2.10681706      -0.62631050      -0.59742485
H       -1.24237379      -0.46567006       1.40430153
H        0.89201600      -1.47667531       0.44407790
H        1.35514310       0.20591193      -1.46727678
H        1.00124413       0.63461015       1.84290630
12
Frame=16 idx=004257 GeodesicLength=0.9878090791233256 rxn_smarts="[O:1]([C:2]([C@@:3]([O:4][H:11])([C:5](=[O:6])[H:12])[H:10])([H:8])[H:9])[H:7]>>[C:2]([C@@:3]([O:4][H:11])([C:5](=[O:6])[H:12])[H:10])[H:9].[O:1]([H:7])[H:8]"
O       -1.66658422       0.57493492      -0.38827987
C       -1.04308753      -0.61958770       0.34134476
C        0.44003109      -0.55262117       0.04125227
O        0.64030215      -0.43151297      -1.34854310
C        1.09634979       0.61483660       0.74243471
O        1.74148493       1.44279107       0.15436465
H       -1.09840375       0.70709634      -1.16810050
H       -2.11097335      -0.64670661      -0.59607152
H       -1.24608480      -0.45573337       1.40378222
H        0.88753074      -1.47647718       0.43923229
H        1.35307410       0.21220474      -1.46640275
H        1.00636085       0.63077533       1.84498685
