12
Frame=0 idx=003325 GeodesicLength=0.0 rxn_smarts="[C:1](#[C:2][C:3]1([H:8])[C:4]([H:9])([H:10])[O:5][C:6]1([H:11])[H:12])[H:7]>>[C:1](#[C:2][C:3]1=[C:4]([H:10])[O:5][C:6]1([H:11])[H:12])[H:7].[H:8][H:9]"
C        2.56303949      -0.08756487      -0.13439834
C        1.37120861      -0.03482634       0.05692407
C        0.01011104       0.17992597       0.20808250
C       -1.12608882      -0.68457492       0.23188979
O       -1.84314521       0.15360212      -0.71338788
C       -0.84409638       1.18809229      -0.51703428
H        3.61452691      -0.19086632      -0.26395506
H        0.32210411      -1.55916010       1.23650887
H       -0.65470267      -1.75422774       0.14559529
H       -1.74608021      -0.78598674       1.12093385
H       -1.26860010       2.00768542       0.06850967
H       -0.39827673       1.56790124      -1.43966849
12
Frame=1 idx=003325 GeodesicLength=0.07907558168516535 rxn_smarts="[C:1](#[C:2][C:3]1([H:8])[C:4]([H:9])([H:10])[O:5][C:6]1([H:11])[H:12])[H:7]>>[C:1](#[C:2][C:3]1=[C:4]([H:10])[O:5][C:6]1([H:11])[H:12])[H:7].[H:8][H:9]"
C        2.57012416      -0.07315639      -0.13354274
C        1.37680558      -0.03462729       0.04902751
C        0.01143398       0.16556062       0.20968268
C       -1.14295812      -0.67583060       0.24325601
O       -1.85355719       0.16513739      -0.69767298
C       -0.83477773       1.18267233      -0.51748766
H        3.62545537      -0.15330356      -0.24842172
H        0.32091386      -1.58707958       1.20478392
H       -0.67972362      -1.77180065       0.14528390
H       -1.75614567      -0.77724012       1.13734071
H       -1.23834695       2.01757212       0.06091406
H       -0.39922367       1.54209573      -1.45316369
12
Frame=2 idx=003325 GeodesicLength=0.15815474516060185 rxn_smarts="[C:1](#[C:2][C:3]1([H:8])[C:4]([H:9])([H:10])[O:5][C:6]1([H:11])[H:12])[H:7]>>[C:1](#[C:2][C:3]1=[C:4]([H:10])[O:5][C:6]1([H:11])[H:12])[H:7].[H:8][H:9]"
C        2.57743369      -0.05799493      -0.13168017
C        1.38264571      -0.03426327       0.04079783
C        0.01299653       0.15062827       0.21025861
C       -1.15952585      -0.66648794       0.25538785
O       -1.86411699       0.17715263      -0.68093654
C       -0.82545759       1.17687489      -0.51828692
H        3.63588434      -0.11549780      -0.23159606
H        0.31929620      -1.61543579       1.17074029
H       -0.70565659      -1.78959767       0.14458311
H       -1.76516221      -0.76792992       1.15490945
H       -1.20700005       2.02689559       0.05272021
H       -0.40133720       1.51565592      -1.46689766
12
Frame=3 idx=003325 GeodesicLength=0.23722914007330181 rxn_smarts="[C:1](#[C:2][C:3]1([H:8])[C:4]([H:9])([H:10])[O:5][C:6]1([H:11])[H:12])[H:7]>>[C:1](#[C:2][C:3]1=[C:4]([H:10])[O:5][C:6]1([H:11])[H:12])[H:7].[H:8][H:9]"
C        2.58489861      -0.04189591      -0.12846223
C        1.38876345      -0.03336468       0.03292557
C        0.01474835       0.13524526       0.21003294
C       -1.17565226      -0.65656528       0.26823982
O       -1.87455350       0.18951265      -0.66343684
C       -0.81614958       1.17070361      -0.51941559
H        3.64566732      -0.07802620      -0.21444108
H        0.31710519      -1.64405131       1.13452926
H       -0.73228334      -1.80758087       0.14351929
H       -1.77321640      -0.75820711       1.17340450
H       -1.17489815       2.03554731       0.04378655
H       -0.40442968       1.48868253      -1.48068219
12
Frame=4 idx=003325 GeodesicLength=0.3162854186575559 rxn_smarts="[C:1](#[C:2][C:3]1([H:8])[C:4]([H:9])([H:10])[O:5][C:6]1([H:11])[H:12])[H:7]>>[C:1](#[C:2][C:3]1=[C:4]([H:10])[O:5][C:6]1([H:11])[H:12])[H:7].[H:8][H:9]"
C        2.59240335      -0.02537998      -0.12379493
C        1.39516751      -0.03185751       0.02617124
C        0.01664468       0.11940691       0.20927009
C       -1.19130069      -0.64606380       0.28179034
O       -1.88460231       0.20217303      -0.64541264
C       -0.80672699       1.16413086      -0.52083809
H        3.65476624      -0.04025453      -0.19793587
H        0.31402158      -1.67289546       1.09633088
H       -0.75961408      -1.82575419       0.14214525
H       -1.78052096      -0.74812092       1.19261678
H       -1.14213624       2.04346186       0.03398496
H       -0.40810210       1.46115372      -1.49432801
12
Frame=5 idx=003325 GeodesicLength=0.395345542535408 rxn_smarts="[C:1](#[C:2][C:3]1([H:8])[C:4]([H:9])([H:10])[O:5][C:6]1([H:11])[H:12])[H:7]>>[C:1](#[C:2][C:3]1=[C:4]([H:10])[O:5][C:6]1([H:11])[H:12])[H:7].[H:8][H:9]"
C        2.59999695      -0.00717360      -0.11757467
C        1.40187159      -0.02937002       0.02016791
C        0.01870038       0.10327547       0.20777156
C       -1.20626488      -0.63497420       0.29609175
O       -1.89436175       0.21500902      -0.62671884
C       -0.79746811       1.15719581      -0.52260374
H        3.66316379      -0.00419029      -0.18135220
H        0.31037570      -1.70170818       1.05577369
H       -0.78740243      -1.84406206       0.14040502
H       -1.78671259      -0.73777488       1.21268169
H       -1.10906853       2.05059862       0.02328614
H       -0.41283013       1.43317432      -1.50792830
12
Frame=6 idx=003325 GeodesicLength=0.47438488663562284 rxn_smarts="[C:1](#[C:2][C:3]1([H:8])[C:4]([H:9])([H:10])[O:5][C:6]1([H:11])[H:12])[H:7]>>[C:1](#[C:2][C:3]1=[C:4]([H:10])[O:5][C:6]1([H:11])[H:12])[H:7].[H:8][H:9]"
C        2.60752866       0.01306737      -0.10880505
C        1.40885518      -0.02513943       0.01674040
C        0.02075399       0.08713745       0.20622086
C       -1.22046222      -0.62341105       0.31089908
O       -1.90336114       0.22767669      -0.60811122
C       -0.78835598       1.14993827      -0.52459677
H        3.67099234       0.02906240      -0.16755345
H        0.30591950      -1.73008723       1.01351445
H       -0.81512968      -1.86249471       0.13828261
H       -1.79238210      -0.72754287       1.23288771
H       -1.07645941       2.05686215       0.01155409
H       -0.41789913       1.40493095      -1.52103271
12
Frame=7 idx=003325 GeodesicLength=0.553436294835377 rxn_smarts="[C:1](#[C:2][C:3]1([H:8])[C:4]([H:9])([H:10])[O:5][C:6]1([H:11])[H:12])[H:7]>>[C:1](#[C:2][C:3]1=[C:4]([H:10])[O:5][C:6]1([H:11])[H:12])[H:7].[H:8][H:9]"
C        2.61490261       0.03367067      -0.10013121
C        1.41604796      -0.02056067       0.01362564
C        0.02303274       0.07048465       0.20376857
C       -1.23393313      -0.61113120       0.32671677
O       -1.91211890       0.24071119      -0.58847531
C       -0.77929473       1.14225209      -0.52694793
H        3.67856210       0.06268517      -0.15183665
H        0.30056794      -1.75857955       0.96837353
H       -0.84383757      -1.88108927       0.13592610
H       -1.79670646      -0.71679078       1.25432270
H       -1.04316706       2.06237090      -0.00116827
H       -0.42405549       1.37597679      -1.53417391
12
Frame=8 idx=003325 GeodesicLength=0.6325133953409611 rxn_smarts="[C:1](#[C:2][C:3]1([H:8])[C:4]([H:9])([H:10])[O:5][C:6]1([H:11])[H:12])[H:7]>>[C:1](#[C:2][C:3]1=[C:4]([H:10])[O:5][C:6]1([H:11])[H:12])[H:7].[H:8][H:9]"
C        2.62201269       0.05467837      -0.09259518
C        1.42338310      -0.01561729       0.01048776
C        0.02554916       0.05338641       0.20031277
C       -1.24649157      -0.59808651       0.34365658
O       -1.92064094       0.25409005      -0.56763072
C       -0.77042239       1.13415370      -0.52967450
H        3.68613069       0.09632166      -0.13282699
H        0.29430790      -1.78702308       0.92006018
H       -0.87348582      -1.89979863       0.13340273
H       -1.79938481      -0.70552789       1.27713836
H       -1.00935580       2.06710763      -0.01496150
H       -0.43160221       1.34631558      -1.54736949
12
Frame=9 idx=003325 GeodesicLength=0.7116164773275954 rxn_smarts="[C:1](#[C:2][C:3]1([H:8])[C:4]([H:9])([H:10])[O:5][C:6]1([H:11])[H:12])[H:7]>>[C:1](#[C:2][C:3]1=[C:4]([H:10])[O:5][C:6]1([H:11])[H:12])[H:7].[H:8][H:9]"
C        2.62903221       0.07728922      -0.08263868
C        1.43089055      -0.01012452       0.00825256
C        0.02826156       0.03594353       0.19627011
C       -1.25801750      -0.58435939       0.36152450
O       -1.92855080       0.26763763      -0.54606387
C       -0.76159608       1.12561193      -0.53276365
H        3.69301616       0.12895207      -0.11446337
H        0.28681892      -1.81522798       0.86883142
H       -0.90381992      -1.91864416       0.13063149
H       -1.80073761      -0.69401196       1.30083690
H       -0.97530817       2.07097966      -0.03001072
H       -0.43998932       1.31595398      -1.56040671
12
Frame=10 idx=003325 GeodesicLength=0.7907752256251241 rxn_smarts="[C:1](#[C:2][C:3]1([H:8])[C:4]([H:9])([H:10])[O:5][C:6]1([H:11])[H:12])[H:7]>>[C:1](#[C:2][C:3]1=[C:4]([H:10])[O:5][C:6]1([H:11])[H:12])[H:7].[H:8][H:9]"
C        2.63571042       0.09976798      -0.07528882
C        1.43848493      -0.00507517       0.00405321
C        0.03138435       0.01792843       0.19066393
C       -1.26817936      -0.56968175       0.38090307
O       -1.93630310       0.28176327      -0.52247974
C       -0.75306595       1.11661375      -0.53637175
H        3.69973020       0.16253456      -0.08930021
H        0.27812612      -1.84333218       0.81344787
H       -0.93543333      -1.93751970       0.12793190
H       -1.79940578      -0.68175202       1.32658904
H       -0.94040696       2.07405750      -0.04637754
H       -0.45064154       1.28469533      -1.57377097
12
Frame=11 idx=003325 GeodesicLength=0.8699646118088267 rxn_smarts="[C:1](#[C:2][C:3]1([H:8])[C:4]([H:9])([H:10])[O:5][C:6]1([H:11])[H:12])[H:7]>>[C:1](#[C:2][C:3]1=[C:4]([H:10])[O:5][C:6]1([H:11])[H:12])[H:7].[H:8][H:9]"
C        2.64211035       0.12271087      -0.06662772
C        1.44617283       0.00022489       0.00085274
C        0.03472537      -0.00028563       0.18487663
C       -1.27699732      -0.55429612       0.40120352
O       -1.94304947       0.29598426      -0.49835062
C       -0.74447597       1.10719787      -0.54022491
H        3.70558847       0.19612046      -0.06439909
H        0.26762318      -1.87077975       0.75535717
H       -0.96754778      -1.95649082       0.12510560
H       -1.79677191      -0.66940522       1.35296673
H       -0.90551864       2.07621648      -0.06409173
H       -0.46185909       1.25280273      -1.58666833
12
Frame=12 idx=003325 GeodesicLength=0.9492097270883982 rxn_smarts="[C:1](#[C:2][C:3]1([H:8])[C:4]([H:9])([H:10])[O:5][C:6]1([H:11])[H:12])[H:7]>>[C:1](#[C:2][C:3]1=[C:4]([H:10])[O:5][C:6]1([H:11])[H:12])[H:7].[H:8][H:9]"
C        2.64814568       0.14571171      -0.05994741
C        1.45391116       0.00541908      -0.00359372
C        0.03843510      -0.01860829       0.17828128
C       -1.28406090      -0.53806182       0.42276983
O       -1.94907662       0.31040547      -0.47284379
C       -0.73619635       1.09742022      -0.54445055
H        3.71075070       0.22946776      -0.03447687
H        0.25547736      -1.89727744       0.69389381
H       -1.00011072      -1.97546170       0.12236532
H       -1.79176303      -0.65682600       1.38065861
H       -0.87064270       2.07752224      -0.08324752
H       -0.47486968       1.22028877      -1.59940899
12
Frame=13 idx=003325 GeodesicLength=1.0284899946913983 rxn_smarts="[C:1](#[C:2][C:3]1([H:8])[C:4]([H:9])([H:10])[O:5][C:6]1([H:11])[H:12])[H:7]>>[C:1](#[C:2][C:3]1=[C:4]([H:10])[O:5][C:6]1([H:11])[H:12])[H:7].[H:8][H:9]"
C        2.65391987       0.16775112      -0.05257375
C        1.46170039       0.01030148      -0.00689454
C        0.04238192      -0.03697899       0.17221163
C       -1.28963819      -0.52114019       0.44511368
O       -1.95369261       0.32487017      -0.44717002
C       -0.72759732       1.08724986      -0.54870174
H        3.71466359       0.26444588      -0.00542128
H        0.24080942      -1.92261893       0.63048963
H       -1.03292325      -1.99454455       0.11940995
H       -1.78591422      -0.64443507       1.40847421
H       -0.83588980       2.07788363      -0.10366427
H       -0.48781979       1.18721560      -1.61127350
12
Frame=14 idx=003325 GeodesicLength=1.1078206612950643 rxn_smarts="[C:1](#[C:2][C:3]1([H:8])[C:4]([H:9])([H:10])[O:5][C:6]1([H:11])[H:12])[H:7]>>[C:1](#[C:2][C:3]1=[C:4]([H:10])[O:5][C:6]1([H:11])[H:12])[H:7].[H:8][H:9]"
C        2.65933127       0.19034111      -0.04649991
C        1.46949102       0.01557544      -0.01072696
C        0.04664768      -0.05486498       0.16627132
C       -1.29329589      -0.50351597       0.46838828
O       -1.95724476       0.33908093      -0.42087240
C       -0.71938002       1.07684701      -0.55312667
H        3.71775201       0.29737678       0.02655832
H        0.22434404      -1.94594394       0.56498476
H       -1.06513573      -2.01367798       0.11627262
H       -1.77838168      -0.63243830       1.43675413
H       -0.80211986       2.07743729      -0.12548940
H       -0.50200808       1.15378260      -1.62251408
12
Frame=15 idx=003325 GeodesicLength=1.1872055086304392 rxn_smarts="[C:1](#[C:2][C:3]1([H:8])[C:4]([H:9])([H:10])[O:5][C:6]1([H:11])[H:12])[H:7]>>[C:1](#[C:2][C:3]1=[C:4]([H:10])[O:5][C:6]1([H:11])[H:12])[H:7].[H:8][H:9]"
C        2.66450578       0.21230815      -0.04075674
C        1.47730488       0.02079555      -0.01396381
C        0.05118735      -0.07232408       0.16128159
C       -1.29530847      -0.48524788       0.49234839
O       -1.95942309       0.35306886      -0.39455598
C       -0.71108623       1.06616720      -0.55747197
H        3.71979717       0.33032810       0.05852447
H        0.20546726      -1.96714830       0.49836575
H       -1.09680759      -2.03296224       0.11258864
H       -1.77020124      -0.62106128       1.46486855
H       -0.76913653       2.07614183      -0.14851178
H       -0.51629931       1.11993409      -1.63271712
12
Frame=16 idx=003325 GeodesicLength=1.2666441008062999 rxn_smarts="[C:1](#[C:2][C:3]1([H:8])[C:4]([H:9])([H:10])[O:5][C:6]1([H:11])[H:12])[H:7]>>[C:1](#[C:2][C:3]1=[C:4]([H:10])[O:5][C:6]1([H:11])[H:12])[H:7].[H:8][H:9]"
C        2.66947877       0.23411318      -0.03542560
C        1.48515262       0.02619257      -0.01696102
C        0.05604498      -0.08915554       0.15732627
C       -1.29561002      -0.46633628       0.51697477
O       -1.96030533       0.36671666      -0.36822139
C       -0.70285237       1.05524877      -0.56173458
H        3.72075740       0.36218234       0.09075250
H        0.18436645      -1.98576534       0.43105515
H       -1.12756312      -2.05243743       0.10811128
H       -1.76139653      -0.61048599       1.49273745
H       -0.73720614       2.07404235      -0.17274101
H       -0.53086671       1.08568471      -1.64187381
