14
Frame=0 idx=000655 GeodesicLength=0.0 rxn_smarts="[O:1]([C@@:2]1([H:8])[C:3]([H:9])([H:10])[C@@:4]2([H:11])[C:5]([H:12])([H:13])[C@@:6]12[H:14])[H:7]>>[O:1]([C@@:2]1([H:8])[C:3]([H:9])([H:10])[C:4]([H:11])([H:12])[C@:6]1([C:5][H:13])[H:14])[H:7]"
O       -0.90647579       1.94310998       0.00907044
C       -0.77289736       0.68326053       0.58387199
C       -1.11265777      -0.54762859      -0.30617810
C        0.34577143      -1.02245054      -0.23466226
C        1.44274218       0.42039757      -0.52658009
C        0.67520421       0.16812086       0.69171099
H       -0.19767108       2.00377050      -0.64879283
H       -1.31798719       0.68717315       1.52737075
H       -1.48117053      -0.30850747      -1.30318321
H       -1.79340261      -1.24815153       0.17570377
H        0.67883578      -2.01568478       0.03887095
H        0.84539528      -0.71016467      -1.25272885
H        2.43184778      -0.04039929      -0.39801129
H        1.16246570      -0.01284567       1.64353768
14
Frame=1 idx=000655 GeodesicLength=0.05629213511297068 rxn_smarts="[O:1]([C@@:2]1([H:8])[C:3]([H:9])([H:10])[C@@:4]2([H:11])[C:5]([H:12])([H:13])[C@@:6]12[H:14])[H:7]>>[O:1]([C@@:2]1([H:8])[C:3]([H:9])([H:10])[C:4]([H:11])([H:12])[C@:6]1([C:5][H:13])[H:14])[H:7]"
O       -0.90799107       1.94372875       0.01053363
C       -0.77182216       0.68307997       0.58403479
C       -1.11185116      -0.54827557      -0.30465241
C        0.34678258      -1.02152715      -0.23613348
C        1.44303308       0.40962690      -0.52492568
C        0.67575902       0.16923165       0.69462587
H       -0.20421897       2.00474917      -0.65226098
H       -1.31641731       0.68599307       1.52780341
H       -1.47897763      -0.30783137      -1.30193399
H       -1.79422425      -1.24806786       0.17590403
H        0.67596592      -2.01425709       0.04424180
H        0.84705577      -0.70270087      -1.26941147
H        2.43508945      -0.04308634      -0.39518894
H        1.16181673      -0.01066325       1.64736341
14
Frame=2 idx=000655 GeodesicLength=0.11258167083215945 rxn_smarts="[O:1]([C@@:2]1([H:8])[C:3]([H:9])([H:10])[C@@:4]2([H:11])[C:5]([H:12])([H:13])[C@@:6]12[H:14])[H:7]>>[O:1]([C@@:2]1([H:8])[C:3]([H:9])([H:10])[C:4]([H:11])([H:12])[C@:6]1([C:5][H:13])[H:14])[H:7]"
O       -0.90951406       1.94431851       0.01200166
C       -0.77071927       0.68287581       0.58418800
C       -1.11101787      -0.54894262      -0.30314298
C        0.34776810      -1.02073389      -0.23747543
C        1.44332245       0.39873113      -0.52324099
C        0.67634509       0.17033887       0.69752136
H       -0.21084232       2.00573633      -0.65571548
H       -1.31482298       0.68478454       1.52822461
H       -1.47669434      -0.30718761      -1.30072382
H       -1.79510326      -1.24794168       0.17605198
H        0.67303844      -2.01289854       0.04977469
H        0.84874008      -0.69481878      -1.28617878
H        2.43828793      -0.04586322      -0.39246160
H        1.16121201      -0.00839885       1.65117678
14
Frame=3 idx=000655 GeodesicLength=0.16886569101578444 rxn_smarts="[O:1]([C@@:2]1([H:8])[C:3]([H:9])([H:10])[C@@:4]2([H:11])[C:5]([H:12])([H:13])[C@@:6]12[H:14])[H:7]>>[O:1]([C@@:2]1([H:8])[C:3]([H:9])([H:10])[C:4]([H:11])([H:12])[C@:6]1([C:5][H:13])[H:14])[H:7]"
O       -0.91104587       1.94487725       0.01347286
C       -0.76958853       0.68264671       0.58433025
C       -1.11015915      -0.54963106      -0.30165052
C        0.34872542      -1.02007863      -0.23868216
C        1.44360613       0.38770343      -0.52153022
C        0.67696319       0.17144208       0.70039428
H       -0.21753822       2.00673410      -0.65915198
H       -1.31320339       0.68354704       1.52863325
H       -1.47431857      -0.30657881      -1.29955469
H       -1.79604337      -1.24777160       0.17614610
H        0.67005031      -2.01161469       0.05547915
H        0.85045482      -0.68649685      -1.30302659
H        2.44144193      -0.04872978      -0.38983331
H        1.16065531      -0.00604920       1.65497360
14
Frame=4 idx=000655 GeodesicLength=0.225139424311399 rxn_smarts="[O:1]([C@@:2]1([H:8])[C:3]([H:9])([H:10])[C@@:4]2([H:11])[C:5]([H:12])([H:13])[C@@:6]12[H:14])[H:7]>>[O:1]([C@@:2]1([H:8])[C:3]([H:9])([H:10])[C:4]([H:11])([H:12])[C@:6]1([C:5][H:13])[H:14])[H:7]"
O       -0.91258734       1.94540302       0.01494493
C       -0.76842979       0.68239147       0.58446010
C       -1.10927676      -0.55034232      -0.30017533
C        0.34965087      -1.01957020      -0.23974826
C        1.44387954       0.37653643      -0.51979837
C        0.67761402       0.17254087       0.70324158
H       -0.22430369       2.00774408      -0.66256732
H       -1.31155775       0.68228073       1.52902832
H       -1.47184886      -0.30600782      -1.29842802
H       -1.79704838      -1.24755586       0.17618583
H        0.66699843      -2.01041254       0.06136230
H        0.85220901      -0.67771186      -1.31994812
H        2.44455028      -0.05168469      -0.38730812
H        1.16015042      -0.00361131       1.65875050
14
Frame=5 idx=000655 GeodesicLength=0.2813919419587959 rxn_smarts="[O:1]([C@@:2]1([H:8])[C:3]([H:9])([H:10])[C@@:4]2([H:11])[C:5]([H:12])([H:13])[C@@:6]12[H:14])[H:7]>>[O:1]([C@@:2]1([H:8])[C:3]([H:9])([H:10])[C:4]([H:11])([H:12])[C@:6]1([C:5][H:13])[H:14])[H:7]"
O       -0.91413840       1.94589663       0.01641391
C       -0.76724263       0.68210955       0.58457630
C       -1.10837416      -0.55107926      -0.29871820
C        0.35053804      -1.01922106      -0.24067068
C        1.44413707       0.36522399      -0.51805285
C        0.67829926       0.17363544       0.70606166
H       -0.23113512       2.00877097      -0.66596128
H       -1.30988425       0.68098626       1.52941053
H       -1.46928671      -0.30547880      -1.29734750
H       -1.79812334      -1.24729448       0.17617219
H        0.66387828      -2.00930560       0.06742820
H        0.85401637      -0.66843830      -1.33693075
H        2.44761199      -0.05472285      -0.38489070
H        1.15970361      -0.00108249       1.66250917
14
Frame=6 idx=000655 GeodesicLength=0.3376820141842942 rxn_smarts="[O:1]([C@@:2]1([H:8])[C:3]([H:9])([H:10])[C@@:4]2([H:11])[C:5]([H:12])([H:13])[C@@:6]12[H:14])[H:7]>>[O:1]([C@@:2]1([H:8])[C:3]([H:9])([H:10])[C:4]([H:11])([H:12])[C@:6]1([C:5][H:13])[H:14])[H:7]"
O       -0.91570318       1.94634743       0.01788372
C       -0.76602581       0.68179521       0.58467557
C       -1.10743921      -0.55184467      -0.29728255
C        0.35140568      -1.01901748      -0.24142826
C        1.44438675       0.35376129      -0.51627201
C        0.67901811       0.17472072       0.70884601
H       -0.23802705       2.00981106      -0.66931684
H       -1.30818461       0.67965607       1.52977251
H       -1.46661502      -0.30499674      -1.29631334
H       -1.79926017      -1.24699126       0.17609056
H        0.66068635      -2.00826100       0.07374089
H        0.85582914      -0.65863926      -1.35403170
H        2.45062096      -0.05787990      -0.38258679
H        1.15930805       0.00153854       1.66622223
14
Frame=7 idx=000655 GeodesicLength=0.3939117828127161 rxn_smarts="[O:1]([C@@:2]1([H:8])[C:3]([H:9])([H:10])[C@@:4]2([H:11])[C:5]([H:12])([H:13])[C@@:6]12[H:14])[H:7]>>[O:1]([C@@:2]1([H:8])[C:3]([H:9])([H:10])[C:4]([H:11])([H:12])[C@:6]1([C:5][H:13])[H:14])[H:7]"
O       -0.91727449       1.94676128       0.01934417
C       -0.76477901       0.68145267       0.58475798
C       -1.10648977      -0.55263756      -0.29586231
C        0.35222225      -1.01899999      -0.24204143
C        1.44461290       0.34213182      -0.51449576
C        0.67977403       0.17580111       0.71159692
H       -0.24498845       2.01085851      -0.67266248
H       -1.30645450       0.67829978       1.53011864
H       -1.46385244      -0.30455952      -1.29532183
H       -1.80047479      -1.24663521       0.17596212
H        0.65741455      -2.00733870       0.08023514
H        0.85772769      -0.64827760      -1.37115181
H        2.45358578      -0.06111234      -0.38039861
H        1.15897626       0.00425575       1.66991928
14
Frame=8 idx=000655 GeodesicLength=0.4501321420854901 rxn_smarts="[O:1]([C@@:2]1([H:8])[C:3]([H:9])([H:10])[C@@:4]2([H:11])[C:5]([H:12])([H:13])[C@@:6]12[H:14])[H:7]>>[O:1]([C@@:2]1([H:8])[C:3]([H:9])([H:10])[C:4]([H:11])([H:12])[C@:6]1([C:5][H:13])[H:14])[H:7]"
O       -0.91886162       1.94713324       0.02080478
C       -0.76350056       0.68107436       0.58482085
C       -1.10551177      -0.55346173      -0.29446697
C        0.35300923      -1.01914284      -0.24248585
C        1.44481949       0.33034223      -0.51269257
C        0.68056864       0.17686974       0.71430580
H       -0.25201513       2.01192471      -0.67597120
H       -1.30469072       0.67690133       1.53044469
H       -1.46097816      -0.30417406      -1.29438436
H       -1.80175654      -1.24623138       0.17576221
H        0.65405507      -2.00648497       0.08700102
H        0.85965958      -0.63735567      -1.38836957
H        2.45649248      -0.06445973      -0.37833184
H        1.15871001       0.00706477       1.67356302
14
Frame=9 idx=000655 GeodesicLength=0.5063523404332994 rxn_smarts="[O:1]([C@@:2]1([H:8])[C:3]([H:9])([H:10])[C@@:4]2([H:11])[C:5]([H:12])([H:13])[C@@:6]12[H:14])[H:7]>>[O:1]([C@@:2]1([H:8])[C:3]([H:9])([H:10])[C:4]([H:11])([H:12])[C@:6]1([C:5][H:13])[H:14])[H:7]"
O       -0.92045551       1.94745994       0.02225450
C       -0.76218929       0.68066226       0.58486438
C       -1.10451695      -0.55431995      -0.29308903
C        0.35375256      -1.01947846      -0.24276310
C        1.44500306       0.31836364      -0.51088647
C        0.68140164       0.17792886       0.71697234
H       -0.25910886       2.01299240      -0.67926619
H       -1.30288920       0.67547371       1.53075542
H       -1.45799877      -0.30384356      -1.29349658
H       -1.80312388      -1.24577851       0.17550683
H        0.65060878      -2.00574567       0.09399891
H        0.86165850      -0.62578868      -1.40563870
H        2.45934926      -0.06790821      -0.37638357
H        1.15850866       0.00998225       1.67717125
14
Frame=10 idx=000655 GeodesicLength=0.5625689008331121 rxn_smarts="[O:1]([C@@:2]1([H:8])[C:3]([H:9])([H:10])[C@@:4]2([H:11])[C:5]([H:12])([H:13])[C@@:6]12[H:14])[H:7]>>[O:1]([C@@:2]1([H:8])[C:3]([H:9])([H:10])[C:4]([H:11])([H:12])[C@:6]1([C:5][H:13])[H:14])[H:7]"
O       -0.92205880       1.94774072       0.02369384
C       -0.76084415       0.68021283       0.58488630
C       -1.10350413      -0.55521517      -0.29173187
C        0.35445122      -1.02000914      -0.24286660
C        1.44516118       0.30619267      -0.50907356
C        0.68227686       0.17897475       0.71959182
H       -0.26627246       2.01406580      -0.68254571
H       -1.30104713       0.67401031       1.53104874
H       -1.45491111      -0.30357287      -1.29266258
H       -1.80457643      -1.24527619       0.17518810
H        0.64706448      -2.00511272       0.10126339
H        0.86372611      -0.61354876      -1.42296477
H        2.46215235      -0.07146869      -0.37456042
H        1.15838201       0.01300647       1.68073332
14
Frame=11 idx=000655 GeodesicLength=0.618740670584737 rxn_smarts="[O:1]([C@@:2]1([H:8])[C:3]([H:9])([H:10])[C@@:4]2([H:11])[C:5]([H:12])([H:13])[C@@:6]12[H:14])[H:7]>>[O:1]([C@@:2]1([H:8])[C:3]([H:9])([H:10])[C:4]([H:11])([H:12])[C@:6]1([C:5][H:13])[H:14])[H:7]"
O       -0.92367248       1.94796923       0.02512341
C       -0.75946414       0.67972248       0.58488443
C       -1.10247001      -0.55614800      -0.29039730
C        0.35510026      -1.02074280      -0.24279564
C        1.44528809       0.29382089      -0.50726022
C        0.68319510       0.18000581       0.72215775
H       -0.27350793       2.01514003      -0.68580871
H       -1.29916239       0.67250710       1.53132251
H       -1.45170550      -0.30336536      -1.29188250
H       -1.80611069      -1.24471703       0.17480159
H        0.64340903      -2.00458568       0.10881304
H        0.86587119      -0.60060139      -1.44032525
H        2.46489563      -0.07514658      -0.37287519
H        1.15833384       0.01614131       1.68424206
14
Frame=12 idx=000655 GeodesicLength=0.6749133138936895 rxn_smarts="[O:1]([C@@:2]1([H:8])[C:3]([H:9])([H:10])[C@@:4]2([H:11])[C:5]([H:12])([H:13])[C@@:6]12[H:14])[H:7]>>[O:1]([C@@:2]1([H:8])[C:3]([H:9])([H:10])[C:4]([H:11])([H:12])[C@:6]1([C:5][H:13])[H:14])[H:7]"
O       -0.92529281       1.94814414       0.02654072
C       -0.75804681       0.67918915       0.58485857
C       -1.10141986      -0.55712188      -0.28908444
C        0.35569812      -1.02169291      -0.24253803
C        1.44538160       0.28122943      -0.50544970
C        0.68415978       0.18102022       0.72466627
H       -0.28082161       2.01620806      -0.68906567
H       -1.29723019       0.67096310       1.53157822
H       -1.44838126      -0.30322443      -1.29116061
H       -1.80774123      -1.24410234       0.17434616
H        0.63963866      -2.00417418       0.11666496
H        0.86810441      -0.58688392      -1.45772110
H        2.46757906      -0.07894869      -0.37132708
H        1.15837214       0.01939423       1.68769173
14
Frame=13 idx=000655 GeodesicLength=0.7310915782805346 rxn_smarts="[O:1]([C@@:2]1([H:8])[C:3]([H:9])([H:10])[C@@:4]2([H:11])[C:5]([H:12])([H:13])[C@@:6]12[H:14])[H:7]>>[O:1]([C@@:2]1([H:8])[C:3]([H:9])([H:10])[C:4]([H:11])([H:12])[C@:6]1([C:5][H:13])[H:14])[H:7]"
O       -0.92691965       1.94826053       0.02794288
C       -0.75658941       0.67860931       0.58480706
C       -1.10035348      -0.55814040      -0.28779408
C        0.35624230      -1.02286915      -0.24208767
C        1.44543997       0.26840163      -0.50364497
C        0.68517373       0.18201418       0.72711142
H       -0.28821766       2.01726312      -0.69232225
H       -1.29524479       0.66937656       1.53181588
H       -1.44493375      -0.30315358      -1.29049795
H       -1.80947130      -1.24343132       0.17381776
H        0.63574367      -2.00387836       0.12484257
H        0.87042856      -0.57233890      -1.47514583
H        2.47020096      -0.08288482      -0.36991962
H        1.15850085       0.02277121       1.69107479
14
Frame=14 idx=000655 GeodesicLength=0.787263598509699 rxn_smarts="[O:1]([C@@:2]1([H:8])[C:3]([H:9])([H:10])[C@@:4]2([H:11])[C:5]([H:12])([H:13])[C@@:6]12[H:14])[H:7]>>[O:1]([C@@:2]1([H:8])[C:3]([H:9])([H:10])[C:4]([H:11])([H:12])[C@:6]1([C:5][H:13])[H:14])[H:7]"
O       -0.92855440       1.94831750       0.02933035
C       -0.75509032       0.67797974       0.58472811
C       -1.09927391      -0.55920654      -0.28652933
C        0.35672729      -1.02428693      -0.24143840
C        1.44545993       0.25532362      -0.50185348
C        0.68624236       0.18298472       0.72948653
H       -0.29570658       2.01830395      -0.69558493
H       -1.29320027       0.66774071       1.53203638
H       -1.44135690      -0.30315504      -1.28990071
H       -1.81131111      -1.24270037       0.17320997
H        0.63170943      -2.00370730       0.13337178
H        0.87285882      -0.55691489      -1.49257799
H        2.47276153      -0.08696028      -0.36866297
H        1.15873414       0.02628111       1.69438470
14
Frame=15 idx=000655 GeodesicLength=0.8434405135082228 rxn_smarts="[O:1]([C@@:2]1([H:8])[C:3]([H:9])([H:10])[C@@:4]2([H:11])[C:5]([H:12])([H:13])[C@@:6]12[H:14])[H:7]>>[O:1]([C@@:2]1([H:8])[C:3]([H:9])([H:10])[C:4]([H:11])([H:12])[C@:6]1([C:5][H:13])[H:14])[H:7]"
O       -0.93019667       1.94830441       0.03069974
C       -0.75354616       0.67729404       0.58461941
C       -1.09817783      -0.56032444      -0.28529134
C        0.35715094      -1.02595721      -0.24058204
C        1.44543541       0.24197396      -0.50008019
C        0.68736698       0.18392944       0.73178321
H       -0.30328834       2.01932048      -0.69885372
H       -1.29108848       0.66605191       1.53223955
H       -1.43763886      -0.30323764      -1.28937238
H       -1.81326235      -1.24190493       0.17251762
H        0.62752117      -2.00365902       0.14227966
H        0.87539911      -0.54053762      -1.51000361
H        2.47524992      -0.09119263      -0.36756698
H        1.15907514       0.02993925       1.69761108
14
Frame=16 idx=000655 GeodesicLength=0.8996121212792402 rxn_smarts="[O:1]([C@@:2]1([H:8])[C:3]([H:9])([H:10])[C@@:4]2([H:11])[C:5]([H:12])([H:13])[C@@:6]12[H:14])[H:7]>>[O:1]([C@@:2]1([H:8])[C:3]([H:9])([H:10])[C:4]([H:11])([H:12])[C@:6]1([C:5][H:13])[H:14])[H:7]"
O       -0.93184402       1.94821401       0.03205566
C       -0.75195690       0.67654849       0.58447831
C       -1.09706453      -0.56149435      -0.28408138
C        0.35750316      -1.02789180      -0.23950716
C        1.44535206       0.22833543      -0.49833705
C        0.68854568       0.18484740       0.73399017
H       -0.31096418       2.02030835      -0.70212455
H       -1.28890516       0.66430738       1.53242490
H       -1.43376382      -0.30341095      -1.28891636
H       -1.81532674      -1.24103453       0.17173714
H        0.62316926      -2.00373135       0.15158711
H        0.87807709      -0.52316321      -1.52739367
H        2.47765155      -0.09558636      -0.36665081
H        1.15952655       0.03375149       1.70073767
