15
Frame=0 idx=007148 GeodesicLength=0.0 rxn_smarts="[O:1]([C:2]1([C:3]([C:4](=[O:5])[H:11])([H:9])[H:10])[C:6]([H:12])([H:13])[C:7]1([H:14])[H:15])[H:8]>>[O:1]([C:2]1(/[C:3](=[C:4](\[O:5][H:8])[H:11])[H:9])[C:6]([H:12])([H:13])[C:7]1([H:14])[H:15])[H:10]"
O        0.26016672      -0.85801300      -1.25583250
C       -0.33523935      -0.20258667      -0.06417937
C        0.82682611      -0.33205664       0.85103587
C        1.97434049       0.37422779       0.40736815
O        2.10123043       0.81426774      -0.75208109
C       -1.76781755      -0.44391985       0.19493474
C       -1.29162697       0.90575498      -0.30091993
H        0.93801627      -0.14453574      -1.50054049
H        0.70812404      -0.59593383       1.89278476
H        0.92549949      -1.27564242      -0.36118717
H        2.82285334       0.46808440       1.10374180
H       -2.07389703      -0.54510905       1.22795482
H       -2.30304424      -1.06795719      -0.50818311
H       -1.52560879       1.16628453      -1.32437680
H       -1.25982300       1.73713501       0.38948026
15
Frame=1 idx=007148 GeodesicLength=0.08573228686956157 rxn_smarts="[O:1]([C:2]1([C:3]([C:4](=[O:5])[H:11])([H:9])[H:10])[C:6]([H:12])([H:13])[C:7]1([H:14])[H:15])[H:8]>>[O:1]([C:2]1(/[C:3](=[C:4](\[O:5][H:8])[H:11])[H:9])[C:6]([H:12])([H:13])[C:7]1([H:14])[H:15])[H:10]"
O        0.25676536      -0.85207454      -1.26162602
C       -0.33598416      -0.20131830      -0.07150394
C        0.82542929      -0.33237623       0.84653145
C        1.97378122       0.37779305       0.40885743
O        2.10898831       0.80388904      -0.75735702
C       -1.76706608      -0.44727393       0.19443113
C       -1.29630233       0.90590524      -0.29589480
H        0.95743413      -0.13615714      -1.50212249
H        0.69158852      -0.56144273       1.89489513
H        0.92204587      -1.29362725      -0.35852377
H        2.82595445       0.45847230       1.10171972
H       -2.06690496      -0.55532873       1.22862196
H       -2.30271366      -1.06953705      -0.50994706
H       -1.53243212       1.17026916      -1.31788358
H       -1.26058383       1.73280709       0.39980189
15
Frame=2 idx=007148 GeodesicLength=0.17143218272167687 rxn_smarts="[O:1]([C:2]1([C:3]([C:4](=[O:5])[H:11])([H:9])[H:10])[C:6]([H:12])([H:13])[C:7]1([H:14])[H:15])[H:8]>>[O:1]([C:2]1(/[C:3](=[C:4](\[O:5][H:8])[H:11])[H:9])[C:6]([H:12])([H:13])[C:7]1([H:14])[H:15])[H:10]"
O        0.25326626      -0.84636030      -1.26728406
C       -0.33671918      -0.19994244      -0.07880884
C        0.82403203      -0.33271003       0.84208962
C        1.97322787       0.38133387       0.41037165
O        2.11672374       0.79368180      -0.76229981
C       -1.76626269      -0.45048149       0.19404812
C       -1.30089823       0.90607087      -0.29093175
H        0.97683474      -0.12787033      -1.50371669
H        0.67560454      -0.52796009       1.89560968
H        0.91831634      -1.31176104      -0.35553307
H        2.82849086       0.44956121       1.10012922
H       -2.05979201      -0.56522278       1.22936564
H       -2.30241755      -1.07103647      -0.51146007
H       -1.53925492       1.17412346      -1.31145223
H       -1.26115180       1.72857377       0.40987260
15
Frame=3 idx=007148 GeodesicLength=0.2571077524105433 rxn_smarts="[O:1]([C:2]1([C:3]([C:4](=[O:5])[H:11])([H:9])[H:10])[C:6]([H:12])([H:13])[C:7]1([H:14])[H:15])[H:8]>>[O:1]([C:2]1(/[C:3](=[C:4](\[O:5][H:8])[H:11])[H:9])[C:6]([H:12])([H:13])[C:7]1([H:14])[H:15])[H:10]"
O        0.24966515      -0.84086942      -1.27281507
C       -0.33744780      -0.19845961      -0.08610315
C        0.82263129      -0.33303609       0.83769537
C        1.97268572       0.38484851       0.41190240
O        2.12444261       0.78366424      -0.76692188
C       -1.76540862      -0.45354528       0.19377977
C       -1.30541979       0.90625242      -0.28603935
H        0.99622081      -0.11962856      -1.50534277
H        0.66016925      -0.49553894       1.89503527
H        0.91430011      -1.33004964      -0.35218327
H        2.83050274       0.44133074       1.09894542
H       -2.05256051      -0.57479231       1.23018157
H       -2.30215642      -1.07246101      -0.51272698
H       -1.54608606       1.17784678      -1.30509177
H       -1.26153849       1.72443816       0.41968442
15
Frame=4 idx=007148 GeodesicLength=0.34277416142356626 rxn_smarts="[O:1]([C:2]1([C:3]([C:4](=[O:5])[H:11])([H:9])[H:10])[C:6]([H:12])([H:13])[C:7]1([H:14])[H:15])[H:8]>>[O:1]([C:2]1(/[C:3](=[C:4](\[O:5][H:8])[H:11])[H:9])[C:6]([H:12])([H:13])[C:7]1([H:14])[H:15])[H:10]"
O        0.24595758      -0.83560421      -1.27823024
C       -0.33817286      -0.19687296      -0.09339605
C        0.82122530      -0.33333896       0.83333354
C        1.97215969       0.38833417       0.41344017
O        2.13214903       0.77385532      -0.77123383
C       -1.76450483      -0.45646877       0.19362088
C       -1.30987033       0.90644942      -0.28122512
H        1.01559460      -0.11138001      -1.50702020
H        0.64527749      -0.46421621       1.89327132
H        0.90998683      -1.34850396      -0.34844416
H        2.83202535       0.43375942       1.09814810
H       -2.04521246      -0.58403840       1.23106629
H       -2.30193190      -1.07381592      -0.51375165
H       -1.55293272       1.18143848      -1.29880975
H       -1.26175076       1.72040258       0.42923069
15
Frame=5 idx=007148 GeodesicLength=0.42846075529456434 rxn_smarts="[O:1]([C:2]1([C:3]([C:4](=[O:5])[H:11])([H:9])[H:10])[C:6]([H:12])([H:13])[C:7]1([H:14])[H:15])[H:8]>>[O:1]([C:2]1(/[C:3](=[C:4](\[O:5][H:8])[H:11])[H:9])[C:6]([H:12])([H:13])[C:7]1([H:14])[H:15])[H:10]"
O        0.24213801      -0.83056844      -1.28354142
C       -0.33889665      -0.19518803      -0.10069658
C        0.81981268      -0.33360617       0.82898962
C        1.97165348       0.39178801       0.41497708
O        2.13984757       0.76427500      -0.77524517
C       -1.76355200      -0.45925699       0.19356603
C       -1.31425209       0.90666001      -0.27649647
H        1.03495741      -0.10306292      -1.50876875
H        0.63091979      -0.43401085       1.89041282
H        0.90536658      -1.36713481      -0.34428077
H        2.83309788       0.42681288       1.09771391
H       -2.03775087      -0.59296412       1.23201703
H       -2.30174503      -1.07510800      -0.51453872
H       -1.55980099       1.18489664      -1.29261382
H       -1.26179576       1.71646777       0.43850521
15
Frame=6 idx=007148 GeodesicLength=0.5141575858658619 rxn_smarts="[O:1]([C:2]1([C:3]([C:4](=[O:5])[H:11])([H:9])[H:10])[C:6]([H:12])([H:13])[C:7]1([H:14])[H:15])[H:8]>>[O:1]([C:2]1(/[C:3](=[C:4](\[O:5][H:8])[H:11])[H:9])[C:6]([H:12])([H:13])[C:7]1([H:14])[H:15])[H:10]"
O        0.23820587      -0.82576080      -1.28875846
C       -0.33962205      -0.19341204      -0.10801293
C        0.81839307      -0.33382697       0.82464900
C        1.97116492       0.39521939       0.41651040
O        2.14753762       0.75495647      -0.77896461
C       -1.76255142      -0.46192034       0.19360573
C       -1.31857032       0.90687888      -0.27185946
H        1.05431038      -0.09461853      -1.51060635
H        0.61707086      -0.40489360       1.88657648
H        0.90043121      -1.38594511      -0.33966099
H        2.83378819       0.42040514       1.09760050
H       -2.03018119      -0.60158153       1.23302479
H       -2.30159481      -1.07634776      -0.51509927
H       -1.56669773       1.18821824      -1.28650923
H       -1.26168461       1.71262856       0.44750440
15
Frame=7 idx=007148 GeodesicLength=0.5998644210911812 rxn_smarts="[O:1]([C:2]1([C:3]([C:4](=[O:5])[H:11])([H:9])[H:10])[C:6]([H:12])([H:13])[C:7]1([H:14])[H:15])[H:8]>>[O:1]([C:2]1(/[C:3](=[C:4](\[O:5][H:8])[H:11])[H:9])[C:6]([H:12])([H:13])[C:7]1([H:14])[H:15])[H:10]"
O        0.23415352      -0.82119005      -1.29389316
C       -0.34035066      -0.19155342      -0.11535197
C        0.81696770      -0.33400048       0.82029826
C        1.97069712       0.39862468       0.41803334
O        2.15521995       0.74591589      -0.78239923
C       -1.76150331      -0.46446204       0.19373705
C       -1.32282239       0.90710442      -0.26731856
H        1.07365580      -0.08599478      -1.51254769
H        0.60372340      -0.37687487       1.88183131
H        0.89517286      -1.40494979      -0.33456402
H        2.83411221       0.41452122       1.09779638
H       -2.02250487      -0.60989085       1.23408885
H       -2.30148433      -1.07753802      -0.51543518
H       -1.57362306       1.19140262      -1.28050050
H       -1.26141395       1.70888547       0.45622511
15
Frame=8 idx=007148 GeodesicLength=0.6855923899845145 rxn_smarts="[O:1]([C:2]1([C:3]([C:4](=[O:5])[H:11])([H:9])[H:10])[C:6]([H:12])([H:13])[C:7]1([H:14])[H:15])[H:8]>>[O:1]([C:2]1(/[C:3](=[C:4](\[O:5][H:8])[H:11])[H:9])[C:6]([H:12])([H:13])[C:7]1([H:14])[H:15])[H:10]"
O        0.22997669      -0.81686214      -1.29895681
C       -0.34108377      -0.18962327      -0.12272109
C        0.81553802      -0.33412535       0.81592442
C        1.97025179       0.40200025       0.41954106
O        2.16289316       0.73718263      -0.78555394
C       -1.76040796      -0.46689051       0.19395344
C       -1.32700767       0.90733046      -0.26287856
H        1.09299362      -0.07712227      -1.51461024
H        0.59085795      -0.34992425       1.87626159
H        0.88957884      -1.42416158      -0.32895486
H        2.83411235       0.40910224       1.09827276
H       -2.01472538      -0.61789976       1.23520350
H       -2.30141487      -1.07868608      -0.51555371
H       -1.58057831       1.19444608      -1.27459188
H       -1.26098446       1.70523355       0.46466431
15
Frame=9 idx=007148 GeodesicLength=0.7713292429942628 rxn_smarts="[O:1]([C:2]1([C:3]([C:4](=[O:5])[H:11])([H:9])[H:10])[C:6]([H:12])([H:13])[C:7]1([H:14])[H:15])[H:8]>>[O:1]([C:2]1(/[C:3](=[C:4](\[O:5][H:8])[H:11])[H:9])[C:6]([H:12])([H:13])[C:7]1([H:14])[H:15])[H:10]"
O        0.22567061      -0.81277829      -1.30396688
C       -0.34182160      -0.18764272      -0.13012747
C        0.81410693      -0.33421420       0.81151302
C        1.96982282       0.40535119       0.42104317
O        2.17055434       0.72879886      -0.78842680
C       -1.75926501      -0.46922216       0.19425095
C       -1.33112850       0.90754462      -0.25854090
H        1.11233324      -0.06793237      -1.51680269
H        0.57841971      -0.32390682       1.86995305
H        0.88364895      -1.44357820      -0.32283826
H        2.83385809       0.40401390       1.09899410
H       -2.00684269      -0.62562871       1.23636783
H       -2.30138680      -1.07980609      -0.51545771
H       -1.58756929       1.19734072      -1.26878112
H       -1.26040081       1.70166027       0.47281970
15
Frame=10 idx=007148 GeodesicLength=0.8570671633314071 rxn_smarts="[O:1]([C:2]1([C:3]([C:4](=[O:5])[H:11])([H:9])[H:10])[C:6]([H:12])([H:13])[C:7]1([H:14])[H:15])[H:8]>>[O:1]([C:2]1(/[C:3](=[C:4](\[O:5][H:8])[H:11])[H:9])[C:6]([H:12])([H:13])[C:7]1([H:14])[H:15])[H:10]"
O        0.22122792      -0.80895035      -1.30892956
C       -0.34256622      -0.18561602      -0.13757689
C        0.81267809      -0.33426562       0.80704870
C        1.96941489       0.40867150       0.42252639
O        2.17820766       0.72077210      -0.79103385
C       -1.75807597      -0.47145432       0.19462323
C       -1.33517654       0.90774883      -0.25431161
H        1.13166723      -0.05837307      -1.51914732
H        0.56642235      -0.29890456       1.86297067
H        0.87736481      -1.46322541      -0.31615153
H        2.83334317       0.39929995       1.09994768
H       -1.99886429      -0.63306878       1.23757525
H       -2.30140499      -1.08089381      -0.51515491
H       -1.59458760       1.20009004      -1.26307554
H       -1.25965051       1.69816950       0.48068927
15
Frame=11 idx=007148 GeodesicLength=0.9428114237432127 rxn_smarts="[O:1]([C:2]1([C:3]([C:4](=[O:5])[H:11])([H:9])[H:10])[C:6]([H:12])([H:13])[C:7]1([H:14])[H:15])[H:8]>>[O:1]([C:2]1(/[C:3](=[C:4](\[O:5][H:8])[H:11])[H:9])[C:6]([H:12])([H:13])[C:7]1([H:14])[H:15])[H:10]"
O        0.21664267      -0.80538736      -1.31385531
C       -0.34331883      -0.18355719      -0.14507563
C        0.81125481      -0.33428833       0.80251670
C        1.96902480       0.41196313       0.42399160
O        2.18585751       0.71312443      -0.79338241
C       -1.75684148      -0.47359463       0.19506592
C       -1.33914917       0.90793720      -0.25019530
H        1.15099403      -0.04836779      -1.52165857
H        0.55484268      -0.27488074       1.85538286
H        0.87071856      -1.48311606      -0.30886274
H        2.83260245       0.39490344       1.10110930
H       -1.99079436      -0.64022531       1.23882332
H       -2.30147213      -1.08195601      -0.51464848
H       -1.60163250       1.20268853      -1.25747946
H       -1.25872902       1.69475670       0.48826818
15
Frame=12 idx=007148 GeodesicLength=1.0285522187391547 rxn_smarts="[O:1]([C:2]1([C:3]([C:4](=[O:5])[H:11])([H:9])[H:10])[C:6]([H:12])([H:13])[C:7]1([H:14])[H:15])[H:8]>>[O:1]([C:2]1(/[C:3](=[C:4](\[O:5][H:8])[H:11])[H:9])[C:6]([H:12])([H:13])[C:7]1([H:14])[H:15])[H:10]"
O        0.21190675      -0.80210059      -1.31875519
C       -0.34408018      -0.18148078      -0.15262928
C        0.80984132      -0.33429349       0.79790342
C        1.96865159       0.41522257       0.42543801
O        2.19350698       0.70587500      -0.79547831
C       -1.75556151      -0.47564832       0.19557642
C       -1.34304036       0.90810427      -0.24619594
H        1.17031274      -0.03784822      -1.52434870
H        0.54366493      -0.25181346       1.84723929
H        0.86369844      -1.50326573      -0.30094351
H        2.83165282       0.39079362       1.10246506
H       -1.98263557      -0.64709967       1.24011154
H       -2.30159184      -1.08299653      -0.51393937
H       -1.60869993       1.20513298      -1.25199564
H       -1.25762619       1.69141834       0.49555221
15
Frame=13 idx=007148 GeodesicLength=1.1142898496614195 rxn_smarts="[O:1]([C:2]1([C:3]([C:4](=[O:5])[H:11])([H:9])[H:10])[C:6]([H:12])([H:13])[C:7]1([H:14])[H:15])[H:8]>>[O:1]([C:2]1(/[C:3](=[C:4](\[O:5][H:8])[H:11])[H:9])[C:6]([H:12])([H:13])[C:7]1([H:14])[H:15])[H:10]"
O        0.20701383      -0.79910059      -1.32364035
C       -0.34485112      -0.17940317      -0.16024390
C        0.80844200      -0.33429222       0.79319395
C        1.96829100       0.41845325       0.42686755
O        2.20116296       0.69904338      -0.79733086
C       -1.75423734      -0.47762277       0.19615015
C       -1.34684549       0.90824326      -0.24231831
H        1.18962024      -0.02673384      -1.52723258
H        0.53286912      -0.22967132       1.83859767
H        0.85629257      -1.52368587      -0.29234957
H        2.83052418       0.38691916       1.10399142
H       -1.97439350      -0.65369693       1.24143706
H       -2.30176824      -1.08402074      -0.51303111
H       -1.61578610       1.20741889      -1.24662764
H       -1.25633410       1.68814951       0.50253651
15
Frame=14 idx=007148 GeodesicLength=1.200012870981152 rxn_smarts="[O:1]([C:2]1([C:3]([C:4](=[O:5])[H:11])([H:9])[H:10])[C:6]([H:12])([H:13])[C:7]1([H:14])[H:15])[H:8]>>[O:1]([C:2]1(/[C:3](=[C:4](\[O:5][H:8])[H:11])[H:9])[C:6]([H:12])([H:13])[C:7]1([H:14])[H:15])[H:10]"
O        0.20195403      -0.79640048      -1.32852127
C       -0.34563241      -0.17734007      -0.16792460
C        0.80706195      -0.33429810       0.78837503
C        1.96794094       0.42165154       0.42827934
O        2.20883304       0.69263986      -0.79894672
C       -1.75286960      -0.47952235       0.19678530
C       -1.35055721       0.90834933      -0.23856538
H        1.20891421      -0.01495158      -1.53032043
H        0.52244128      -0.20843704       1.82949488
H        0.84848818      -1.54439378      -0.28305146
H        2.82922638       0.38326168       1.10567961
H       -1.96607059      -0.66001812       1.24279985
H       -2.30200672      -1.08503011      -0.51192351
H       -1.62288483       1.20954278      -1.24137763
H       -1.25483867       1.68494643       0.50921699
15
Frame=15 idx=007148 GeodesicLength=1.2857186745735751 rxn_smarts="[O:1]([C:2]1([C:3]([C:4](=[O:5])[H:11])([H:9])[H:10])[C:6]([H:12])([H:13])[C:7]1([H:14])[H:15])[H:8]>>[O:1]([C:2]1(/[C:3](=[C:4](\[O:5][H:8])[H:11])[H:9])[C:6]([H:12])([H:13])[C:7]1([H:14])[H:15])[H:10]"
O        0.19671747      -0.79401623      -1.33340698
C       -0.34642497      -0.17530918      -0.17567657
C        0.80570665      -0.33432617       0.78343192
C        1.96759703       0.42481826       0.42967484
O        2.21652623       0.68667632      -0.80033493
C       -1.75145980      -0.48135166       0.19747928
C       -1.35416806       0.90841672      -0.23494145
H        1.22819188      -0.00241973      -1.53362372
H        0.51236695      -0.18809339       1.81997110
H        0.84027243      -1.56540363      -0.27301080
H        2.82777359       0.37979404       1.10751567
H       -1.95767153      -0.66606477       1.24419948
H       -2.30231376      -1.08602635      -0.51061701
H       -1.62998854       1.21150085      -1.23624887
H       -1.25312557       1.68180493       0.51558803
15
Frame=16 idx=007148 GeodesicLength=1.3713997449980524 rxn_smarts="[O:1]([C:2]1([C:3]([C:4](=[O:5])[H:11])([H:9])[H:10])[C:6]([H:12])([H:13])[C:7]1([H:14])[H:15])[H:8]>>[O:1]([C:2]1(/[C:3](=[C:4](\[O:5][H:8])[H:11])[H:9])[C:6]([H:12])([H:13])[C:7]1([H:14])[H:15])[H:10]"
O        0.19129587      -0.79196312      -1.33830779
C       -0.34722949      -0.17332836      -0.18350493
C        0.80438181      -0.33439062       0.77835089
C        1.96725610       0.42795131       0.43105333
O        2.22425387       0.68115817      -0.80150491
C       -1.75000937      -0.48311507       0.19822961
C       -1.35766963       0.90844049      -0.23145069
H        1.24744640       0.01094956      -1.53715311
H        0.50263545      -0.16863160       1.81005620
H        0.83162801      -1.58673104      -0.26218055
H        2.82617555       0.37649823       1.10948904
H       -1.94920097      -0.67183793       1.24563557
H       -2.30269552      -1.08701133      -0.50911195
H       -1.63708870       1.21328979      -1.23124469
H       -1.25117938       1.67872152       0.52164396
