11
Frame=0 idx=011759 GeodesicLength=0.0 rxn_smarts="[C:1](#[C:2][c:3]1[c:4]([H:9])[c:5]([H:10])[n:6][n:7]1[H:11])[H:8]>>[C:1](#[C:2][C@@:4]1([H:9])[C:3][N:7]([H:11])[N:6]=[C:5]1[H:10])[H:8]"
C        2.21155441      -0.35781817      -0.52709325
C        1.14507613      -0.38012206       0.03965892
C        0.04849151       0.07199690       1.22307321
C       -0.38118626      -0.85416746       0.18334939
C       -1.34262472      -0.12830538      -0.63671319
N       -1.46169637       1.08523755      -0.21041799
N       -0.61962012       1.19543962       0.84334138
H        3.17454899      -0.32224031      -0.97990919
H       -0.33796880      -1.93016934       0.27858073
H       -1.91535950      -0.48015889      -1.48078816
H       -0.52121523       2.10030759       1.26691814
11
Frame=1 idx=011759 GeodesicLength=0.05754305337267462 rxn_smarts="[C:1](#[C:2][c:3]1[c:4]([H:9])[c:5]([H:10])[n:6][n:7]1[H:11])[H:8]>>[C:1](#[C:2][C@@:4]1([H:9])[C:3][N:7]([H:11])[N:6]=[C:5]1[H:10])[H:8]"
C        2.23145462      -0.35752726      -0.53153385
C        1.15979992      -0.37993022       0.02432420
C        0.05097275       0.07221888       1.20853871
C       -0.38181220      -0.85163554       0.16945715
C       -1.35677713      -0.12683107      -0.63445230
N       -1.48156110       1.08337558      -0.19967659
N       -0.62288472       1.19414189       0.84238784
H        3.21079411      -0.32292187      -0.94820543
H       -0.34702225      -1.92746456       0.27129768
H       -1.95071157      -0.48425107      -1.46146500
H       -0.51225244       2.10082525       1.25932760
11
Frame=2 idx=011759 GeodesicLength=0.11497149442416321 rxn_smarts="[C:1](#[C:2][c:3]1[c:4]([H:9])[c:5]([H:10])[n:6][n:7]1[H:11])[H:8]>>[C:1](#[C:2][C@@:4]1([H:9])[C:3][N:7]([H:11])[N:6]=[C:5]1[H:10])[H:8]"
C        2.25174744      -0.36197087      -0.53471163
C        1.17446469      -0.38226674       0.00922115
C        0.05346540       0.07186203       1.19363013
C       -0.38335982      -0.84961767       0.15551408
C       -1.37091206      -0.12525026      -0.63234902
N       -1.50019331       1.08171182      -0.18921722
N       -0.62466903       1.19281915       0.84057247
H        3.24492061      -0.31526715      -0.91624930
H       -0.35829263      -1.92513459       0.26480603
H       -1.98588441      -0.48817779      -1.44151467
H       -0.50128689       2.10129206       1.25029797
11
Frame=3 idx=011759 GeodesicLength=0.1724399845885745 rxn_smarts="[C:1](#[C:2][c:3]1[c:4]([H:9])[c:5]([H:10])[n:6][n:7]1[H:11])[H:8]>>[C:1](#[C:2][C@@:4]1([H:9])[C:3][N:7]([H:11])[N:6]=[C:5]1[H:10])[H:8]"
C        2.27286374      -0.35884691      -0.53928969
C        1.18994616      -0.37995006      -0.00770860
C        0.05637199       0.07264466       1.17792117
C       -0.38333352      -0.84618589       0.14003179
C       -1.38549234      -0.12359703      -0.62995157
N       -1.52153947       1.07909682      -0.17660549
N       -0.62859367       1.19150346       0.83988200
H        3.28046410      -0.32218374      -0.88245488
H       -0.36563771      -1.92133682       0.25585574
H       -2.02108111      -0.49281521      -1.42026378
H       -0.49396818       2.10167072       1.24258332
11
Frame=4 idx=011759 GeodesicLength=0.2296925113624872 rxn_smarts="[C:1](#[C:2][c:3]1[c:4]([H:9])[c:5]([H:10])[n:6][n:7]1[H:11])[H:8]>>[C:1](#[C:2][C@@:4]1([H:9])[C:3][N:7]([H:11])[N:6]=[C:5]1[H:10])[H:8]"
C        2.29468443      -0.36156769      -0.54036374
C        1.20543158      -0.38086375      -0.02285725
C        0.05869110       0.07268971       1.16252956
C       -0.38444167      -0.84342092       0.12502446
C       -1.39955433      -0.12179635      -0.62788868
N       -1.54098836       1.07681933      -0.16473171
N       -0.63109760       1.19015210       0.83845632
H        3.31217586      -0.31914752      -0.85233369
H       -0.37579187      -1.91804409       0.24834401
H       -2.05433413      -0.49680778      -1.39975608
H       -0.48477500       2.10198695       1.23357678
11
Frame=5 idx=011759 GeodesicLength=0.286906121787655 rxn_smarts="[C:1](#[C:2][c:3]1[c:4]([H:9])[c:5]([H:10])[n:6][n:7]1[H:11])[H:8]>>[C:1](#[C:2][C@@:4]1([H:9])[C:3][N:7]([H:11])[N:6]=[C:5]1[H:10])[H:8]"
C        2.31701873      -0.36423547      -0.54096049
C        1.22119012      -0.38137348      -0.03850397
C        0.06113466       0.07290906       1.14664127
C       -0.38551130      -0.84035344       0.10943424
C       -1.41388278      -0.11993006      -0.62566754
N       -1.56089594       1.07419955      -0.15199742
N       -0.63366790       1.18880973       0.83702326
H        3.34342887      -0.31710576      -0.82190656
H       -0.38567082      -1.91433175       0.24036664
H       -2.08713395      -0.50087374      -1.37869752
H       -0.47600969       2.10228535       1.22426809
11
Frame=6 idx=011759 GeodesicLength=0.34409090251419605 rxn_smarts="[C:1](#[C:2][c:3]1[c:4]([H:9])[c:5]([H:10])[n:6][n:7]1[H:11])[H:8]>>[C:1](#[C:2][C@@:4]1([H:9])[C:3][N:7]([H:11])[N:6]=[C:5]1[H:10])[H:8]"
C        2.33983989      -0.36309264      -0.54217736
C        1.23742992      -0.37936619      -0.05536172
C        0.06388343       0.07388189       1.13010569
C       -0.38588250      -0.83642082       0.09291944
C       -1.42873580      -0.11815854      -0.62294264
N       -1.58230536       1.07078614      -0.13765978
N       -0.63728801       1.18749218       0.83615410
H        3.37502967      -0.32271035      -0.79037051
H       -0.39353160      -1.90970503       0.23114870
H       -2.11926585      -0.50536784      -1.35710189
H       -0.46917380       2.10266119       1.21528596
11
Frame=7 idx=011759 GeodesicLength=0.4011601481284278 rxn_smarts="[C:1](#[C:2][c:3]1[c:4]([H:9])[c:5]([H:10])[n:6][n:7]1[H:11])[H:8]>>[C:1](#[C:2][C@@:4]1([H:9])[C:3][N:7]([H:11])[N:6]=[C:5]1[H:10])[H:8]"
C        2.36296199      -0.36741975      -0.54118774
C        1.25359307      -0.38033618      -0.07143274
C        0.06641136       0.07411169       1.11342300
C       -0.38735328      -0.83308267       0.07649872
C       -1.44356357      -0.11620478      -0.62027909
N       -1.60230737       1.06762975      -0.12350316
N       -0.63949527       1.18608276       0.83457818
H        3.40451161      -0.31900162      -0.76014761
H       -0.40387173      -1.90547381       0.22279805
H       -2.15062131      -0.50922787      -1.33560373
H       -0.46026549       2.10292248       1.20485613
11
Frame=8 idx=011759 GeodesicLength=0.45824156139592115 rxn_smarts="[C:1](#[C:2][c:3]1[c:4]([H:9])[c:5]([H:10])[n:6][n:7]1[H:11])[H:8]>>[C:1](#[C:2][C@@:4]1([H:9])[C:3][N:7]([H:11])[N:6]=[C:5]1[H:10])[H:8]"
C        2.38660396      -0.36748037      -0.54111016
C        1.27026461      -0.37831959      -0.08921200
C        0.06937782       0.07524914       1.09583467
C       -0.38803607      -0.82870606       0.05889900
C       -1.45903484      -0.11436508      -0.61703470
N       -1.62400200       1.06350925      -0.10747114
N       -0.64281306       1.18472218       0.83355459
H        3.43472820      -0.32394319      -0.72787129
H       -0.41184283      -1.90019604       0.21284344
H       -2.18182802      -0.51381855      -1.31305970
H       -0.45341777       2.10334831       1.19462730
11
Frame=9 idx=011759 GeodesicLength=0.5152300200898411 rxn_smarts="[C:1](#[C:2][c:3]1[c:4]([H:9])[c:5]([H:10])[n:6][n:7]1[H:11])[H:8]>>[C:1](#[C:2][C@@:4]1([H:9])[C:3][N:7]([H:11])[N:6]=[C:5]1[H:10])[H:8]"
C        2.41055180      -0.37173758      -0.53915289
C        1.28697495      -0.37829883      -0.10660844
C        0.07224874       0.07595247       1.07796565
C       -0.38951260      -0.82462385       0.04119953
C       -1.47459776      -0.11237863      -0.61366315
N       -1.64479509       1.05942219      -0.09116404
N       -0.64514542       1.18331062       0.83205376
H        3.46327742      -0.32243176      -0.69663814
H       -0.42142592      -1.89503393       0.20332410
H       -2.21221065      -0.51787126      -1.29065485
H       -0.44536546       2.10369056       1.18333849
11
Frame=10 idx=011759 GeodesicLength=0.5721435864542517 rxn_smarts="[C:1](#[C:2][c:3]1[c:4]([H:9])[c:5]([H:10])[n:6][n:7]1[H:11])[H:8]>>[C:1](#[C:2][C@@:4]1([H:9])[C:3][N:7]([H:11])[N:6]=[C:5]1[H:10])[H:8]"
C        2.43479503      -0.37484587      -0.53681335
C        1.30404582      -0.37728355      -0.12450334
C        0.07521903       0.07709917       1.05961296
C       -0.39085534      -0.82001834       0.02293171
C       -1.49049960      -0.11048197      -0.60980177
N       -1.66606860       1.05473370      -0.07371425
N       -0.64786893       1.18191787       0.83079230
H        3.49143521      -0.32387998      -0.66535365
H       -0.43019677      -1.88928553       0.19320348
H       -2.24172967      -0.52210086      -1.26814529
H       -0.43827618       2.10414538       1.17179119
11
Frame=11 idx=011759 GeodesicLength=0.6289804964805428 rxn_smarts="[C:1](#[C:2][c:3]1[c:4]([H:9])[c:5]([H:10])[n:6][n:7]1[H:11])[H:8]>>[C:1](#[C:2][C@@:4]1([H:9])[C:3][N:7]([H:11])[N:6]=[C:5]1[H:10])[H:8]"
C        2.45920755      -0.37893358      -0.53375394
C        1.32135886      -0.37654052      -0.14265859
C        0.07825960       0.07832131       1.04076332
C       -0.39246386      -0.81520658       0.00420654
C       -1.50666010      -0.10856370      -0.60557026
N       -1.68720009       1.04968743      -0.05541072
N       -0.65036942       1.18050130       0.82946403
H        3.51882968      -0.32440320      -0.63395893
H       -0.43911021      -1.88323042       0.18276894
H       -2.27065100      -0.52625622      -1.24543669
H       -0.43120101       2.10462416       1.15958629
11
Frame=12 idx=011759 GeodesicLength=0.6857824776091291 rxn_smarts="[C:1](#[C:2][c:3]1[c:4]([H:9])[c:5]([H:10])[n:6][n:7]1[H:11])[H:8]>>[C:1](#[C:2][C@@:4]1([H:9])[C:3][N:7]([H:11])[N:6]=[C:5]1[H:10])[H:8]"
C        2.48390736      -0.38317326      -0.53017509
C        1.33898764      -0.37518247      -0.16159866
C        0.08150392       0.07990865       1.02119408
C       -0.39410717      -0.80990825      -0.01522895
C       -1.52318179      -0.10666332      -0.60086857
N       -1.70857243       1.04406154      -0.03591017
N       -0.65291619       1.17911746       0.82815927
H        3.54578836      -0.32611917      -0.60187788
H       -0.44749448      -1.87663967       0.17159833
H       -2.29919856      -0.53062091      -1.22218185
H       -0.42471666       2.10521939       1.14688949
11
Frame=13 idx=011759 GeodesicLength=0.742520200965685 rxn_smarts="[C:1](#[C:2][c:3]1[c:4]([H:9])[c:5]([H:10])[n:6][n:7]1[H:11])[H:8]>>[C:1](#[C:2][C@@:4]1([H:9])[C:3][N:7]([H:11])[N:6]=[C:5]1[H:10])[H:8]"
C        2.50868052      -0.38859911      -0.52601814
C        1.35688184      -0.37401169      -0.18100516
C        0.08489226       0.08164766       1.00098685
C       -0.39602503      -0.80432984      -0.03520955
C       -1.53997404      -0.10474684      -0.59572091
N       -1.72972218       1.03802063      -0.01544912
N       -0.65520049       1.17772800       0.82676475
H        3.57198863      -0.32690822      -0.56928413
H       -0.45589162      -1.86969548       0.15996257
H       -2.32728169      -0.53496661      -1.19857076
H       -0.41834819       2.10586148       1.13354360
11
Frame=14 idx=011759 GeodesicLength=0.7991549827614643 rxn_smarts="[C:1](#[C:2][c:3]1[c:4]([H:9])[c:5]([H:10])[n:6][n:7]1[H:11])[H:8]>>[C:1](#[C:2][C@@:4]1([H:9])[C:3][N:7]([H:11])[N:6]=[C:5]1[H:10])[H:8]"
C        2.53347839      -0.39365323      -0.52137517
C        1.37517184      -0.37254090      -0.20054793
C        0.08830032       0.08371954       0.98030381
C       -0.39804632      -0.79831736      -0.05567801
C       -1.55691541      -0.10289602      -0.59011905
N       -1.75071460       1.03145561       0.00591988
N       -0.65757413       1.17633919       0.82549660
H        3.59739044      -0.32897336      -0.53671334
H       -0.46386053      -1.86228582       0.14779592
H       -2.35461198      -0.53945120      -1.17481291
H       -0.41261802       2.10660353       1.11973022
11
Frame=15 idx=011759 GeodesicLength=0.8556887496562924 rxn_smarts="[C:1](#[C:2][c:3]1[c:4]([H:9])[c:5]([H:10])[n:6][n:7]1[H:11])[H:8]>>[C:1](#[C:2][C@@:4]1([H:9])[C:3][N:7]([H:11])[N:6]=[C:5]1[H:10])[H:8]"
C        2.55817234      -0.40299518      -0.51443499
C        1.39365320      -0.37354795      -0.21902147
C        0.09142566       0.08523214       0.95949562
C       -0.40093600      -0.79260497      -0.07619440
C       -1.57372356      -0.10078017      -0.58444198
N       -1.77037356       1.02505677       0.02739922
N       -0.65906616       1.17480571       0.82394274
H        3.62128428      -0.32414584      -0.50612536
H       -0.47340438      -1.85500917       0.13585433
H       -2.38117807      -0.54312413      -1.15146243
H       -0.40585376       2.10711279       1.10498872
11
Frame=16 idx=011759 GeodesicLength=0.9121513755403042 rxn_smarts="[C:1](#[C:2][c:3]1[c:4]([H:9])[c:5]([H:10])[n:6][n:7]1[H:11])[H:8]>>[C:1](#[C:2][C@@:4]1([H:9])[C:3][N:7]([H:11])[N:6]=[C:5]1[H:10])[H:8]"
C        2.58283600      -0.41181539      -0.50715627
C        1.41258445      -0.37397586      -0.23780515
C        0.09464055       0.08725866       0.93806384
C       -0.40386283      -0.78630886      -0.09730248
C       -1.59069745      -0.09873775      -0.57827473
N       -1.78997745       1.01803185       0.04991060
N       -0.66072978       1.17333398       0.82249890
H        3.64465013      -0.32132580      -0.47524062
H       -0.48221908      -1.84715590       0.12318169
H       -2.40717422      -0.54709531      -1.12772865
H       -0.40005031       2.10779036       1.08985288
