16
Frame=0 idx=004476 GeodesicLength=0.0 rxn_smarts="[C:1]1([H:7])([H:8])[C@:2]2([H:9])[C:3]([H:10])([H:11])[C:4]([H:12])([H:13])[C:5]([H:14])([H:15])[C@:6]12[H:16]>>[C:1](=[C:6]([C:2](=[C:3]([H:10])[H:11])[H:9])[H:16])([H:7])[H:8].[C:4](=[C:5]([H:14])[H:15])([H:12])[H:13]"
C       -1.90817550       0.47800590       0.41526026
C       -0.18345011       0.81411502      -0.94779738
C        0.88657944       1.25739987      -0.22659812
C        1.54408674      -0.75177338       0.22673463
C        0.31017590      -1.38130605       0.46776234
C       -1.00664806      -0.24454790      -0.35272115
H       -1.57126564       1.30808663       1.02054600
H       -2.96092530       0.22070833       0.47784733
H       -0.36119402       1.09598464      -1.97797640
H        1.58318614       1.97343490      -0.64981367
H        0.80727072       1.29319582       0.85409900
H        2.16541660      -0.42278914       1.04862203
H        2.08740614      -0.97021043      -0.68370226
H       -0.01021990      -1.46989826       1.50005606
H        0.08548630      -2.26403914      -0.12045279
H       -1.46772942      -0.93636675      -1.05186593
16
Frame=1 idx=004476 GeodesicLength=0.07517125695117623 rxn_smarts="[C:1]1([H:7])([H:8])[C@:2]2([H:9])[C:3]([H:10])([H:11])[C:4]([H:12])([H:13])[C:5]([H:14])([H:15])[C@:6]12[H:16]>>[C:1](=[C:6]([C:2](=[C:3]([H:10])[H:11])[H:9])[H:16])([H:7])[H:8].[C:4](=[C:5]([H:14])[H:15])([H:12])[H:13]"
C       -1.90145853       0.48214889       0.40467651
C       -0.20113902       0.82883831      -0.94679640
C        0.88529763       1.25682949      -0.23543087
C        1.54344029      -0.74901264       0.23710649
C        0.31486884      -1.39027767       0.47986480
C       -1.00926159      -0.25000184      -0.36642967
H       -1.55629485       1.27480197       1.05386027
H       -2.95851444       0.24018733       0.45202412
H       -0.38317986       1.12213279      -1.97331443
H        1.58406160       1.96171218      -0.67416428
H        0.81206278       1.31776843       0.84469368
H        2.16424719      -0.42827629       1.06311825
H        2.08729095      -0.97062224      -0.67252922
H        0.00157899      -1.49001997       1.51367214
H        0.09014585      -2.27351958      -0.10786933
H       -1.47314583      -0.93268916      -1.07248204
16
Frame=2 idx=004476 GeodesicLength=0.15032770782769084 rxn_smarts="[C:1]1([H:7])([H:8])[C@:2]2([H:9])[C:3]([H:10])([H:11])[C:4]([H:12])([H:13])[C:5]([H:14])([H:15])[C@:6]12[H:16]>>[C:1](=[C:6]([C:2](=[C:3]([H:10])[H:11])[H:9])[H:16])([H:7])[H:8].[C:4](=[C:5]([H:14])[H:15])([H:12])[H:13]"
C       -1.89397622       0.48621408       0.39501538
C       -0.21865145       0.84365019      -0.94591292
C        0.88401673       1.25614736      -0.24469541
C        1.54241828      -0.74605936       0.24844337
C        0.31926070      -1.39939785       0.49180985
C       -1.01185124      -0.25485003      -0.38066407
H       -1.54200346       1.24118454       1.08425854
H       -2.95459523       0.25859522       0.42942613
H       -0.40525012       1.14869779      -1.96845446
H        1.58491697       1.94910830      -0.69934554
H        0.81706862       1.34319808       0.83419439
H        2.16199853      -0.43345277       1.07896609
H        2.08782586      -0.97093574      -0.65975255
H        0.01340602      -1.51190277       1.52689052
H        0.09466942      -2.28242556      -0.09659707
H       -1.47925340      -0.92777149      -1.09358223
16
Frame=3 idx=004476 GeodesicLength=0.22548769287969045 rxn_smarts="[C:1]1([H:7])([H:8])[C@:2]2([H:9])[C:3]([H:10])([H:11])[C:4]([H:12])([H:13])[C:5]([H:14])([H:15])[C@:6]12[H:16]>>[C:1](=[C:6]([C:2](=[C:3]([H:10])[H:11])[H:9])[H:16])([H:7])[H:8].[C:4](=[C:5]([H:14])[H:15])([H:12])[H:13]"
C       -1.88578391       0.49010652       0.38626314
C       -0.23600721       0.85854234      -0.94511582
C        0.88272598       1.25533697      -0.25438302
C        1.54101199      -0.74289476       0.26073095
C        0.32338424      -1.40869116       0.50363393
C       -1.01442439      -0.25912221      -0.39539879
H       -1.52819632       1.20741155       1.11196458
H       -2.94939762       0.27600717       0.40970096
H       -0.42744728       1.17569639      -1.96333373
H        1.58569598       1.93557610      -0.72536187
H        0.82233026       1.36945433       0.82253914
H        2.15867024      -0.43827885       1.09613282
H        2.08899559      -0.97111347      -0.64538709
H        0.02538644      -1.53558609       1.53970814
H        0.09909365      -2.29079872      -0.08657210
H       -1.48603763      -0.92164611      -1.11512125
16
Frame=4 idx=004476 GeodesicLength=0.30067776473594554 rxn_smarts="[C:1]1([H:7])([H:8])[C@:2]2([H:9])[C:3]([H:10])([H:11])[C:4]([H:12])([H:13])[C:5]([H:14])([H:15])[C@:6]12[H:16]>>[C:1](=[C:6]([C:2](=[C:3]([H:10])[H:11])[H:9])[H:16])([H:7])[H:8].[C:4](=[C:5]([H:14])[H:15])([H:12])[H:13]"
C       -1.87694248       0.49375137       0.37839033
C       -0.25322515       0.87350666      -0.94437613
C        0.88141375       1.25438418      -0.26448090
C        1.53921344      -0.73950049       0.27395606
C        0.32726977      -1.41818145       0.51537174
C       -1.01699765      -0.26284402      -0.41061506
H       -1.51471010       1.17362711       1.13719203
H       -2.94311820       0.29251083       0.39254128
H       -0.44978834       1.20312126      -1.95790332
H        1.58633829       1.92107565      -0.75220777
H        0.82789178       1.39649815       0.80967240
H        2.15426428      -0.44271833       1.11459316
H        2.09079112      -0.97111426      -0.62944830
H        0.03764493      -1.56110439       1.55211454
H        0.10345236      -2.29867238      -0.07773934
H       -1.49349779      -0.91433989      -1.13706072
16
Frame=5 idx=004476 GeodesicLength=0.3758701232718197 rxn_smarts="[C:1]1([H:7])([H:8])[C@:2]2([H:9])[C:3]([H:10])([H:11])[C:4]([H:12])([H:13])[C:5]([H:14])([H:15])[C@:6]12[H:16]>>[C:1](=[C:6]([C:2](=[C:3]([H:10])[H:11])[H:9])[H:16])([H:7])[H:8].[C:4](=[C:5]([H:14])[H:15])([H:12])[H:13]"
C       -1.86748046       0.49707707       0.37136348
C       -0.27031516       0.88853924      -0.94366323
C        0.88008007       1.25327383      -0.27498041
C        1.53697668      -0.73585106       0.28812286
C        0.33093561      -1.42789159       0.52704028
C       -1.01956384      -0.26603484      -0.42629375
H       -1.50142604       1.14002427       1.16008638
H       -2.93586875       0.30810196       0.37775153
H       -0.47231277       1.23101200      -1.95209232
H        1.58682526       1.90550358      -0.77990315
H        0.83379620       1.42431026       0.79550601
H        2.14870900      -0.44671889       1.13433944
H        2.09317543      -0.97088789      -0.61189492
H        0.05028622      -1.58852711       1.56404414
H        0.10778705      -2.30606381      -0.07006905
H       -1.50160451      -0.90586703      -1.15935727
16
Frame=6 idx=004476 GeodesicLength=0.4510325352038741 rxn_smarts="[C:1]1([H:7])([H:8])[C@:2]2([H:9])[C:3]([H:10])([H:11])[C:4]([H:12])([H:13])[C:5]([H:14])([H:15])[C@:6]12[H:16]>>[C:1](=[C:6]([C:2](=[C:3]([H:10])[H:11])[H:9])[H:16])([H:7])[H:8].[C:4](=[C:5]([H:14])[H:15])([H:12])[H:13]"
C       -1.85748191       0.50010062       0.36503430
C       -0.28726880       0.90366719      -0.94291454
C        0.87866999       1.25201886      -0.28577966
C        1.53427315      -0.73196587       0.30311443
C        0.33439135      -1.43780156       0.53870805
C       -1.02213961      -0.26867833      -0.44243264
H       -1.48824626       1.10669241       1.18078053
H       -2.92776049       0.32273249       0.36512487
H       -0.49476428       1.25915744      -1.94592324
H        1.58699231       1.88897884      -0.80822568
H        0.84005261       1.45275021       0.78008635
H        2.14210605      -0.45033493       1.15515527
H        2.09598175      -0.97042377      -0.59291730
H        0.06346950      -1.61766185       1.57553506
H        0.11203578      -2.31299454      -0.06336770
H       -1.51031114      -0.89623722      -1.18197810
16
Frame=7 idx=004476 GeodesicLength=0.5261957111956991 rxn_smarts="[C:1]1([H:7])([H:8])[C@:2]2([H:9])[C:3]([H:10])([H:11])[C:4]([H:12])([H:13])[C:5]([H:14])([H:15])[C@:6]12[H:16]>>[C:1](=[C:6]([C:2](=[C:3]([H:10])[H:11])[H:9])[H:16])([H:7])[H:8].[C:4](=[C:5]([H:14])[H:15])([H:12])[H:13]"
C       -1.84701458       0.50277237       0.35936574
C       -0.30409350       0.91888545      -0.94211645
C        0.87720630       1.25061260      -0.29686012
C        1.53109489      -0.72782578       0.31892836
C        0.33765891      -1.44792812       0.55041022
C       -1.02474617      -0.27078999      -0.45902129
H       -1.47513389       1.07375290       1.19944785
H       -2.91894508       0.33642230       0.35447042
H       -0.51717023       1.28759015      -1.93937917
H        1.58685835       1.87141835      -0.83718166
H        0.84672255       1.48177753       0.76336414
H        2.13446249      -0.45352945       1.17703939
H        2.09920215      -0.96967322      -0.57252054
H        0.07730640      -1.64854413       1.58655033
H        0.11621422      -2.31947425      -0.05759356
H       -1.51962281      -0.88546671      -1.20490367
16
Frame=8 idx=004476 GeodesicLength=0.6013326463880686 rxn_smarts="[C:1]1([H:7])([H:8])[C@:2]2([H:9])[C:3]([H:10])([H:11])[C:4]([H:12])([H:13])[C:5]([H:14])([H:15])[C@:6]12[H:16]>>[C:1](=[C:6]([C:2](=[C:3]([H:10])[H:11])[H:9])[H:16])([H:7])[H:8].[C:4](=[C:5]([H:14])[H:15])([H:12])[H:13]"
C       -1.83610505       0.50507954       0.35428621
C       -0.32079028       0.93418271      -0.94123088
C        0.87566430       1.24904628      -0.30819560
C        1.52739371      -0.72341756       0.33554814
C        0.34076014      -1.45827722       0.56217405
C       -1.02738668      -0.27237391      -0.47604185
H       -1.46200162       1.04125587       1.21623451
H       -2.90948697       0.34922903       0.34559024
H       -0.53949850       1.31628021      -1.93240815
H        1.58634802       1.85276529      -0.86673268
H        0.85383525       1.51132920       0.74527947
H        2.12573047      -0.45627960       1.19994518
H        2.10276996      -0.96859570      -0.55070117
H        0.09192993      -1.68116260       1.59701505
H        0.12034669      -2.32549832      -0.05268531
H       -1.52950937      -0.87356323      -1.22807721
16
Frame=9 idx=004476 GeodesicLength=0.6764671277673368 rxn_smarts="[C:1]1([H:7])([H:8])[C@:2]2([H:9])[C:3]([H:10])([H:11])[C:4]([H:12])([H:13])[C:5]([H:14])([H:15])[C@:6]12[H:16]>>[C:1](=[C:6]([C:2](=[C:3]([H:10])[H:11])[H:9])[H:16])([H:7])[H:8].[C:4](=[C:5]([H:14])[H:15])([H:12])[H:13]"
C       -1.82479640       0.50701847       0.34971670
C       -0.33735411       0.94955328      -0.94023466
C        0.87403625       1.24732064      -0.31975303
C        1.52313570      -0.71873180       0.35295110
C        0.34370625      -1.46886191       0.57403975
C       -1.03008286      -0.27343397      -0.49348894
H       -1.44878804       1.00924103       1.23128103
H       -2.89946227       0.36118860       0.33830925
H       -0.56169936       1.34519734      -1.92499592
H        1.58539870       1.83300416      -0.89682339
H        0.86143683       1.54132504       0.72579629
H        2.11590157      -0.45857169       1.22382951
H        2.10662507      -0.96714570      -0.52748072
H        0.10748745      -1.71549357       1.60688668
H        0.12442561      -2.33107110      -0.04856616
H       -1.53997039      -0.86053880      -1.25146748
16
Frame=10 idx=004476 GeodesicLength=0.7516005967800319 rxn_smarts="[C:1]1([H:7])([H:8])[C@:2]2([H:9])[C:3]([H:10])([H:11])[C:4]([H:12])([H:13])[C:5]([H:14])([H:15])[C@:6]12[H:16]>>[C:1](=[C:6]([C:2](=[C:3]([H:10])[H:11])[H:9])[H:16])([H:7])[H:8].[C:4](=[C:5]([H:14])[H:15])([H:12])[H:13]"
C       -1.81312439       0.50859294       0.34558343
C       -0.35377733       0.96498827      -0.93910182
C        0.87231324       1.24543158      -0.33150168
C        1.51827922      -0.71375953       0.37112006
C        0.34651244      -1.47968760       0.58604172
C       -1.03285115      -0.27396832      -0.51135321
H       -1.43545413       0.97774394       1.24470642
H       -2.88893054       0.37232661       0.33247995
H       -0.58372460       1.37431534      -1.91711872
H        1.58395337       1.81209007      -0.92740144
H        0.86956817       1.57168499       0.70487046
H        2.10494578      -0.46038979       1.24865399
H        2.11070322      -0.96528019      -0.50286667
H        0.12412945      -1.75150858       1.61609055
H        0.12845083      -2.33618206      -0.04516881
H       -1.55099357      -0.84639765      -1.27503422
16
Frame=11 idx=004476 GeodesicLength=0.8267829351444216 rxn_smarts="[C:1]1([H:7])([H:8])[C@:2]2([H:9])[C:3]([H:10])([H:11])[C:4]([H:12])([H:13])[C:5]([H:14])([H:15])[C@:6]12[H:16]>>[C:1](=[C:6]([C:2](=[C:3]([H:10])[H:11])[H:9])[H:16])([H:7])[H:8].[C:4](=[C:5]([H:14])[H:15])([H:12])[H:13]"
C       -1.80114024       0.50982389       0.34181649
C       -0.37005769       0.98047732      -0.93781710
C        0.87048980       1.24337342      -0.34341529
C        1.51280020      -0.70849805       0.39004495
C        0.34920195      -1.49076601       0.59821668
C       -1.03572589      -0.27397032      -0.52963528
H       -1.42197777       0.94677616       1.25664006
H       -2.87797163       0.38269788       0.32796112
H       -0.60553193       1.40360228      -1.90877396
H        1.58195410       1.78998537      -0.95841798
H        0.87827688       1.60231841       0.68247076
H        2.09284800      -0.46172397       1.27440619
H        2.11497582      -0.96296216      -0.47686396
H        0.14202597      -1.78917352       1.62455985
H        0.13242737      -2.34082156      -0.04243895
H       -1.56259493      -0.83113913      -1.29875357
16
Frame=12 idx=004476 GeodesicLength=0.9019153887997432 rxn_smarts="[C:1]1([H:7])([H:8])[C@:2]2([H:9])[C:3]([H:10])([H:11])[C:4]([H:12])([H:13])[C:5]([H:14])([H:15])[C@:6]12[H:16]>>[C:1](=[C:6]([C:2](=[C:3]([H:10])[H:11])[H:9])[H:16])([H:7])[H:8].[C:4](=[C:5]([H:14])[H:15])([H:12])[H:13]"
C       -1.78883049       0.51069978       0.33835423
C       -0.38616487       0.99600345      -0.93634037
C        0.86856854       1.24114300      -0.35545572
C        1.50659855      -0.70291499       0.40970398
C        0.35176434      -1.50209339       0.61058326
C       -1.03869798      -0.27344630      -0.54829847
H       -1.40831446       0.91635802       1.26715213
H       -2.86657352       0.39229242       0.32464380
H       -0.62704764       1.43302358      -1.89991950
H        1.57936519       1.76661272      -0.98980298
H        0.88760462       1.63314834       0.65851354
H        2.07949312      -0.46252279       1.30101708
H        2.11930030      -0.96010136      -0.44944114
H        0.16133084      -1.82847081       1.63213897
H        0.13633529      -2.34495422      -0.04030887
H       -1.57473181      -0.81477745      -1.32253995
16
Frame=13 idx=004476 GeodesicLength=0.9771448077529044 rxn_smarts="[C:1]1([H:7])([H:8])[C@:2]2([H:9])[C:3]([H:10])([H:11])[C:4]([H:12])([H:13])[C:5]([H:14])([H:15])[C@:6]12[H:16]>>[C:1](=[C:6]([C:2](=[C:3]([H:10])[H:11])[H:9])[H:16])([H:7])[H:8].[C:4](=[C:5]([H:14])[H:15])([H:12])[H:13]"
C       -1.77632127       0.51128246       0.33513956
C       -0.40211508       1.01156695      -0.93469262
C        0.86657586       1.23873009      -0.36757503
C        1.49974417      -0.69705541       0.43006961
C        0.35427584      -1.51368291       0.62320007
C       -1.04183563      -0.27236430      -0.56736164
H       -1.39458612       0.88650710       1.27642628
H       -2.85490438       0.40116024       0.32242696
H       -0.64822684       1.46252082      -1.89066625
H        1.57617902       1.74197313      -1.02144545
H        0.89754252       1.66406573       0.63304359
H        2.06503255      -0.46284567       1.32847723
H        2.12371807      -0.95672990      -0.42070366
H        0.18218876      -1.86924334       1.63876771
H        0.14017111      -2.34858509      -0.03867698
H       -1.58743855      -0.79729993      -1.34642937
16
Frame=14 idx=004476 GeodesicLength=1.052231476699102 rxn_smarts="[C:1]1([H:7])([H:8])[C@:2]2([H:9])[C:3]([H:10])([H:11])[C:4]([H:12])([H:13])[C:5]([H:14])([H:15])[C@:6]12[H:16]>>[C:1](=[C:6]([C:2](=[C:3]([H:10])[H:11])[H:9])[H:16])([H:7])[H:8].[C:4](=[C:5]([H:14])[H:15])([H:12])[H:13]"
C       -1.76347482       0.51151403       0.33200012
C       -0.41780540       1.02715477      -0.93273467
C        0.86440575       1.23617822      -0.37969803
C        1.49202636      -0.69090197       0.45100959
C        0.35664152      -1.52548501       0.63616093
C       -1.04505026      -0.27074817      -0.58676434
H       -1.38062866       0.85709804       1.28429968
H       -2.84272596       0.40925739       0.32099102
H       -0.66884493       1.49206331      -1.88076028
H        1.57211844       1.71620746      -1.05314733
H        0.90814181       1.69485941       0.60602149
H        2.04932942      -0.46270026       1.35646826
H        2.12780869      -0.95277155      -0.39076721
H        0.20485051      -1.91128654       1.64440928
H        0.14372801      -2.35168298      -0.03725742
H       -1.60052049      -0.77875614      -1.37023109
16
Frame=15 idx=004476 GeodesicLength=1.1276343454899838 rxn_smarts="[C:1]1([H:7])([H:8])[C@:2]2([H:9])[C:3]([H:10])([H:11])[C:4]([H:12])([H:13])[C:5]([H:14])([H:15])[C@:6]12[H:16]>>[C:1](=[C:6]([C:2](=[C:3]([H:10])[H:11])[H:9])[H:16])([H:7])[H:8].[C:4](=[C:5]([H:14])[H:15])([H:12])[H:13]"
C       -1.75061958       0.51149064       0.32903890
C       -0.43334922       1.04275384      -0.93062764
C        0.86224674       1.23342024      -0.39188396
C        1.48365887      -0.68446748       0.47269196
C        0.35900878      -1.53758699       0.64946789
C       -1.04857209      -0.26855956      -0.60661869
H       -1.36666573       0.82817605       1.29121949
H       -2.83059403       0.41679680       0.32043327
H       -0.68913121       1.52169049      -1.87052160
H        1.56748141       1.68906506      -1.08509147
H        0.91957600       1.72550360       0.57746813
H        2.03250265      -0.46203613       1.38542554
H        2.13205986      -0.94819997      -0.35946629
H        0.22953122      -1.95473603       1.64895371
H        0.14720193      -2.35423324      -0.03628209
H       -1.61433559      -0.75907732      -1.39420714
16
Frame=16 idx=004476 GeodesicLength=1.2028635805078702 rxn_smarts="[C:1]1([H:7])([H:8])[C@:2]2([H:9])[C:3]([H:10])([H:11])[C:4]([H:12])([H:13])[C:5]([H:14])([H:15])[C@:6]12[H:16]>>[C:1](=[C:6]([C:2](=[C:3]([H:10])[H:11])[H:9])[H:16])([H:7])[H:8].[C:4](=[C:5]([H:14])[H:15])([H:12])[H:13]"
C       -1.73725439       0.51117774       0.32612350
C       -0.44859726       1.05831076      -0.92816333
C        0.85987503       1.23044441      -0.40410939
C        1.47417611      -0.67767115       0.49506381
C        0.36129217      -1.54997762       0.66304199
C       -1.05215735      -0.26582756      -0.62670006
H       -1.35229453       0.79971740       1.29685825
H       -2.81770194       0.42370815       0.32065632
H       -0.70883738       1.55131659      -1.85952688
H        1.56182551       1.66040028      -1.11705045
H        0.93159420       1.75597968       0.54697728
H        2.01387380      -0.46070176       1.41505444
H        2.13585231      -0.94286341      -0.32657027
H        0.25627436      -1.99953266       1.65178252
H        0.15053951      -2.35616482      -0.03560405
H       -1.62846014      -0.73831604      -1.41783368
