17
Frame=0 idx=007093 GeodesicLength=0.0 rxn_smarts="[C:1]([C@@:2]([O:3][H:12])([C:4]([C:5]([C:6](=[O:7])[H:17])([H:15])[H:16])([H:13])[H:14])[H:11])([H:8])([H:9])[H:10]>>[C:1]([O:3][H:12])([H:8])([H:9])[H:10].[C:2]([C:4]([C:5]([C:6](=[O:7])[H:17])([H:15])[H:16])([H:13])[H:14])[H:11]"
C       -2.41708740       0.14460128      -0.24877586
C       -0.69005230      -0.88563498      -0.48307839
O       -0.95765656       0.50080070      -1.11032881
C        0.30711704      -0.79043132       0.63101186
C        1.74774423      -0.33196772       0.32011491
C        1.95206195       1.13883547       0.14535829
O        1.07889695       1.95109233      -0.05135873
H       -2.41116718      -0.09901527       0.80876908
H       -2.77392129       1.17597851      -0.39645992
H       -3.01486305      -0.55261052      -0.81645938
H       -0.30020267      -1.49190742      -1.30782639
H       -0.38483315       1.17691724      -0.68768400
H       -0.07725773      -0.16773554       1.45094477
H        0.37798373      -1.80280714       1.04058792
H        2.11475580      -0.80380828      -0.60132343
H        2.44815083      -0.65122074       1.10117680
H        3.00033086       1.48891337       0.20533131
17
Frame=1 idx=007093 GeodesicLength=0.028532069921365075 rxn_smarts="[C:1]([C@@:2]([O:3][H:12])([C:4]([C:5]([C:6](=[O:7])[H:17])([H:15])[H:16])([H:13])[H:14])[H:11])([H:8])([H:9])[H:10]>>[C:1]([O:3][H:12])([H:8])([H:9])[H:10].[C:2]([C:4]([C:5]([C:6](=[O:7])[H:17])([H:15])[H:16])([H:13])[H:14])[H:11]"
C       -2.41234248       0.13800022      -0.24961786
C       -0.68958548      -0.88077238      -0.48233611
O       -0.95058002       0.50063355      -1.11371414
C        0.30558097      -0.78536337       0.63470051
C        1.74637770      -0.33143845       0.32113686
C        1.95422161       1.13828561       0.14097007
O        1.08215050       1.95397765      -0.04607882
H       -2.42753981      -0.12519536       0.80363308
H       -2.76722028       1.17287530      -0.37184701
H       -3.01093300      -0.54301014      -0.83668281
H       -0.30236197      -1.49083880      -1.30519260
H       -0.38572941       1.18032608      -0.68671131
H       -0.07790218      -0.15883547       1.45185381
H        0.37234178      -1.79636368       1.04810336
H        2.11204834      -0.80724175      -0.59876689
H        2.44683320      -0.64902982       1.10291609
H        3.00464052       1.48399083       0.18763377
17
Frame=2 idx=007093 GeodesicLength=0.05705360118201198 rxn_smarts="[C:1]([C@@:2]([O:3][H:12])([C:4]([C:5]([C:6](=[O:7])[H:17])([H:15])[H:16])([H:13])[H:14])[H:11])([H:8])([H:9])[H:10]>>[C:1]([O:3][H:12])([H:8])([H:9])[H:10].[C:2]([C:4]([C:5]([C:6](=[O:7])[H:17])([H:15])[H:16])([H:13])[H:14])[H:11]"
C       -2.40755322       0.13147537      -0.25028317
C       -0.68912042      -0.87594598      -0.48164153
O       -0.94349661       0.50042126      -1.11713205
C        0.30402219      -0.78029130       0.63834936
C        1.74498149      -0.33089702       0.32217306
C        1.95629383       1.13773014       0.13659770
O        1.08543901       1.95681594      -0.04098504
H       -2.44372454      -0.15137013       0.79786166
H       -2.76037996       1.16923938      -0.34706929
H       -3.00688369      -0.53282602      -0.85631520
H       -0.30453993      -1.48979881      -1.30258989
H       -0.38661664       1.18366405      -0.68594900
H       -0.07857915      -0.14994850       1.45270447
H        0.36668414      -1.78988772       1.05556762
H        2.10933978      -0.81065439      -0.59616742
H        2.44547385      -0.64679784       1.10468745
H        3.00865988       1.47907156       0.17019127
17
Frame=3 idx=007093 GeodesicLength=0.08553897806182544 rxn_smarts="[C:1]([C@@:2]([O:3][H:12])([C:4]([C:5]([C:6](=[O:7])[H:17])([H:15])[H:16])([H:13])[H:14])[H:11])([H:8])([H:9])[H:10]>>[C:1]([O:3][H:12])([H:8])([H:9])[H:10].[C:2]([C:4]([C:5]([C:6](=[O:7])[H:17])([H:15])[H:16])([H:13])[H:14])[H:11]"
C       -2.40272209       0.12503616      -0.25077577
C       -0.68866735      -0.87116829      -0.48098752
O       -0.93640730       0.50014171      -1.12059640
C        0.30245115      -0.77523088       0.64194633
C        1.74355912      -0.33034735       0.32319506
C        1.95827204       1.13717217       0.13225307
O        1.08874500       1.95960402      -0.03607369
H       -2.45966142      -0.17736025       0.79149257
H       -2.75343306       1.16506469      -0.32225952
H       -3.00273730      -0.52213065      -0.87525048
H       -0.30676295      -1.48881347      -1.30000886
H       -0.38749292       1.18691372      -0.68541678
H       -0.07926914      -0.14110032       1.45349646
H        0.36103669      -1.78339959       1.06295631
H        2.10661868      -0.81401855      -0.59357593
H        2.44409112      -0.64455252       1.10643944
H        3.01237972       1.47418942       0.15316572
17
Frame=4 idx=007093 GeodesicLength=0.11396090893065113 rxn_smarts="[C:1]([C@@:2]([O:3][H:12])([C:4]([C:5]([C:6](=[O:7])[H:17])([H:15])[H:16])([H:13])[H:14])[H:11])([H:8])([H:9])[H:10]>>[C:1]([O:3][H:12])([H:8])([H:9])[H:10].[C:2]([C:4]([C:5]([C:6](=[O:7])[H:17])([H:15])[H:16])([H:13])[H:14])[H:11]"
C       -2.39785215       0.11869278      -0.25110070
C       -0.68823597      -0.86645174      -0.48036607
O       -0.92931174       0.49977226      -1.12411957
C        0.30087923      -0.77019891       0.64547947
C        1.74211469      -0.32979387       0.32417370
C        1.96014936       1.13661503       0.12794965
O        1.09204912       1.96233800      -0.03133643
H       -2.47529371      -0.20298275       0.78457773
H       -2.74641929       1.16035449      -0.29756112
H       -2.99851702      -0.51100598      -0.89338924
H       -0.30905626      -1.48790844      -1.29743888
H       -0.38835639       1.19005730      -0.68513189
H       -0.07995277      -0.13231851       1.45423027
H        0.35542724      -1.77692107       1.07024437
H        2.10387434      -0.81730532      -0.59104559
H        2.44270423      -0.64232388       1.10811865
H        3.01579709       1.46938060       0.13671566
17
Frame=5 idx=007093 GeodesicLength=0.14230824431459893 rxn_smarts="[C:1]([C@@:2]([O:3][H:12])([C:4]([C:5]([C:6](=[O:7])[H:17])([H:15])[H:16])([H:13])[H:14])[H:11])([H:8])([H:9])[H:10]>>[C:1]([O:3][H:12])([H:8])([H:9])[H:10].[C:2]([C:4]([C:5]([C:6](=[O:7])[H:17])([H:15])[H:16])([H:13])[H:14])[H:11]"
C       -2.39295198       0.11245237      -0.25127007
C       -0.68784201      -0.86180681      -0.47976871
O       -0.92221121       0.49928847      -1.12771385
C        0.29931443      -0.76521034       0.64893712
C        1.74064922      -0.32923942       0.32508039
C        1.96191821       1.13606223       0.12370385
O        1.09533029       1.96501729      -0.02675960
H       -2.49057689      -0.22807704       0.77722135
H       -2.73934720       1.15516706      -0.27310691
H       -2.99422800      -0.49958088      -0.91068440
H       -0.31145269      -1.48710750      -1.29486578
H       -0.38920632       1.19307758      -0.68511047
H       -0.08061269      -0.12362957       1.45490531
H        0.34987992      -1.77047131       1.07740720
H        2.10108974      -0.82048234      -0.58862934
H        2.44133106      -0.64014128       1.10967095
H        3.01891612       1.46468150       0.12098297
17
Frame=6 idx=007093 GeodesicLength=0.1705961837249475 rxn_smarts="[C:1]([C@@:2]([O:3][H:12])([C:4]([C:5]([C:6](=[O:7])[H:17])([H:15])[H:16])([H:13])[H:14])[H:11])([H:8])([H:9])[H:10]>>[C:1]([O:3][H:12])([H:8])([H:9])[H:10].[C:2]([C:4]([C:5]([C:6](=[O:7])[H:17])([H:15])[H:16])([H:13])[H:14])[H:11]"
C       -2.38802992       0.10629341      -0.25129784
C       -0.68746953      -0.85722458      -0.47919521
O       -0.91510219       0.49871461      -1.13135350
C        0.29775234      -0.76025337       0.65233857
C        1.73916481      -0.32868069       0.32594735
C        1.96359318       1.13551648       0.11951099
O        1.09860188       1.96764589      -0.02233191
H       -2.50556354      -0.25276177       0.76934760
H       -2.73222719       1.14946874      -0.24879197
H       -2.98988459      -0.48777668      -0.92722524
H       -0.31391954      -1.48638662      -1.29229584
H       -0.39005449       1.19599444      -0.68530189
H       -0.08126211      -0.11501147       1.45553308
H        0.34437615      -1.76403687       1.08447683
H        2.09828209      -0.82357661      -0.58627802
H        2.43996066      -0.63798093       1.11114929
H        3.02178200       1.46005601       0.10576771
17
Frame=7 idx=007093 GeodesicLength=0.19885498932766218 rxn_smarts="[C:1]([C@@:2]([O:3][H:12])([C:4]([C:5]([C:6](=[O:7])[H:17])([H:15])[H:16])([H:13])[H:14])[H:11])([H:8])([H:9])[H:10]>>[C:1]([O:3][H:12])([H:8])([H:9])[H:10].[C:2]([C:4]([C:5]([C:6](=[O:7])[H:17])([H:15])[H:16])([H:13])[H:14])[H:11]"
C       -2.38309526       0.10018715      -0.25120043
C       -0.68710781      -0.85269320      -0.47865203
O       -0.90798319       0.49807127      -1.13501567
C        0.29618630      -0.75531784       0.65569370
C        1.73766077      -0.32811573       0.32680113
C        1.96518503       1.13497244       0.11536361
O        1.10187306       1.97023054      -0.01803517
H       -2.52029711      -0.27712096       0.76093925
H       -2.72504190       1.14326419      -0.22454126
H       -2.98548642      -0.47557782      -0.94309551
H       -0.31643049      -1.48571371      -1.28974119
H       -0.39091424       1.19882843      -0.68565974
H       -0.08191353      -0.10644879       1.45611569
H        0.33889501      -1.75760454       1.09147147
H        2.09546429      -0.82661388      -0.58394425
H        2.43857883      -0.63582045       1.11260031
H        3.02442665       1.45547288       0.09090009
17
Frame=8 idx=007093 GeodesicLength=0.22705392046882114 rxn_smarts="[C:1]([C@@:2]([O:3][H:12])([C:4]([C:5]([C:6](=[O:7])[H:17])([H:15])[H:16])([H:13])[H:14])[H:11])([H:8])([H:9])[H:10]>>[C:1]([O:3][H:12])([H:8])([H:9])[H:10].[C:2]([C:4]([C:5]([C:6](=[O:7])[H:17])([H:15])[H:16])([H:13])[H:14])[H:11]"
C       -2.37815058       0.09414799      -0.25098212
C       -0.68676699      -0.84822681      -0.47813165
O       -0.90085465       0.49733521      -1.13871623
C        0.29462812      -0.75042127       0.65899187
C        1.73614168      -0.32755034       0.32761159
C        1.96668630       1.13443468       0.11127286
O        1.10512372       1.97276919      -0.01386412
H       -2.53472669      -0.30098710       0.75207796
H       -2.71783317       1.13658281      -0.20049271
H       -2.98105095      -0.46307718      -0.95822198
H       -0.31900989      -1.48511744      -1.28719175
H       -0.39178373       1.20156186      -0.68620806
H       -0.08254749      -0.09796716       1.45665545
H        0.33346600      -1.75119834       1.09836866
H        2.09262538      -0.82956737      -0.58168449
H        2.43720552      -0.63369208       1.11397150
H        3.02684742       1.45097332       0.07654322
17
Frame=9 idx=007093 GeodesicLength=0.25518541433348824 rxn_smarts="[C:1]([C@@:2]([O:3][H:12])([C:4]([C:5]([C:6](=[O:7])[H:17])([H:15])[H:16])([H:13])[H:14])[H:11])([H:8])([H:9])[H:10]>>[C:1]([O:3][H:12])([H:8])([H:9])[H:10].[C:2]([C:4]([C:5]([C:6](=[O:7])[H:17])([H:15])[H:16])([H:13])[H:14])[H:11]"
C       -2.37319955       0.08818820      -0.25064814
C       -0.68646334      -0.84383567      -0.47762492
O       -0.89371684       0.49648023      -1.14246775
C        0.29308476      -0.74557557       0.66222000
C        1.73460754      -0.32698632       0.32834642
C        1.96809121       1.13390690       0.10724693
O        1.10833640       1.97525770      -0.00981756
H       -2.54881911      -0.32422811       0.74287173
H       -2.71060949       1.12948160      -0.17676741
H       -2.97657583      -0.45038805      -0.97256425
H       -0.32169148      -1.48462278      -1.28463020
H       -0.39265895       1.20417369      -0.68696917
H       -0.08314617      -0.08958697       1.45714775
H        0.32811049      -1.74483316       1.10514430
H        2.08974641      -0.83240663      -0.57955400
H        2.43585525      -0.63162217       1.11520549
H        3.02904870       1.44659713       0.06286079
17
Frame=10 idx=007093 GeodesicLength=0.2832580742037256 rxn_smarts="[C:1]([C@@:2]([O:3][H:12])([C:4]([C:5]([C:6](=[O:7])[H:17])([H:15])[H:16])([H:13])[H:14])[H:11])([H:8])([H:9])[H:10]>>[C:1]([O:3][H:12])([H:8])([H:9])[H:10].[C:2]([C:4]([C:5]([C:6](=[O:7])[H:17])([H:15])[H:16])([H:13])[H:14])[H:11]"
C       -2.36824958       0.08228578      -0.25020942
C       -0.68617950      -0.83950603      -0.47713706
O       -0.88656932       0.49553634      -1.14624519
C        0.29155344      -0.74076895       0.66539288
C        1.73306281      -0.32642359       0.32903664
C        1.96941486       1.13338471       0.10327262
O        1.11152698       1.97769905      -0.00589004
H       -2.56261422      -0.34694413       0.73326112
H       -2.70340002       1.12192908      -0.15327903
H       -2.97206978      -0.43745100      -0.98619425
H       -0.32444043      -1.48419680      -1.28207096
H       -0.39355531       1.20668925      -0.68789321
H       -0.08372078      -0.08128717       1.45759983
H        0.32281189      -1.73849630       1.11182276
H        2.08684875      -0.83516627      -0.57749991
H        2.43451643      -0.62958760       1.11635938
H        3.03106377       1.44230364       0.04967386
17
Frame=11 idx=007093 GeodesicLength=0.311302763258743 rxn_smarts="[C:1]([C@@:2]([O:3][H:12])([C:4]([C:5]([C:6](=[O:7])[H:17])([H:15])[H:16])([H:13])[H:14])[H:11])([H:8])([H:9])[H:10]>>[C:1]([O:3][H:12])([H:8])([H:9])[H:10].[C:2]([C:4]([C:5]([C:6](=[O:7])[H:17])([H:15])[H:16])([H:13])[H:14])[H:11]"
C       -2.36330645       0.07641898      -0.24968490
C       -0.68590604      -0.83522883      -0.47667228
O       -0.87940695       0.49452001      -1.15003158
C        0.29002510      -0.73599031       0.66852256
C        1.73150430      -0.32585919       0.32970721
C        1.97066465       1.13286686       0.09935366
O        1.11470434       1.98010061      -0.00206037
H       -2.57615147      -0.36922743       0.72322865
H       -2.69617214       1.11392602      -0.12994450
H       -2.96752864      -0.42424102      -0.99919519
H       -0.32723378      -1.48381723      -1.27952051
H       -0.39447952       1.20912367      -0.68894684
H       -0.08428743      -0.07305005       1.45801479
H        0.31754616      -1.73217323       1.11842498
H        2.08393825      -0.83786148      -0.57548381
H        2.43317502      -0.62757148       1.11747226
H        3.03291461       1.43806409       0.03681588
17
Frame=12 idx=007093 GeodesicLength=0.3393478683809947 rxn_smarts="[C:1]([C@@:2]([O:3][H:12])([C:4]([C:5]([C:6](=[O:7])[H:17])([H:15])[H:16])([H:13])[H:14])[H:11])([H:8])([H:9])[H:10]>>[C:1]([O:3][H:12])([H:8])([H:9])[H:10].[C:2]([C:4]([C:5]([C:6](=[O:7])[H:17])([H:15])[H:16])([H:13])[H:14])[H:11]"
C       -2.35837846       0.07056370      -0.24908536
C       -0.68563136      -0.83099076      -0.47623442
O       -0.87223020       0.49345596      -1.15380447
C        0.28849239      -0.73122302       0.67162298
C        1.72993216      -0.32529133       0.33038461
C        1.97185526       1.13234669       0.09547188
O        1.11788732       1.98246648       0.00166587
H       -2.58948299      -0.39120416       0.71272064
H       -2.68891050       1.10545316      -0.10664517
H       -2.96294022      -0.41069935      -1.01165895
H       -0.33004371      -1.48345546      -1.27698761
H       -0.39544516       1.21149884      -0.69008829
H       -0.08485787      -0.06484606       1.45839513
H        0.31228877      -1.72584191       1.12497947
H        2.08102839      -0.84052549      -0.57345566
H        2.43181658      -0.62554794       1.11859370
H        3.03461963       1.43384066       0.02412564
17
Frame=13 idx=007093 GeodesicLength=0.36740308460541166 rxn_smarts="[C:1]([C@@:2]([O:3][H:12])([C:4]([C:5]([C:6](=[O:7])[H:17])([H:15])[H:16])([H:13])[H:14])[H:11])([H:8])([H:9])[H:10]>>[C:1]([O:3][H:12])([H:8])([H:9])[H:10].[C:2]([C:4]([C:5]([C:6](=[O:7])[H:17])([H:15])[H:16])([H:13])[H:14])[H:11]"
C       -2.35348643       0.06468502      -0.24842700
C       -0.68535768      -0.82679500      -0.47583967
O       -0.86505947       0.49238511      -1.15756735
C        0.28694820      -0.72645752       0.67472579
C        1.72835459      -0.32471695       0.33111480
C        1.97302065       1.13184507       0.09159272
O        1.12112009       1.98484790       0.00526597
H       -2.60267788      -0.41309252       0.70164368
H       -2.68156326       1.09648942      -0.08318030
H       -2.95832940      -0.39671555      -1.02372152
H       -0.33286673      -1.48310821      -1.27450553
H       -0.39647194       1.21387028      -0.69129622
H       -0.08543307      -0.05663654       1.45876446
H        0.30700838      -1.71950398       1.13154915
H        2.07813375      -0.84321873      -0.57134546
H        2.43043858      -0.62347898       1.11982220
H        3.03622163       1.42960118       0.01140429
17
Frame=14 idx=007093 GeodesicLength=0.3954797968071822 rxn_smarts="[C:1]([C@@:2]([O:3][H:12])([C:4]([C:5]([C:6](=[O:7])[H:17])([H:15])[H:16])([H:13])[H:14])[H:11])([H:8])([H:9])[H:10]>>[C:1]([O:3][H:12])([H:8])([H:9])[H:10].[C:2]([C:4]([C:5]([C:6](=[O:7])[H:17])([H:15])[H:16])([H:13])[H:14])[H:11]"
C       -2.34860110       0.05881433      -0.24772262
C       -0.68505113      -0.82258907      -0.47546964
O       -0.85783742       0.49130840      -1.16125283
C        0.28539170      -0.72169411       0.67779392
C        1.72675385      -0.32414447       0.33186703
C        1.97411984       1.13130973       0.08782164
O        1.12435060       1.98715577       0.00887071
H       -2.61561390      -0.43452777       0.69015445
H       -2.67430144       1.08701627      -0.05993157
H       -2.95360789      -0.38255171      -1.03519403
H       -0.33564947      -1.48268993      -1.27204600
H       -0.39754665       1.21619087      -0.69248297
H       -0.08603630      -0.04847727       1.45909700
H        0.30170785      -1.71314358       1.13802734
H        2.07524342      -0.84585883      -0.56920503
H        2.42901847      -0.62142879       1.12105116
H        3.03765955       1.42531015      -0.00137858
17
Frame=15 idx=007093 GeodesicLength=0.4236385888419259 rxn_smarts="[C:1]([C@@:2]([O:3][H:12])([C:4]([C:5]([C:6](=[O:7])[H:17])([H:15])[H:16])([H:13])[H:14])[H:11])([H:8])([H:9])[H:10]>>[C:1]([O:3][H:12])([H:8])([H:9])[H:10].[C:2]([C:4]([C:5]([C:6](=[O:7])[H:17])([H:15])[H:16])([H:13])[H:14])[H:11]"
C       -2.34372029       0.05294333      -0.24693159
C       -0.68473718      -0.81843291      -0.47510699
O       -0.85059966       0.49011627      -1.16493180
C        0.28382405      -0.71690796       0.68081064
C        1.72512813      -0.32355286       0.33259375
C        1.97513812       1.13074069       0.08399647
O        1.12755219       1.98937140       0.01226672
H       -2.62839172      -0.45573473       0.67811859
H       -2.66689202       1.07703036      -0.03651369
H       -2.94883693      -0.36789681      -1.04613968
H       -0.33842596      -1.48230696      -1.26954953
H       -0.39866368       1.21838369      -0.69382225
H       -0.08666222      -0.04030273       1.45933119
H        0.29641989      -1.70669304       1.14446324
H        2.07236405      -0.84847517      -0.56704349
H        2.42755784      -0.61931429       1.12224807
H        3.03894538       1.42103172      -0.01378966
17
Frame=16 idx=007093 GeodesicLength=0.45173080125260134 rxn_smarts="[C:1]([C@@:2]([O:3][H:12])([C:4]([C:5]([C:6](=[O:7])[H:17])([H:15])[H:16])([H:13])[H:14])[H:11])([H:8])([H:9])[H:10]>>[C:1]([O:3][H:12])([H:8])([H:9])[H:10].[C:2]([C:4]([C:5]([C:6](=[O:7])[H:17])([H:15])[H:16])([H:13])[H:14])[H:11]"
C       -2.33886733       0.04709814      -0.24609184
C       -0.68445097      -0.81434940      -0.47477697
O       -0.84335819       0.48886018      -1.16864431
C        0.28226876      -0.71217334       0.68379857
C        1.72350145      -0.32296813       0.33330560
C        1.97610707       1.13020762       0.08024735
O        1.13074706       1.99159826       0.01559504
H       -2.64090041      -0.47640388       0.66578349
H       -2.65951432       1.06663861      -0.01334399
H       -2.94406756      -0.35308259      -1.05648011
H       -0.34127251      -1.48199851      -1.26708705
H       -0.39981575       1.22052133      -0.69530061
H       -0.08725358      -0.03220317       1.45956088
H        0.29117398      -1.70030767       1.15084388
H        2.06946262      -0.85103123      -0.56494513
H        2.42612543      -0.61724996       1.12341562
H        3.04011425       1.41684375      -0.02588042
