11
Frame=0 idx=011503 GeodesicLength=0.0 rxn_smarts="[N:1](=[c:2]1/[c:3]([H:9])[n:4][c:5]([H:10])[c:6]([H:11])[o:7]1)\[H:8]>>[N:1](=[C:2]=[C:3]([N:4]=[C:5]([C:6](=[O:7])[H:11])[H:10])[H:9])[H:8]"
N        2.03079761       0.47741338       0.85301487
C        1.33249575      -0.40756128       0.40335455
C        0.54091897      -1.39938193       0.04524867
N       -0.82774673      -1.32531436      -0.25049428
C       -1.48353174      -0.24592166      -0.32794740
C       -0.97622880       1.16235172      -0.14397980
O       -0.60597328       1.84138540      -1.06215194
H        2.54184821       1.04460214       0.18065156
H        0.98377553      -2.38412015      -0.02572594
H       -2.54663539      -0.32293136      -0.56364752
H       -0.98972014       1.55947809       0.89167725
11
Frame=1 idx=011503 GeodesicLength=0.08140993010630887 rxn_smarts="[N:1](=[c:2]1/[c:3]([H:9])[n:4][c:5]([H:10])[c:6]([H:11])[o:7]1)\[H:8]>>[N:1](=[C:2]=[C:3]([N:4]=[C:5]([C:6](=[O:7])[H:11])[H:10])[H:9])[H:8]"
N        2.05119819       0.46882079       0.83361402
C        1.32498375      -0.37057992       0.33951092
C        0.53043226      -1.38616831       0.04372191
N       -0.83864215      -1.32912644      -0.23326419
C       -1.50082095      -0.24983104      -0.32206091
C       -1.00217025       1.15320722      -0.12833006
O       -0.55521526       1.81468978      -1.03103259
H        2.57920931       1.05070499       0.18750547
H        0.97733367      -2.37115319       0.00850467
H       -2.55161610      -0.32825720      -0.60538023
H       -1.01469245       1.54769332       0.90721100
11
Frame=2 idx=011503 GeodesicLength=0.16182841098528067 rxn_smarts="[N:1](=[c:2]1/[c:3]([H:9])[n:4][c:5]([H:10])[c:6]([H:11])[o:7]1)\[H:8]>>[N:1](=[C:2]=[C:3]([N:4]=[C:5]([C:6](=[O:7])[H:11])[H:10])[H:9])[H:8]"
N        2.06925401       0.45977882       0.81442390
C        1.31420223      -0.33601394       0.28877166
C        0.52069355      -1.37245041       0.04597248
N       -0.84721394      -1.33201597      -0.21836610
C       -1.51600890      -0.25292875      -0.31736686
C       -1.02483396       1.14474773      -0.11504831
O       -0.50915738       1.78931662      -0.99941591
H        2.61188021       1.04997314       0.18839408
H        0.97484584      -2.35481088       0.03600721
H       -2.55367058      -0.33270380      -0.64359425
H       -1.03999108       1.53710743       0.92022211
11
Frame=3 idx=011503 GeodesicLength=0.24152287830803598 rxn_smarts="[N:1](=[c:2]1/[c:3]([H:9])[n:4][c:5]([H:10])[c:6]([H:11])[o:7]1)\[H:8]>>[N:1](=[C:2]=[C:3]([N:4]=[C:5]([C:6](=[O:7])[H:11])[H:10])[H:9])[H:8]"
N        2.08545805       0.45107733       0.79573010
C        1.30141025      -0.30371439       0.24886219
C        0.51189305      -1.35859177       0.04935507
N       -0.85391420      -1.33427160      -0.20582456
C       -1.52939077      -0.25538412      -0.31380620
C       -1.04470792       1.13674787      -0.10347401
O       -0.46712484       1.76536479      -0.96735112
H        2.64070975       1.04468869       0.18430287
H        0.97456469      -2.33708366       0.05961871
H       -2.55347570      -0.33629846      -0.67875846
H       -1.06542235       1.52746530       0.93134541
11
Frame=4 idx=011503 GeodesicLength=0.32058291339852235 rxn_smarts="[N:1](=[c:2]1/[c:3]([H:9])[n:4][c:5]([H:10])[c:6]([H:11])[o:7]1)\[H:8]>>[N:1](=[C:2]=[C:3]([N:4]=[C:5]([C:6](=[O:7])[H:11])[H:10])[H:9])[H:8]"
N        2.09989763       0.44265631       0.77759681
C        1.28783418      -0.27352164       0.21633340
C        0.50406704      -1.34501096       0.05226103
N       -0.85899723      -1.33609997      -0.19617764
C       -1.54110918      -0.25728035      -0.31163657
C       -1.06206875       1.12903659      -0.09329077
O       -0.42859820       1.74294918      -0.93508261
H        2.66591143       1.03715825       0.17712905
H        0.97521923      -2.31920118       0.08223871
H       -2.55196408      -0.33894307      -0.71034269
H       -1.09019207       1.51825683       0.94097126
11
Frame=5 idx=011503 GeodesicLength=0.39925766500873733 rxn_smarts="[N:1](=[c:2]1/[c:3]([H:9])[n:4][c:5]([H:10])[c:6]([H:11])[o:7]1)\[H:8]>>[N:1](=[C:2]=[C:3]([N:4]=[C:5]([C:6](=[O:7])[H:11])[H:10])[H:9])[H:8]"
N        2.11297644       0.43474554       0.75994332
C        1.27392322      -0.24512299       0.18959226
C        0.49684206      -1.33196312       0.05485698
N       -0.86291173      -1.33779349      -0.18889113
C       -1.55150964      -0.25882189      -0.31045517
C       -1.07730724       1.12153690      -0.08402812
O       -0.39310558       1.72192856      -0.90272710
H        2.68821732       1.02836670       0.16742910
H        0.97620403      -2.30146862       0.10423098
H       -2.54931341      -0.34083835      -0.73956632
H       -1.11401548       1.50943077       0.94961520
11
Frame=6 idx=011503 GeodesicLength=0.47768550817631605 rxn_smarts="[N:1](=[c:2]1/[c:3]([H:9])[n:4][c:5]([H:10])[c:6]([H:11])[o:7]1)\[H:8]>>[N:1](=[C:2]=[C:3]([N:4]=[C:5]([C:6](=[O:7])[H:11])[H:10])[H:9])[H:8]"
N        2.12537786       0.42703965       0.74232569
C        1.25982688      -0.21818117       0.16807125
C        0.49009891      -1.31911240       0.05812693
N       -0.86577681      -1.33901608      -0.18330065
C       -1.56078906      -0.25989376      -0.31022886
C       -1.09108185       1.11403571      -0.07531596
O       -0.36048911       1.70195327      -0.86980627
H        2.70812469       1.01803185       0.15489284
H        0.97760663      -2.28355356       0.12556785
H       -2.54538766      -0.34182283      -0.76776059
H       -1.13751050       1.50051932       0.95742778
11
Frame=7 idx=011503 GeodesicLength=0.5558044972422531 rxn_smarts="[N:1](=[c:2]1/[c:3]([H:9])[n:4][c:5]([H:10])[c:6]([H:11])[o:7]1)\[H:8]>>[N:1](=[C:2]=[C:3]([N:4]=[C:5]([C:6](=[O:7])[H:11])[H:10])[H:9])[H:8]"
N        2.13674460       0.41966728       0.72510428
C        1.24595809      -0.19271691       0.15006085
C        0.48375956      -1.30698459       0.06114478
N       -0.86783524      -1.34028733      -0.17957094
C       -1.56903846      -0.26070538      -0.31085528
C       -1.10326038       1.10668116      -0.06718004
O       -0.33021572       1.68317587      -0.83714159
H        2.72564741       1.00766670       0.14097681
H        0.97888380      -2.26621654       0.14691172
H       -2.54082959      -0.34210007      -0.79409204
H       -1.15981407       1.49181980       0.96464145
11
Frame=8 idx=011503 GeodesicLength=0.6336729497754571 rxn_smarts="[N:1](=[c:2]1/[c:3]([H:9])[n:4][c:5]([H:10])[c:6]([H:11])[o:7]1)\[H:8]>>[N:1](=[C:2]=[C:3]([N:4]=[C:5]([C:6](=[O:7])[H:11])[H:10])[H:9])[H:8]"
N        2.14698566       0.41250118       0.70841894
C        1.23250618      -0.16864903       0.13469013
C        0.47782688      -1.29551293       0.06365934
N       -0.86922428      -1.34151410      -0.17730457
C       -1.57638424      -0.26124725      -0.31208557
C       -1.11395690       1.09935043      -0.05964827
O       -0.30207537       1.66517905      -0.80512815
H        2.74087080       0.99761190       0.12657283
H        0.98001239      -2.24933930       0.16810009
H       -2.53598002      -0.34167411      -0.81836232
H       -1.18058112       1.48329414       0.97108755
11
Frame=9 idx=011503 GeodesicLength=0.7113496483107323 rxn_smarts="[N:1](=[c:2]1/[c:3]([H:9])[n:4][c:5]([H:10])[c:6]([H:11])[o:7]1)\[H:8]>>[N:1](=[C:2]=[C:3]([N:4]=[C:5]([C:6](=[O:7])[H:11])[H:10])[H:9])[H:8]"
N        2.15594558       0.40547411       0.69213116
C        1.21960680      -0.14592886       0.12098144
C        0.47237575      -1.28472912       0.06517003
N       -0.86989500      -1.34271207      -0.17665535
C       -1.58283854      -0.26151984      -0.31383176
C       -1.12327519       1.09200706      -0.05254058
O       -0.27591550       1.64788706      -0.77385961
H        2.75382767       0.98817387       0.11217213
H        0.98074186      -2.23295385       0.19002105
H       -2.53095285      -0.34048613      -0.84056689
H       -1.19962059       1.47478778       0.97697838
11
Frame=10 idx=011503 GeodesicLength=0.7889142924283166 rxn_smarts="[N:1](=[c:2]1/[c:3]([H:9])[n:4][c:5]([H:10])[c:6]([H:11])[o:7]1)\[H:8]>>[N:1](=[C:2]=[C:3]([N:4]=[C:5]([C:6](=[O:7])[H:11])[H:10])[H:9])[H:8]"
N        2.16443301       0.39867656       0.67606600
C        1.20703351      -0.12426086       0.10967694
C        0.46698806      -1.27444811       0.06755458
N       -0.87012821      -1.34390135      -0.17689088
C       -1.58863450      -0.26160156      -0.31609942
C       -1.13164260       1.08468474      -0.04572545
O       -0.25141116       1.63126034      -0.74300361
H        2.76521510       0.97893884       0.09684537
H        0.98133126      -2.21692875       0.21111179
H       -2.52549007      -0.33878807      -0.86200581
H       -1.21769439       1.46636822       0.98247047
11
Frame=11 idx=011503 GeodesicLength=0.8664118763199784 rxn_smarts="[N:1](=[c:2]1/[c:3]([H:9])[n:4][c:5]([H:10])[c:6]([H:11])[o:7]1)\[H:8]>>[N:1](=[C:2]=[C:3]([N:4]=[C:5]([C:6](=[O:7])[H:11])[H:10])[H:9])[H:8]"
N        2.17257993       0.39202384       0.65946959
C        1.19495022      -0.10352120       0.09963977
C        0.46186972      -1.26463628       0.06960234
N       -0.86964060      -1.34506799      -0.17946910
C       -1.59371196      -0.26148454      -0.31936159
C       -1.13925481       1.07722687      -0.03862369
O       -0.22867261       1.61575933      -0.71175498
H        2.77527782       0.96999731       0.08012117
H        0.98100592      -2.20102853       0.23506134
H       -2.51959926      -0.33624009      -0.88316404
H       -1.23480437       1.45697128       0.98847920
11
Frame=12 idx=011503 GeodesicLength=0.943805471253957 rxn_smarts="[N:1](=[c:2]1/[c:3]([H:9])[n:4][c:5]([H:10])[c:6]([H:11])[o:7]1)\[H:8]>>[N:1](=[C:2]=[C:3]([N:4]=[C:5]([C:6](=[O:7])[H:11])[H:10])[H:9])[H:8]"
N        2.18000592       0.38552534       0.64313206
C        1.18335562      -0.08379058       0.09084757
C        0.45690742      -1.25537271       0.07177081
N       -0.86872890      -1.34626129      -0.18298112
C       -1.59820313      -0.26120083      -0.32295935
C       -1.14598360       1.06973153      -0.03175363
O       -0.20731579       1.60069338      -0.68129821
H        2.78383252       0.96174253       0.06337528
H        0.98027894      -2.18546911       0.25888601
H       -2.51358714      -0.33315422      -0.90321379
H       -1.25056185       1.44755597       0.99419437
11
Frame=13 idx=011503 GeodesicLength=1.0211907960722142 rxn_smarts="[N:1](=[c:2]1/[c:3]([H:9])[n:4][c:5]([H:10])[c:6]([H:11])[o:7]1)\[H:8]>>[N:1](=[C:2]=[C:3]([N:4]=[C:5]([C:6](=[O:7])[H:11])[H:10])[H:9])[H:8]"
N        2.18730454       0.37910958       0.62630385
C        1.17214629      -0.06482245       0.08337059
C        0.45201871      -1.24646344       0.07443231
N       -0.86724130      -1.34741022      -0.18810237
C       -1.60208690      -0.26075211      -0.32734949
C       -1.15217581       1.06210107      -0.02465196
O       -0.18734054       1.58642627      -0.65060846
H        2.79127913       0.95376084       0.04531600
H        0.97876749      -2.16993110       0.28428897
H       -2.50706946      -0.32936953      -0.92330630
H       -1.26560214       1.43735109       1.00030684
11
Frame=14 idx=011503 GeodesicLength=1.0985254773517443 rxn_smarts="[N:1](=[c:2]1/[c:3]([H:9])[n:4][c:5]([H:10])[c:6]([H:11])[o:7]1)\[H:8]>>[N:1](=[C:2]=[C:3]([N:4]=[C:5]([C:6](=[O:7])[H:11])[H:10])[H:9])[H:8]"
N        2.19416794       0.37276322       0.60924284
C        1.16144279      -0.04669604       0.07658238
C        0.44729164      -1.23801626       0.07696314
N       -0.86524102      -1.34856710      -0.19464230
C       -1.60542736      -0.26016328      -0.33225309
C       -1.15772740       1.05432252      -0.01743412
O       -0.16859660       1.57269983      -0.62024148
H        2.79752915       0.94647966       0.02685974
H        0.97637959      -2.15443083       0.31114567
H       -2.50033575      -0.32492766      -0.94289445
H       -1.27948299       1.42653592       1.00667167
11
Frame=15 idx=011503 GeodesicLength=1.1758282091284786 rxn_smarts="[N:1](=[c:2]1/[c:3]([H:9])[n:4][c:5]([H:10])[c:6]([H:11])[o:7]1)\[H:8]>>[N:1](=[C:2]=[C:3]([N:4]=[C:5]([C:6](=[O:7])[H:11])[H:10])[H:9])[H:8]"
N        2.20058954       0.36644683       0.59194375
C        1.15124981      -0.02938071       0.07024361
C        0.44274279      -1.23003932       0.07919117
N       -0.86273797      -1.34973363      -0.20254040
C       -1.60825041      -0.25945391      -0.33760418
C       -1.16266512       1.04636584      -0.01009107
O       -0.15096367       1.55941833      -0.59029199
H        2.80264331       0.94000739       0.00821782
H        0.97299054      -2.13885424       0.33954382
H       -2.49344936      -0.31985592      -0.96193095
H       -1.29214947       1.41507935       1.01331842
11
Frame=16 idx=011503 GeodesicLength=1.2530993372897823 rxn_smarts="[N:1](=[c:2]1/[c:3]([H:9])[n:4][c:5]([H:10])[c:6]([H:11])[o:7]1)\[H:8]>>[N:1](=[C:2]=[C:3]([N:4]=[C:5]([C:6](=[O:7])[H:11])[H:10])[H:9])[H:8]"
N        2.20638164       0.36015973       0.57459003
C        1.14162228      -0.01292223       0.06389109
C        0.43842961      -1.22260996       0.08070256
N       -0.85978545      -1.35094219      -0.21165862
C       -1.61060935      -0.25865604      -0.34320444
C       -1.16691913       1.03820512      -0.00269858
O       -0.13431088       1.54638991      -0.56116497
H        2.80663423       0.93461990      -0.00994429
H        0.96848983      -2.12311011       0.36936725
H       -2.48663915      -0.31422358      -0.98004406
H       -1.30329363       1.40308943       1.02016403
