14
Frame=0 idx=004087 GeodesicLength=0.0 rxn_smarts="[O:1]([C:2]([C:3]([C:4]([C:5](=[O:6])[H:14])([H:12])[H:13])([H:10])[H:11])([H:8])[H:9])[H:7]>>[C:2]([H:8])[H:9].[O:1]([C:3]([C:4]([C:5](=[O:6])[H:14])([H:12])[H:13])([H:10])[H:11])[H:7]"
O        1.15658765       0.57195918      -0.04448972
C        1.89428412      -0.58252958      -0.79500207
C        0.13319714      -0.82166350       0.15620944
C       -0.99480917      -0.05932236       0.88151414
C       -1.69329628       1.00130004       0.08375509
O       -1.23648194       1.53921462      -0.89528541
H        0.67480719       1.12659026      -0.67980425
H        2.90732427      -0.55434285      -0.38764285
H        1.92365578      -0.28733185      -1.84777158
H        0.56594387      -1.55690576       0.81899078
H       -0.25880728      -1.29664257      -0.73516757
H       -1.74822656      -0.79180707       1.19819520
H       -0.62795555       0.41356088       1.79906451
H       -2.69622320       1.29792060       0.44743425
14
Frame=1 idx=004087 GeodesicLength=0.05271144259009202 rxn_smarts="[O:1]([C:2]([C:3]([C:4]([C:5](=[O:6])[H:14])([H:12])[H:13])([H:10])[H:11])([H:8])[H:9])[H:7]>>[C:2]([H:8])[H:9].[O:1]([C:3]([C:4]([C:5](=[O:6])[H:14])([H:12])[H:13])([H:10])[H:11])[H:7]"
O        1.17344523       0.57174718      -0.02582863
C        1.88512412      -0.57947040      -0.79927969
C        0.13654430      -0.81846208       0.15750882
C       -0.99601985      -0.06085296       0.87816316
C       -1.69821228       0.99226726       0.07350841
O       -1.24344303       1.52146571      -0.91104913
H        0.70936696       1.15145744      -0.65134135
H        2.90341710      -0.56903134      -0.40422752
H        1.89793173      -0.27712745      -1.85044605
H        0.56847385      -1.55201819       0.82380395
H       -0.26037044      -1.30275270      -0.72763939
H       -1.74729673      -0.79375112       1.19854399
H       -0.63325901       0.41762475       1.79442198
H       -2.69570195       1.29890390       0.44386146
14
Frame=2 idx=004087 GeodesicLength=0.10554929431352553 rxn_smarts="[O:1]([C:2]([C:3]([C:4]([C:5](=[O:6])[H:14])([H:12])[H:13])([H:10])[H:11])([H:8])[H:9])[H:7]>>[C:2]([H:8])[H:9].[O:1]([C:3]([C:4]([C:5](=[O:6])[H:14])([H:12])[H:13])([H:10])[H:11])[H:7]"
O        1.19035924       0.57096696      -0.00693604
C        1.87548836      -0.57592544      -0.80385882
C        0.13983284      -0.81552608       0.15901025
C       -0.99720948      -0.06238686       0.87478271
C       -1.70282398       0.98303733       0.06286220
O       -1.24966640       1.50334351      -0.92707451
H        0.74438959       1.17552641      -0.62158234
H        2.89881344      -0.58342534      -0.42180138
H        1.87128167      -0.26543422      -1.85281982
H        0.57121414      -1.54709860       0.82894805
H       -0.26191569      -1.30957286      -0.71953770
H       -1.74647514      -0.79548214       1.19898815
H       -0.63854055       0.42187978       1.78959135
H       -2.69474805       1.30009756       0.43942790
14
Frame=3 idx=004087 GeodesicLength=0.1585005617508571 rxn_smarts="[O:1]([C:2]([C:3]([C:4]([C:5](=[O:6])[H:14])([H:12])[H:13])([H:10])[H:11])([H:8])[H:9])[H:7]>>[C:2]([H:8])[H:9].[O:1]([C:3]([C:4]([C:5](=[O:6])[H:14])([H:12])[H:13])([H:10])[H:11])[H:7]"
O        1.20730658       0.56961013       0.01212645
C        1.86538761      -0.57187179      -0.80868748
C        0.14304955      -0.81285551       0.16068155
C       -0.99836300      -0.06391019       0.87136793
C       -1.70712788       0.97363638       0.05184925
O       -1.25526585       1.48479249      -0.94336028
H        0.77991349       1.19868382      -0.59062060
H        2.89348501      -0.59744341      -0.44029827
H        1.84376704      -0.25228663      -1.85481151
H        0.57412827      -1.54217477       0.83436835
H       -0.26344207      -1.31704868      -0.71090935
H       -1.74574569      -0.79697730       1.19954479
H       -0.64374702       0.42633293       1.78455218
H       -2.69334606       1.30151254       0.43419699
14
Frame=4 idx=004087 GeodesicLength=0.21158121898400845 rxn_smarts="[O:1]([C:2]([C:3]([C:4]([C:5](=[O:6])[H:14])([H:12])[H:13])([H:10])[H:11])([H:8])[H:9])[H:7]>>[C:2]([H:8])[H:9].[O:1]([C:3]([C:4]([C:5](=[O:6])[H:14])([H:12])[H:13])([H:10])[H:11])[H:7]"
O        1.22427471       0.56767712       0.03130179
C        1.85484518      -0.56730099      -0.81370659
C        0.14617953      -0.81044320       0.16248289
C       -0.99946484      -0.06540812       0.86791779
C       -1.71113905       0.96409231       0.04052717
O       -1.26039092       1.46574378      -0.95995149
H        0.81599367       1.22084292      -0.55856656
H        2.88741960      -0.61103017      -0.45963240
H        1.81546601      -0.23772165      -1.85633334
H        0.57716964      -1.53728037       0.83999691
H       -0.26495031      -1.32510332      -0.70182036
H       -1.74508510      -0.79821684       1.20023996
H       -0.64881973       0.43099192       1.77928744
H       -2.69149839       1.30315660       0.42825678
14
Frame=5 idx=004087 GeodesicLength=0.2648399211841668 rxn_smarts="[O:1]([C:2]([C:3]([C:4]([C:5](=[O:6])[H:14])([H:12])[H:13])([H:10])[H:11])([H:8])[H:9])[H:7]>>[C:2]([H:8])[H:9].[O:1]([C:3]([C:4]([C:5](=[O:6])[H:14])([H:12])[H:13])([H:10])[H:11])[H:7]"
O        1.24125445       0.56514993       0.05054092
C        1.84388874      -0.56219941      -0.81885475
C        0.14920562      -0.80827637       0.16436853
C       -1.00049909      -0.06685721       0.86442873
C       -1.71486944       0.95444760       0.02895086
O       -1.26525346       1.44607964      -0.97687383
H        0.85271194       1.24192563      -0.52554144
H        2.88060485      -0.62413565      -0.47971184
H        1.78649260      -0.22177336      -1.85729063
H        0.58027971      -1.53245244       0.84575431
H       -0.26644477      -1.33364866      -0.69234871
H       -1.74446968      -0.79917093       1.20109886
H       -0.65369563       0.43587163       1.77377732
H       -2.68920583       1.30503959       0.42170166
14
Frame=6 idx=004087 GeodesicLength=0.31828024907006275 rxn_smarts="[O:1]([C:2]([C:3]([C:4]([C:5](=[O:6])[H:14])([H:12])[H:13])([H:10])[H:11])([H:8])[H:9])[H:7]>>[C:2]([H:8])[H:9].[O:1]([C:3]([C:4]([C:5](=[O:6])[H:14])([H:12])[H:13])([H:10])[H:11])[H:7]"
O        1.25824060       0.56203774       0.06979668
C        1.83254180      -0.55656785      -0.82408263
C        0.15211543      -0.80634180       0.16630430
C       -1.00145512      -0.06824311       0.86090251
C       -1.71834931       0.94472097       0.01717758
O       -1.26999399       1.42572559      -0.99419094
H        0.89014558       1.26186866      -0.49162562
H        2.87304011      -0.63672187      -0.50046084
H        1.75691723      -0.20447640      -1.85760743
H        0.58341608      -1.52772046       0.85158061
H       -0.26792770      -1.34260222      -0.68256224
H       -1.74387510      -0.79982440       1.20215012
H       -0.65832629       0.44098584       1.76800691
H       -2.68648930       1.30715931       0.41461098
14
Frame=7 idx=004087 GeodesicLength=0.3719527352165314 rxn_smarts="[O:1]([C:2]([C:3]([C:4]([C:5](=[O:6])[H:14])([H:12])[H:13])([H:10])[H:11])([H:8])[H:9])[H:7]>>[C:2]([H:8])[H:9].[O:1]([C:3]([C:4]([C:5](=[O:6])[H:14])([H:12])[H:13])([H:10])[H:11])[H:7]"
O        1.27523360       0.55832638       0.08902668
C        1.82082294      -0.55039221      -0.82934417
C        0.15489641      -0.80462570       0.16825629
C       -1.00232045      -0.06954249       0.85733803
C       -1.72159931       0.93494174       0.00525239
O       -1.27480550       1.40455267      -1.01195522
H        0.92841238       1.28057287      -0.45687639
H        2.86470859      -0.64874730      -0.52182476
H        1.72682076      -0.18582367      -1.85718417
H        0.58653301      -1.52311448       0.85741480
H       -0.26940371      -1.35188257      -0.67253012
H       -1.74327816      -0.80014702       1.20342211
H       -0.66265979       0.44636041       1.76195656
H       -2.68336077       1.30952137       0.40704798
14
Frame=8 idx=004087 GeodesicLength=0.4258572846541717 rxn_smarts="[O:1]([C:2]([C:3]([C:4]([C:5](=[O:6])[H:14])([H:12])[H:13])([H:10])[H:11])([H:8])[H:9])[H:7]>>[C:2]([H:8])[H:9].[O:1]([C:3]([C:4]([C:5](=[O:6])[H:14])([H:12])[H:13])([H:10])[H:11])[H:7]"
O        1.29223222       0.55402465       0.10819904
C        1.80876256      -0.54367161      -0.83459845
C        0.15753736      -0.80310357       0.17019313
C       -1.00308957      -0.07073573       0.85373696
C       -1.72466099       0.92512491      -0.00677376
O       -1.27986297       1.38246319      -1.03020571
H        0.96761413       1.29798491      -0.42137197
H        2.85562322      -0.66021017      -0.54373183
H        1.69629863      -0.16583724      -1.85595764
H        0.58958705      -1.51865570       0.86320008
H       -0.27087678      -1.36139726      -0.66232257
H       -1.74265441      -0.80012005       1.20494283
H       -0.66665657       0.45201875       1.75560969
H       -2.67985389       1.31211493       0.39908021
14
Frame=9 idx=004087 GeodesicLength=0.48000207370829434 rxn_smarts="[O:1]([C:2]([C:3]([C:4]([C:5](=[O:6])[H:14])([H:12])[H:13])([H:10])[H:11])([H:8])[H:9])[H:7]>>[C:2]([H:8])[H:9].[O:1]([C:3]([C:4]([C:5](=[O:6])[H:14])([H:12])[H:13])([H:10])[H:11])[H:7]"
O        1.30929976       0.54911250       0.12732387
C        1.79640214      -0.53642042      -0.83977918
C        0.16003545      -0.80172585       0.17205377
C       -1.00374359      -0.07178543       0.85009393
C       -1.72759955       0.91530654      -0.01882120
O       -1.28546988       1.35928884      -1.04903155
H        1.00776642       1.31403829      -0.38525892
H        2.84579241      -0.67112521      -0.56612531
H        1.66555506      -0.14455358      -1.85372777
H        0.59250289      -1.51439610       0.86882007
H       -0.27233696      -1.37099135      -0.65207041
H       -1.74195030      -0.79970496       1.20674704
H       -0.67025463       0.45799842       1.74893527
H       -2.67599922       1.31495832       0.39084040
14
Frame=10 idx=004087 GeodesicLength=0.5343932523450838 rxn_smarts="[O:1]([C:2]([C:3]([C:4]([C:5](=[O:6])[H:14])([H:12])[H:13])([H:10])[H:11])([H:8])[H:9])[H:7]>>[C:2]([H:8])[H:9].[O:1]([C:3]([C:4]([C:5](=[O:6])[H:14])([H:12])[H:13])([H:10])[H:11])[H:7]"
O        1.32638945       0.54357650       0.14635880
C        1.78373617      -0.52860339      -0.84488632
C        0.16237900      -0.80050638       0.17385230
C       -1.00428930      -0.07268612       0.84641342
C       -1.73041796       0.90547324      -0.03091411
O       -1.29167099       1.33496466      -1.06841170
H        1.04909818       1.32865674      -0.34846380
H        2.83519279      -0.68141160      -0.58899367
H        1.63453154      -0.12192891      -1.85053638
H        0.59528342      -1.51032888       0.87429737
H       -0.27379915      -1.38067666      -0.64176161
H       -1.74117241      -0.79888841       1.20885838
H       -0.67344653       0.46432893       1.74192102
H       -2.67181421       1.31803029       0.38226630
14
Frame=11 idx=004087 GeodesicLength=0.589041965844181 rxn_smarts="[O:1]([C:2]([C:3]([C:4]([C:5](=[O:6])[H:14])([H:12])[H:13])([H:10])[H:11])([H:8])[H:9])[H:7]>>[C:2]([H:8])[H:9].[O:1]([C:3]([C:4]([C:5](=[O:6])[H:14])([H:12])[H:13])([H:10])[H:11])[H:7]"
O        1.34351820       0.53740771       0.16531417
C        1.77078152      -0.52020188      -0.84989263
C        0.16456377      -0.79941712       0.17556524
C       -1.00472295      -0.07341579       0.84269364
C       -1.73315875       0.89562724      -0.04302715
O       -1.29865057       1.30934204      -1.08838186
H        1.09175100       1.34180102      -0.31100499
H        2.82382001      -0.69107477      -0.61231106
H        1.60329527      -0.09795526      -1.84631379
H        0.59789576      -1.50646954       0.87958515
H       -0.27526271      -1.39037649      -0.63145699
H       -1.74029519      -0.79764412       1.21130370
H       -0.67620638       0.47104890       1.73454012
H       -2.66732899       1.32132806       0.37338644
14
Frame=12 idx=004087 GeodesicLength=0.6439821616975816 rxn_smarts="[O:1]([C:2]([C:3]([C:4]([C:5](=[O:6])[H:14])([H:12])[H:13])([H:10])[H:11])([H:8])[H:9])[H:7]>>[C:2]([H:8])[H:9].[O:1]([C:3]([C:4]([C:5](=[O:6])[H:14])([H:12])[H:13])([H:10])[H:11])[H:7]"
O        1.36070616       0.53057072       0.18417652
C        1.75753590      -0.51117569      -0.85476640
C        0.16658989      -0.79844629       0.17717721
C       -1.00503725      -0.07395165       0.83892943
C       -1.73585230       0.88576368      -0.05515736
O       -1.30657270       1.28227459      -1.10899446
H        1.13587199       1.35334910      -0.27285481
H        2.81164078      -0.70005421      -0.63608189
H        1.57186862      -0.07258312      -1.84094682
H        0.60031687      -1.50284030       0.88465093
H       -0.27672229      -1.40004327      -0.62120480
H       -1.73929185      -0.79593995       1.21411731
H       -0.67850060       0.47820818       1.72675401
H       -2.66255321       1.32486821       0.36420111
14
Frame=13 idx=004087 GeodesicLength=0.699162787800541 rxn_smarts="[O:1]([C:2]([C:3]([C:4]([C:5](=[O:6])[H:14])([H:12])[H:13])([H:10])[H:11])([H:8])[H:9])[H:7]>>[C:2]([H:8])[H:9].[O:1]([C:3]([C:4]([C:5](=[O:6])[H:14])([H:12])[H:13])([H:10])[H:11])[H:7]"
O        1.37797002       0.52306482       0.20295836
C        1.74402182      -0.50152331      -0.85949434
C        0.16845321      -0.79756001       0.17866776
C       -1.00523468      -0.07427163       0.83511552
C       -1.73855098       0.87587390      -0.06729378
O       -1.31560778       1.25364178      -1.13023533
H        1.18158902       1.36324837      -0.23402855
H        2.79866989      -0.70834934      -0.66028481
H        1.54033138      -0.04580923      -1.83437973
H        0.60251886      -1.49944290       0.88945866
H       -0.27817985      -1.40960952      -0.61105660
H       -1.73813819      -0.79374902       1.21732521
H       -0.68031641       0.48585019       1.71852857
H       -2.65752633       1.32863590       0.35471906
14
Frame=14 idx=004087 GeodesicLength=0.7545858383207218 rxn_smarts="[O:1]([C:2]([C:3]([C:4]([C:5](=[O:6])[H:14])([H:12])[H:13])([H:10])[H:11])([H:8])[H:9])[H:7]>>[C:2]([H:8])[H:9].[O:1]([C:3]([C:4]([C:5](=[O:6])[H:14])([H:12])[H:13])([H:10])[H:11])[H:7]"
O        1.39532750       0.51486507       0.22166822
C        1.73025814      -0.49120587      -0.86404870
C        0.17015061      -0.79672958       0.18001929
C       -1.00531622      -0.07434613       0.83124385
C       -1.74130392       0.86594409      -0.07943977
O       -1.32596345       1.22328496      -1.15209262
H        1.22908227       1.37137543      -0.19451385
H        2.78489425      -0.71594122      -0.68492445
H        1.50875230      -0.01757352      -1.82653166
H        0.60447406      -1.49628141       0.89397735
H       -0.27963315      -1.41902438      -0.60105910
H       -1.73680687      -0.79103282       1.22096027
H       -0.68163347       0.49403521       1.70981708
H       -2.65228206       1.33263017       0.34492410
14
Frame=15 idx=004087 GeodesicLength=0.8102005727294481 rxn_smarts="[O:1]([C:2]([C:3]([C:4]([C:5](=[O:6])[H:14])([H:12])[H:13])([H:10])[H:11])([H:8])[H:9])[H:7]>>[C:2]([H:8])[H:9].[O:1]([C:3]([C:4]([C:5](=[O:6])[H:14])([H:12])[H:13])([H:10])[H:11])[H:7]"
O        1.41279654       0.50595128       0.24030968
C        1.71626667      -0.48019998      -0.86840968
C        0.17167876      -0.79592510       0.18121360
C       -1.00528492      -0.07414741       0.82730474
C       -1.74416397       0.85595858      -0.09160191
O       -1.33782003       1.19107320      -1.17453236
H        1.27849809       1.37760937      -0.15430915
H        2.77031960      -0.72279784      -0.70999695
H        1.47720002       0.01216530      -1.81731994
H        0.60615695      -1.49335531       0.89817834
H       -0.28108195      -1.42823874      -0.59125741
H       -1.73527096      -0.78775287       1.22505417
H       -0.68243697       0.50282185       1.70056900
H       -2.64685784       1.33683766       0.33479788
14
Frame=16 idx=004087 GeodesicLength=0.865971612461016 rxn_smarts="[O:1]([C:2]([C:3]([C:4]([C:5](=[O:6])[H:14])([H:12])[H:13])([H:10])[H:11])([H:8])[H:9])[H:7]>>[C:2]([H:8])[H:9].[O:1]([C:3]([C:4]([C:5](=[O:6])[H:14])([H:12])[H:13])([H:10])[H:11])[H:7]"
O        1.43039382       0.49629780       0.25889203
C        1.70205875      -0.46845796      -0.87255579
C        0.17303567      -0.79511719       0.18223559
C       -1.00514438      -0.07364631       0.82328609
C       -1.74718594       0.84589091      -0.10379626
O       -1.35137456       1.15685602      -1.19751227
H        1.33000487       1.38176600      -0.11341667
H        2.75492848      -0.72887051      -0.73551683
H        1.44575675       0.04348526      -1.80663498
H        0.60754682      -1.49065964       0.90203879
H       -0.28252191      -1.43721389      -0.58168976
H       -1.73350080      -0.78386568       1.22964146
H       -0.68271296       0.51227746       1.69072342
H       -2.64128462       1.34125775       0.32430519
