14
Frame=0 idx=003984 GeodesicLength=0.0 rxn_smarts="[C:1]([O:2][C:3]([C:4]([C:5](=[O:6])[H:14])([H:12])[H:13])([H:10])[H:11])([H:7])([H:8])[H:9]>>[C:1]1([H:7])([H:8])[O:2][C:3]([H:10])([H:11])[C:4]([H:12])([H:13])[C@:5]1([O:6][H:9])[H:14]"
C        1.05969298       0.65824013      -0.60911005
O        1.39370176      -0.61707580      -0.17770019
C        0.38776458      -1.13200019       0.68621644
C       -0.94161678      -0.74422091       0.06358585
C       -0.85698496       0.74094768      -0.21642302
O       -0.96871032       1.59365546       0.79163078
H        1.08078161       0.75526018      -1.69383900
H        1.73354291       1.42577012      -0.17780305
H        0.22280419       1.37139609       0.19547484
H        0.47870760      -0.69325963       1.68664604
H        0.53936651      -2.20806564       0.75185014
H       -1.77496347      -0.89704661       0.75104865
H       -1.11009370      -1.31024387      -0.85461732
H       -1.24399293       1.05664303      -1.19696009
14
Frame=1 idx=003984 GeodesicLength=0.10767480963011195 rxn_smarts="[C:1]([O:2][C:3]([C:4]([C:5](=[O:6])[H:14])([H:12])[H:13])([H:10])[H:11])([H:7])([H:8])[H:9]>>[C:1]1([H:7])([H:8])[O:2][C:3]([H:10])([H:11])[C:4]([H:12])([H:13])[C@:5]1([O:6][H:9])[H:14]"
C        1.06812625       0.66634268      -0.60930554
O        1.38735726      -0.61465758      -0.18423739
C        0.38671855      -1.13002631       0.68255941
C       -0.94836910      -0.74701526       0.06828982
C       -0.86758738       0.73720671      -0.21950661
O       -0.99210112       1.59137895       0.78460098
H        1.09920784       0.76050758      -1.69455757
H        1.75857716       1.41749374      -0.17799346
H        0.23374017       1.38948267       0.20764001
H        0.48040756      -0.69681679       1.68508658
H        0.54326698      -2.20606831       0.74392272
H       -1.77603425      -0.90030645       0.76238465
H       -1.12348744      -1.31686791      -0.84625122
H       -1.24982247       1.04934628      -1.20263237
14
Frame=2 idx=003984 GeodesicLength=0.21527545221608863 rxn_smarts="[C:1]([O:2][C:3]([C:4]([C:5](=[O:6])[H:14])([H:12])[H:13])([H:10])[H:11])([H:7])([H:8])[H:9]>>[C:1]1([H:7])([H:8])[O:2][C:3]([H:10])([H:11])[C:4]([H:12])([H:13])[C@:5]1([O:6][H:9])[H:14]"
C        1.07654991       0.67478118      -0.60930498
O        1.38073840      -0.61191974      -0.19100869
C        0.38560222      -1.12795032       0.67875314
C       -0.95527784      -0.74995041       0.07308175
C       -0.87865914       0.73319795      -0.22284329
O       -1.01536016       1.58911314       0.77698460
H        1.11775444       0.76605688      -1.69500281
H        1.78395507       1.40870630      -0.17830693
H        0.24516679       1.40789911       0.22083012
H        0.48211803      -0.70037209       1.68337214
H        0.54723488      -2.20391878       0.73574691
H       -1.77705690      -0.90353428       0.77397945
H       -1.13708632      -1.32382730      -0.83758614
H       -1.25567937       1.04171837      -1.20869527
14
Frame=3 idx=003984 GeodesicLength=0.3228312572967626 rxn_smarts="[C:1]([O:2][C:3]([C:4]([C:5](=[O:6])[H:14])([H:12])[H:13])([H:10])[H:11])([H:7])([H:8])[H:9]>>[C:1]1([H:7])([H:8])[O:2][C:3]([H:10])([H:11])[C:4]([H:12])([H:13])[C@:5]1([O:6][H:9])[H:14]"
C        1.08495677       0.68358735      -0.60907866
O        1.37382527      -0.60883351      -0.19802283
C        0.38440985      -1.12576564       0.67478603
C       -0.96235199      -0.75303632       0.07796613
C       -0.89024179       0.72889109      -0.22647701
O       -1.03842738       1.58687554       0.76872349
H        1.13639446       0.77194167      -1.69514372
H        1.80966506       1.39938041      -0.17875724
H        0.25715496       1.42663932       0.23515125
H        0.48383510      -0.70392888       1.68149268
H        0.55127758      -2.20160504       0.72729887
H       -1.77802589      -0.90670767       0.78585325
H       -1.15090092      -1.33115756      -0.82859557
H       -1.26157107       1.03371923      -1.21519666
14
Frame=4 idx=003984 GeodesicLength=0.43035662921413387 rxn_smarts="[C:1]([O:2][C:3]([C:4]([C:5](=[O:6])[H:14])([H:12])[H:13])([H:10])[H:11])([H:7])([H:8])[H:9]>>[C:1]1([H:7])([H:8])[O:2][C:3]([H:10])([H:11])[C:4]([H:12])([H:13])[C@:5]1([O:6][H:9])[H:14]"
C        1.09333904       0.69279152      -0.60859653
O        1.36659254      -0.60536537      -0.20528955
C        0.38313573      -1.12346559       0.67064368
C       -0.96960155      -0.75628266       0.08294910
C       -0.90237843       0.72425324      -0.23045701
O       -1.06123764       1.58468649       0.75975549
H        1.15509986       0.77819817      -1.69494634
H        1.83569447       1.38949307      -0.17935426
H        0.26977834       1.44569209       0.25071671
H        0.48555547      -0.70749288       1.67943649
H        0.55540344      -2.19911377       0.71854933
H       -1.77893256      -0.90979705       0.79802898
H       -1.16494570      -1.33889705      -0.81924586
H       -1.26750304       1.02529980      -1.22219022
14
Frame=5 idx=003984 GeodesicLength=0.5378732759275575 rxn_smarts="[C:1]([O:2][C:3]([C:4]([C:5](=[O:6])[H:14])([H:12])[H:13])([H:10])[H:11])([H:7])([H:8])[H:9]>>[C:1]1([H:7])([H:8])[O:2][C:3]([H:10])([H:11])[C:4]([H:12])([H:13])[C@:5]1([O:6][H:9])[H:14]"
C        1.10168620       0.70242847      -0.60782158
O        1.35901434      -0.60148314      -0.21281819
C        0.38177270      -1.12104166       0.66631218
C       -0.97703816      -0.75970186       0.08803666
C       -0.91512139       0.71924400      -0.23484124
O       -1.08370280       1.58256904       0.75001255
H        1.17383645       0.78487130      -1.69437373
H        1.86202342       1.37902590      -0.18010765
H        0.28312816       1.46504301       0.26764683
H        0.48727235      -0.71106967       1.67719192
H        0.55962260      -2.19643021       0.70946833
H       -1.77977127      -0.91277112       0.81053009
H       -1.17923578      -1.34709322      -0.80950028
H       -1.27348682       1.01640915      -1.22973590
14
Frame=6 idx=003984 GeodesicLength=0.645393441559849 rxn_smarts="[C:1]([O:2][C:3]([C:4]([C:5](=[O:6])[H:14])([H:12])[H:13])([H:10])[H:11])([H:7])([H:8])[H:9]>>[C:1]1([H:7])([H:8])[O:2][C:3]([H:10])([H:11])[C:4]([H:12])([H:13])[C@:5]1([O:6][H:9])[H:14]"
C        1.10999479       0.71253440      -0.60671197
O        1.35106647      -0.59714434      -0.22061101
C        0.38031379      -1.11848557       0.66177735
C       -0.98466920      -0.76330155       0.09323329
C       -0.92851634       0.71382344      -0.23968731
O       -1.10574607       1.58054438       0.73942610
H        1.19255136       0.79199475      -1.69338796
H        1.88861461       1.36794954      -0.18104940
H        0.29729479       1.48467710       0.28608401
H        0.48898113      -0.71466737       1.67474849
H        0.56394139      -2.19353887       0.70002014
H       -1.78053144      -0.91558915       0.82337379
H       -1.19377982      -1.35578605      -0.79932012
H       -1.27951546       1.00698928      -1.23789539
14
Frame=7 idx=003984 GeodesicLength=0.752921978321294 rxn_smarts="[C:1]([O:2][C:3]([C:4]([C:5](=[O:6])[H:14])([H:12])[H:13])([H:10])[H:11])([H:7])([H:8])[H:9]>>[C:1]1([H:7])([H:8])[O:2][C:3]([H:10])([H:11])[C:4]([H:12])([H:13])[C@:5]1([O:6][H:9])[H:14]"
C        1.11826015       0.72313828      -0.60523102
O        1.34272605      -0.59231245      -0.22867159
C        0.37874914      -1.11578852       0.65702729
C       -0.99250397      -0.76709170       0.09854417
C       -0.94260993       0.70794940      -0.24505316
O       -1.12728399       1.57863178       0.72792831
H        1.21119092       0.79961220      -1.69195661
H        1.91543066       1.35624428      -0.18220167
H        0.31237940       1.50457794       0.30616203
H        0.49067513      -0.71829114       1.67209563
H        0.56836635      -2.19042153       0.69017450
H       -1.78120623      -0.91821395       0.83657799
H       -1.20858702      -1.36502127      -0.78866669
H       -1.28558666       0.99698670      -1.24672919
14
Frame=8 idx=003984 GeodesicLength=0.8604610368044642 rxn_smarts="[C:1]([O:2][C:3]([C:4]([C:5](=[O:6])[H:14])([H:12])[H:13])([H:10])[H:11])([H:7])([H:8])[H:9]>>[C:1]1([H:7])([H:8])[O:2][C:3]([H:10])([H:11])[C:4]([H:12])([H:13])[C@:5]1([O:6][H:9])[H:14]"
C        1.12647026       0.73427973      -0.60332722
O        1.33396231      -0.58693979      -0.23700631
C        0.37706780      -1.11294117       0.65204444
C       -1.00055398      -0.77108087       0.10397684
C       -0.95746436       0.70156621      -0.25101176
O       -1.14820017       1.57685629       0.71542536
H        1.22968848       0.80778366      -1.69003422
H        1.94242918       1.34389402      -0.18358626
H        0.32849758       1.52471293       0.32804442
H        0.49234912      -0.72195239       1.66921958
H        0.57290261      -2.18705812       0.67988668
H       -1.78178433      -0.92058778       0.85016691
H       -1.22367209      -1.37485145      -0.77748316
H       -1.29169241       0.98631874      -1.25631530
14
Frame=9 idx=003984 GeodesicLength=0.9679481941930305 rxn_smarts="[C:1]([O:2][C:3]([C:4]([C:5](=[O:6])[H:14])([H:12])[H:13])([H:10])[H:11])([H:7])([H:8])[H:9]>>[C:1]1([H:7])([H:8])[O:2][C:3]([H:10])([H:11])[C:4]([H:12])([H:13])[C@:5]1([O:6][H:9])[H:14]"
C        1.13462326       0.74600321      -0.60093080
O        1.32473838      -0.58097208      -0.24561077
C        0.37526110      -1.10993244       0.64681044
C       -1.00883136      -0.77527735       0.10954420
C       -0.97314537       0.69461980      -0.25763651
O       -1.16833928       1.57524713       0.70181676
H        1.24798417       0.81656479      -1.68756702
H        1.96952242       1.33088083      -0.18523276
H        0.34575442       1.54503979       0.35187852
H        0.49399730      -0.72567008       1.66610880
H        0.57756326      -2.18343135       0.66909921
H       -1.78225066      -0.92264875       0.86416671
H       -1.23905236      -1.38532816      -0.76570950
H       -1.29782529       0.97490467      -1.26673728
14
Frame=10 idx=003984 GeodesicLength=1.0754301561809863 rxn_smarts="[C:1]([O:2][C:3]([C:4]([C:5](=[O:6])[H:14])([H:12])[H:13])([H:10])[H:11])([H:7])([H:8])[H:9]>>[C:1]1([H:7])([H:8])[O:2][C:3]([H:10])([H:11])[C:4]([H:12])([H:13])[C@:5]1([O:6][H:9])[H:14]"
C        1.14271243       0.75833080      -0.59800584
O        1.31503309      -0.57436569      -0.25448546
C        0.37331334      -1.10675173       0.64131373
C       -1.01734247      -0.77968421       0.11524860
C       -0.98970362       0.68705461      -0.26499179
O       -1.18762566       1.57381521       0.68701282
H        1.26597414       0.82600966      -1.68452989
H        1.99666528       1.31720509      -0.18717452
H        0.36429934       1.56552411       0.37784512
H        0.49561309      -0.72944908       1.66275085
H        0.58233994      -2.17951585       0.65777853
H       -1.78259808      -0.92433894       0.87858365
H       -1.25472950      -1.39649567      -0.75328877
H       -1.30395131       0.96266169      -1.27805703
14
Frame=11 idx=003984 GeodesicLength=1.1829074216022837 rxn_smarts="[C:1]([O:2][C:3]([C:4]([C:5](=[O:6])[H:14])([H:12])[H:13])([H:10])[H:11])([H:7])([H:8])[H:9]>>[C:1]1([H:7])([H:8])[O:2][C:3]([H:10])([H:11])[C:4]([H:12])([H:13])[C@:5]1([O:6][H:9])[H:14]"
C        1.15072673       0.77129316      -0.59449951
O        1.30481542      -0.56707392      -0.26362892
C        0.37120928      -1.10338533       0.63553989
C       -1.02609843      -0.78430591       0.12109860
C       -1.00720584       0.67880933      -0.27314298
O       -1.20594196       1.57257645       0.67090862
H        1.28356399       0.83618392      -1.68088530
H        2.02380280       1.30287255      -0.18943713
H        0.38428641       1.58611872       0.40610458
H        0.49718936      -0.73329904       1.65913270
H        0.58723202      -2.17528598       0.64588072
H       -1.78282130      -0.92559887       0.89343215
H       -1.27071275      -1.40840334      -0.74015857
H       -1.31004573       0.94949826      -1.29034486
14
Frame=12 idx=003984 GeodesicLength=1.2903632779019092 rxn_smarts="[C:1]([O:2][C:3]([C:4]([C:5](=[O:6])[H:14])([H:12])[H:13])([H:10])[H:11])([H:7])([H:8])[H:9]>>[C:1]1([H:7])([H:8])[O:2][C:3]([H:10])([H:11])[C:4]([H:12])([H:13])[C@:5]1([O:6][H:9])[H:14]"
C        1.15867081       0.78492054      -0.59034598
O        1.29405598      -0.55903967      -0.27302737
C        0.36893364      -1.09982061       0.62947713
C       -1.03510546      -0.78913983       0.12710335
C       -1.02571312       0.66982486      -0.28215448
O       -1.22316859       1.57153964       0.65339269
H        1.30064511       0.84715159      -1.67659526
H        2.05083197       1.28788298      -0.19207049
H        0.40587124       1.60676261       0.43682249
H        0.49872089      -0.73723378       1.65524438
H        0.59223230      -2.17071863       0.63335361
H       -1.78290729      -0.92635465       0.90871702
H       -1.28700480      -1.42109023      -0.72624988
H       -1.31606268       0.93531520      -1.30366722
14
Frame=13 idx=003984 GeodesicLength=1.3977685129874062 rxn_smarts="[C:1]([O:2][C:3]([C:4]([C:5](=[O:6])[H:14])([H:12])[H:13])([H:10])[H:11])([H:7])([H:8])[H:9]>>[C:1]1([H:7])([H:8])[O:2][C:3]([H:10])([H:11])[C:4]([H:12])([H:13])[C@:5]1([O:6][H:9])[H:14]"
C        1.16654396       0.79923003      -0.58549322
O        1.28272731      -0.55021768      -0.28267039
C        0.36646850      -1.09604258       0.62311475
C       -1.04437161      -0.79418344       0.13326987
C       -1.04529075       0.66004045      -0.29207879
O       -1.23918068       1.57070794       0.63435334
H        1.31710539       0.85897953      -1.67163476
H        2.07766904       1.27225615      -0.19510277
H        0.42920681       1.62739450       0.47014603
H        0.50020009      -0.74126414       1.65107466
H        0.59733121      -2.16578476       0.62015407
H       -1.78285001      -0.92653876       0.92444034
H       -1.30360410      -1.43459172      -0.71149643
H       -1.32195516       0.92001447      -1.31807670
14
Frame=14 idx=003984 GeodesicLength=1.5051168503884242 rxn_smarts="[C:1]([O:2][C:3]([C:4]([C:5](=[O:6])[H:14])([H:12])[H:13])([H:10])[H:11])([H:7])([H:8])[H:9]>>[C:1]1([H:7])([H:8])[O:2][C:3]([H:10])([H:11])[C:4]([H:12])([H:13])[C@:5]1([O:6][H:9])[H:14]"
C        1.17434960       0.81424395      -0.57987491
O        1.27079544      -0.54054642      -0.29253983
C        0.36379493      -1.09203475       0.61643894
C       -1.05390393      -0.79942549       0.13960826
C       -1.06600869       0.64939160      -0.30296962
O       -1.25385403       1.57007548       0.61365695
H        1.33281672       0.87173788      -1.66596832
H        2.10420204       1.25602400      -0.19857401
H        0.45447939       1.64792768       0.50623051
H        0.50162206      -0.74540641       1.64661078
H        0.60251116      -2.16045483       0.60622267
H       -1.78263935      -0.92606660       0.94060106
H       -1.32051281      -1.44893773      -0.69581698
H       -1.32765252       0.90347166      -1.33362550
14
Frame=15 idx=003984 GeodesicLength=1.612394215682408 rxn_smarts="[C:1]([O:2][C:3]([C:4]([C:5](=[O:6])[H:14])([H:12])[H:13])([H:10])[H:11])([H:7])([H:8])[H:9]>>[C:1]1([H:7])([H:8])[O:2][C:3]([H:10])([H:11])[C:4]([H:12])([H:13])[C@:5]1([O:6][H:9])[H:14]"
C        1.18209719       0.82997092      -0.57343669
O        1.25823373      -0.52997763      -0.30261281
C        0.36089039      -1.08777861       0.60944468
C       -1.06370815      -0.80485294       0.14612572
C       -1.08793097       0.63782131      -0.31486009
O       -1.26708841       1.56962201       0.59118646
H        1.34765676       0.88550112      -1.65957624
H        2.13032603       1.23921980      -0.20252478
H        0.48187343       1.66827143       0.54519300
H        0.50297956      -0.74966725       1.64184366
H        0.60775059      -2.15469426       0.59151839
H       -1.78227455      -0.92486915       0.95718398
H       -1.33771903      -1.46414515      -0.67914426
H       -1.33308656       0.88557841      -1.35034102
14
Frame=16 idx=003984 GeodesicLength=1.7195973553050372 rxn_smarts="[C:1]([O:2][C:3]([C:4]([C:5](=[O:6])[H:14])([H:12])[H:13])([H:10])[H:11])([H:7])([H:8])[H:9]>>[C:1]1([H:7])([H:8])[O:2][C:3]([H:10])([H:11])[C:4]([H:12])([H:13])[C@:5]1([O:6][H:9])[H:14]"
C        1.18980260       0.84641712      -0.56611823
O        1.24500908      -0.51845426      -0.31286203
C        0.35773218      -1.08325239       0.60212518
C       -1.07378945      -0.81044447       0.15283010
C       -1.11112629       0.62527619      -0.32777133
O       -1.27880020       1.56931317       0.56680945
H        1.36150245       0.90034544      -1.65243720
H        2.15592801       1.22188535      -0.20699415
H        0.51158557       1.68831582       0.58713443
H        0.50426579      -0.75405576       1.63676331
H        0.61302186      -2.14846843       0.57598822
H       -1.78174877      -0.92286726       0.97416983
H       -1.35521093      -1.48021673      -0.66140094
H       -1.33817189       0.86620621      -1.36823663
