11
Frame=0 idx=002684 GeodesicLength=0.0 rxn_smarts="[C:1]([C:2]([C:3](=[O:4])[C:5]#[N:6])([H:10])[H:11])([H:7])([H:8])[H:9]>>[C:1]([C@:2]1([H:10])[C@:3]([C:5]#[N:6])([H:11])[O:4]1)([H:7])([H:8])[H:9]"
C       -1.54887049       0.34463735      -0.20745292
C       -0.13887945       0.19322131      -0.49387497
C        0.73281250      -0.46270607       0.48546895
O        0.37703561      -0.11540482       1.70117464
C        2.17443941      -0.28353341       0.14912580
N        3.28121270      -0.13844241      -0.11409327
H       -1.86805918      -0.33796261       0.58099646
H       -2.15469012       0.32577067      -1.11510062
H       -1.65792817       1.35516290       0.21917404
H        0.26833928       0.67155197      -1.38714627
H        0.53458796      -1.55229488       0.18172815
11
Frame=1 idx=002684 GeodesicLength=0.08529417264251565 rxn_smarts="[C:1]([C:2]([C:3](=[O:4])[C:5]#[N:6])([H:10])[H:11])([H:7])([H:8])[H:9]>>[C:1]([C@:2]1([H:10])[C@:3]([C:5]#[N:6])([H:11])[O:4]1)([H:7])([H:8])[H:9]"
C       -1.55192968       0.33525067      -0.20450769
C       -0.13471206       0.19586458      -0.47793398
C        0.74726359      -0.45629779       0.49292055
O        0.38170114      -0.06583989       1.68950278
C        2.18726105      -0.29927849       0.15009253
N        3.29406699      -0.16727123      -0.11980875
H       -1.87230972      -0.35076157       0.58042945
H       -2.14764817       0.30040924      -1.11826262
H       -1.68022270       1.34543061       0.21555442
H        0.27617765       0.69969347      -1.35536536
H        0.50035190      -1.53719961       0.14737867
11
Frame=2 idx=002684 GeodesicLength=0.17054526190200334 rxn_smarts="[C:1]([C:2]([C:3](=[O:4])[C:5]#[N:6])([H:10])[H:11])([H:7])([H:8])[H:9]>>[C:1]([C@:2]1([H:10])[C@:3]([C:5]#[N:6])([H:11])[O:4]1)([H:7])([H:8])[H:9]"
C       -1.55475421       0.32652217      -0.20132135
C       -0.13085310       0.19765883      -0.46239319
C        0.76070241      -0.45180201       0.50010760
O        0.38669283      -0.01777437       1.67625501
C        2.19886342      -0.31392830       0.15179951
N        3.30549463      -0.19423973      -0.12417610
H       -1.87651476      -0.36237306       0.58039910
H       -2.14050547       0.27635143      -1.12068016
H       -1.70080985       1.33624803       0.21189815
H        0.28318052       0.72494508      -1.32436182
H        0.46850358      -1.52160808       0.11247325
11
Frame=3 idx=002684 GeodesicLength=0.2557670270753723 rxn_smarts="[C:1]([C:2]([C:3](=[O:4])[C:5]#[N:6])([H:10])[H:11])([H:7])([H:8])[H:9]>>[C:1]([C@:2]1([H:10])[C@:3]([C:5]#[N:6])([H:11])[O:4]1)([H:7])([H:8])[H:9]"
C       -1.55762007       0.31850989      -0.19792959
C       -0.12733850       0.19881381      -0.44728708
C        0.77318412      -0.44890580       0.50716135
O        0.39212217       0.02854354       1.66166613
C        2.20971332      -0.32743434       0.15429208
N        3.31622362      -0.21961388      -0.12724625
H       -1.88097047      -0.37301458       0.58080399
H       -2.13373401       0.25368282      -1.12240934
H       -1.72004522       1.32777558       0.20826181
H        0.28936193       0.74740680      -1.29454461
H        0.43910311      -1.50576384       0.07723151
11
Frame=4 idx=002684 GeodesicLength=0.34106374330408173 rxn_smarts="[C:1]([C:2]([C:3](=[O:4])[C:5]#[N:6])([H:10])[H:11])([H:7])([H:8])[H:9]>>[C:1]([C@:2]1([H:10])[C@:3]([C:5]#[N:6])([H:11])[O:4]1)([H:7])([H:8])[H:9]"
C       -1.56023544       0.31105206      -0.19429425
C       -0.12405373       0.19934022      -0.43261298
C        0.78473818      -0.44718862       0.51408844
O        0.39768260       0.07326329       1.64573050
C        2.21948992      -0.34003071       0.15737741
N        3.32564173      -0.24345407      -0.12923770
H       -1.88529987      -0.38279784       0.58149296
H       -2.12685163       0.23225630      -1.12340402
H       -1.73787011       1.31968110       0.20489415
H        0.29495859       0.76718824      -1.26579528
H        0.41179976      -1.48930997       0.04176078
11
Frame=5 idx=002684 GeodesicLength=0.4263477185295388 rxn_smarts="[C:1]([C:2]([C:3](=[O:4])[C:5]#[N:6])([H:10])[H:11])([H:7])([H:8])[H:9]>>[C:1]([C@:2]1([H:10])[C@:3]([C:5]#[N:6])([H:11])[O:4]1)([H:7])([H:8])[H:9]"
C       -1.56292938       0.30414153      -0.19049859
C       -0.12104562       0.19945414      -0.41845163
C        0.79552742      -0.44636531       0.52096008
O        0.40359046       0.11628784       1.62870015
C        2.22871884      -0.35175147       0.16103234
N        3.33456920      -0.26623437      -0.13019031
H       -1.88980862      -0.39202523       0.58240797
H       -2.12039967       0.21204685      -1.12381494
H       -1.75473430       1.31207570       0.20174242
H        0.29996948       0.78484393      -1.23832159
H        0.38654219      -1.47247361       0.00643410
11
Frame=6 idx=002684 GeodesicLength=0.5116312663790593 rxn_smarts="[C:1]([C:2]([C:3](=[O:4])[C:5]#[N:6])([H:10])[H:11])([H:7])([H:8])[H:9]>>[C:1]([C@:2]1([H:10])[C@:3]([C:5]#[N:6])([H:11])[O:4]1)([H:7])([H:8])[H:9]"
C       -1.56557824       0.29768862      -0.18656198
C       -0.11828902       0.19922057      -0.40480120
C        0.80551625      -0.44606960       0.52775855
O        0.40982310       0.15766241       1.61069836
C        2.23730510      -0.36263525       0.16517856
N        3.34285735      -0.28814755      -0.13021140
H       -1.89430914      -0.40081397       0.58338824
H       -2.11424097       0.19291593      -1.12368189
H       -1.77058472       1.30479760       0.19893261
H        0.30440635       0.80054188      -1.21206002
H        0.36309396      -1.45516063      -0.02863983
11
Frame=7 idx=002684 GeodesicLength=0.597119651040077 rxn_smarts="[C:1]([C:2]([C:3](=[O:4])[C:5]#[N:6])([H:10])[H:11])([H:7])([H:8])[H:9]>>[C:1]([C@:2]1([H:10])[C@:3]([C:5]#[N:6])([H:11])[O:4]1)([H:7])([H:8])[H:9]"
C       -1.56829813       0.29165768      -0.18246422
C       -0.11575560       0.19877311      -0.39167713
C        0.81486965      -0.44600592       0.53457857
O        0.41621712       0.19737636       1.59171769
C        2.24548278      -0.37259123       0.16980586
N        3.35079923      -0.30964747      -0.12937209
H       -1.89884564      -0.40931734       0.58439552
H       -2.10849511       0.17488948      -1.12297802
H       -1.78579527       1.29780517       0.19651883
H        0.30834119       0.81452021      -1.18716434
H        0.34147978      -1.43746005      -0.06336065
11
Frame=8 idx=002684 GeodesicLength=0.6824773091826037 rxn_smarts="[C:1]([C:2]([C:3](=[O:4])[C:5]#[N:6])([H:10])[H:11])([H:7])([H:8])[H:9]>>[C:1]([C@:2]1([H:10])[C@:3]([C:5]#[N:6])([H:11])[O:4]1)([H:7])([H:8])[H:9]"
C       -1.57091726       0.28598425      -0.17823844
C       -0.11342989       0.19808214      -0.37907832
C        0.82371107      -0.44613053       0.54124769
O        0.42287476       0.23553243       1.57197939
C        2.25307595      -0.38202257       0.17478187
N        3.35804286      -0.33034597      -0.12760539
H       -1.90320845      -0.41764134       0.58531359
H       -2.10303669       0.15792565      -1.12181026
H       -1.80009055       1.29094561       0.19462182
H        0.31176002       0.82673164      -1.16361616
H        0.32121818      -1.41906132      -0.09759578
11
Frame=9 idx=002684 GeodesicLength=0.7678624054866694 rxn_smarts="[C:1]([C:2]([C:3](=[O:4])[C:5]#[N:6])([H:10])[H:11])([H:7])([H:8])[H:9]>>[C:1]([C@:2]1([H:10])[C@:3]([C:5]#[N:6])([H:11])[O:4]1)([H:7])([H:8])[H:9]"
C       -1.57358968       0.28065122      -0.17387533
C       -0.11127760       0.19727680      -0.36700765
C        0.83206775      -0.44619697       0.54785433
O        0.42963617       0.27217117       1.55157441
C        2.26037725      -0.39082159       0.18007056
N        3.36507013      -0.35065633      -0.12505333
H       -1.90757623      -0.42590740       0.58615477
H       -2.09797823       0.14195185      -1.12019614
H       -1.81384450       1.28429708       0.19325500
H        0.31477630       0.83750909      -1.14148136
H        0.30233865      -1.40027493      -0.13129526
11
Frame=10 idx=002684 GeodesicLength=0.8532718951579291 rxn_smarts="[C:1]([C:2]([C:3](=[O:4])[C:5]#[N:6])([H:10])[H:11])([H:7])([H:8])[H:9]>>[C:1]([C@:2]1([H:10])[C@:3]([C:5]#[N:6])([H:11])[O:4]1)([H:7])([H:8])[H:9]"
C       -1.57627177       0.27559877      -0.16938103
C       -0.10928154       0.19640328      -0.35544915
C        0.84001321      -0.44605587       0.55439311
O        0.43649304       0.30738912       1.53057506
C        2.26737857      -0.39901489       0.18563523
N        3.37182825      -0.37073263      -0.12173414
H       -1.91185076      -0.43419515       0.58686658
H       -2.09327969       0.12689801      -1.11817502
H       -1.82707940       1.27775572       0.19245902
H        0.31738384       0.84699180      -1.12073180
H        0.28466626      -1.38103815      -0.16445787
11
Frame=11 idx=002684 GeodesicLength=0.9387170027355285 rxn_smarts="[C:1]([C:2]([C:3](=[O:4])[C:5]#[N:6])([H:10])[H:11])([H:7])([H:8])[H:9]>>[C:1]([C@:2]1([H:10])[C@:3]([C:5]#[N:6])([H:11])[O:4]1)([H:7])([H:8])[H:9]"
C       -1.57895868       0.27078744      -0.16475426
C       -0.10742270       0.19549371      -0.34438470
C        0.84762729      -0.44561827       0.56086070
O        0.44342075       0.34128778       1.50904449
C        2.27412427      -0.40664749       0.19144015
N        3.37835080      -0.39066450      -0.11765474
H       -1.91600160      -0.44257130       0.58742357
H       -2.08893920       0.11272116      -1.11577554
H       -1.83985202       1.27127365       0.19226209
H        0.31960074       0.85529369      -1.10135774
H        0.26805034      -1.36135586      -0.19710403
11
Frame=12 idx=002684 GeodesicLength=1.0241895075251348 rxn_smarts="[C:1]([C:2]([C:3](=[O:4])[C:5]#[N:6])([H:10])[H:11])([H:7])([H:8])[H:9]>>[C:1]([C@:2]1([H:10])[C@:3]([C:5]#[N:6])([H:11])[O:4]1)([H:7])([H:8])[H:9]"
C       -1.58164663       0.26618335      -0.15999149
C       -0.10568163       0.19457068      -0.33379541
C        0.85496602      -0.44481416       0.56726017
O        0.45039446       0.37396678       1.48703751
C        2.28065349      -0.41375797       0.19745649
N        3.38467061      -0.41052479      -0.11282660
H       -1.92000875      -0.45108881       0.58780987
H       -2.08494776       0.09938156      -1.11302355
H       -1.85221384       1.26481528       0.19268929
H        0.32144943       0.86251200      -1.08334616
H        0.25236460      -1.34124392      -0.22927012
11
Frame=13 idx=002684 GeodesicLength=1.1096867869552713 rxn_smarts="[C:1]([C:2]([C:3](=[O:4])[C:5]#[N:6])([H:10])[H:11])([H:7])([H:8])[H:9]>>[C:1]([C@:2]1([H:10])[C@:3]([C:5]#[N:6])([H:11])[O:4]1)([H:7])([H:8])[H:9]"
C       -1.58434558       0.26175467      -0.15508637
C       -0.10404246       0.19365459      -0.32366641
C        0.86209159      -0.44358882       0.57360137
O        0.45738766       0.40553110       1.46459321
C        2.28702146      -0.42036634       0.20365537
N        3.39084750      -0.43041527      -0.10724371
H       -1.92386515      -0.45979997       0.58802375
H       -2.08131154       0.08684425      -1.10994161
H       -1.86423320       1.25835072       0.19376060
H        0.32294556       0.86874979      -1.06668664
H        0.23750417      -1.32071473      -0.26100956
11
Frame=14 idx=002684 GeodesicLength=1.1951880288989203 rxn_smarts="[C:1]([C:2]([C:3](=[O:4])[C:5]#[N:6])([H:10])[H:11])([H:7])([H:8])[H:9]>>[C:1]([C@:2]1([H:10])[C@:3]([C:5]#[N:6])([H:11])[O:4]1)([H:7])([H:8])[H:9]"
C       -1.58701707       0.25746620      -0.15003974
C       -0.10248021       0.19274594      -0.31396983
C        0.86900898      -0.44187038       0.57989045
O        0.46440311       0.43607184       1.44174814
C        2.29320801      -0.42647344       0.21003381
N        3.39681510      -0.45038829      -0.10094716
H       -1.92752124      -0.46873217       0.58803304
H       -2.07798170       0.07506433      -1.10655336
H       -1.87589898       1.25183224       0.19549366
H        0.32410452       0.87406534      -1.05131630
H        0.22335948      -1.29978161      -0.29237272
11
Frame=15 idx=002684 GeodesicLength=1.2807363365038698 rxn_smarts="[C:1]([C:2]([C:3](=[O:4])[C:5]#[N:6])([H:10])[H:11])([H:7])([H:8])[H:9]>>[C:1]([C@:2]1([H:10])[C@:3]([C:5]#[N:6])([H:11])[O:4]1)([H:7])([H:8])[H:9]"
C       -1.58964615       0.25330891      -0.14484320
C       -0.10097676       0.19179792      -0.30468490
C        0.87578397      -0.43972125       0.58614764
O        0.47140690       0.46564578       1.41851846
C        2.29923253      -0.43220577       0.21657818
N        3.40257367      -0.47024683      -0.09393765
H       -1.93098129      -0.47787468       0.58784238
H       -2.07495278       0.06406301      -1.10287483
H       -1.88717197       1.24526585       0.19789920
H        0.32496728       0.87842621      -1.03723971
H        0.20976461      -1.27845915      -0.32340559
11
Frame=16 idx=002684 GeodesicLength=1.3662626216066216 rxn_smarts="[C:1]([C:2]([C:3](=[O:4])[C:5]#[N:6])([H:10])[H:11])([H:7])([H:8])[H:9]>>[C:1]([C@:2]1([H:10])[C@:3]([C:5]#[N:6])([H:11])[O:4]1)([H:7])([H:8])[H:9]"
C       -1.59225182       0.24926548      -0.13949916
C       -0.09951043       0.19080819      -0.29579229
C        0.88243914      -0.43711332       0.59241181
O        0.47838392       0.49432456       1.39493869
C        2.30515252      -0.43757916       0.22330240
N        3.40817514      -0.49004802      -0.08628488
H       -1.93427488      -0.48725476       0.58745464
H       -2.07222620       0.05381814      -1.09893860
H       -1.89812268       1.23865206       0.20096731
H        0.32556729       0.88192325      -1.02441790
H        0.19666799      -1.25679641      -0.35414202
