12
Frame=0 idx=005237 GeodesicLength=0.0 rxn_smarts="[C:1]([c:2]1[c:3]([H:10])[n:4]([H:11])[n:5][c:6]1[H:12])([H:7])([H:8])[H:9]>>[C:1]([C:3](=[C:2]=[C:6](/[N:5]=[N:4]/[H:11])[H:12])[H:10])([H:7])([H:8])[H:9]"
C       -1.20695856      -0.64783685       0.17553763
C       -0.34726744       0.63561425      -0.97620909
C        0.36226462      -0.54137194      -0.60923763
N        1.41773949      -0.20856174       0.22823299
N        1.34340852       1.08368614       0.57380500
C        0.32993390       1.57814700      -0.08087487
H       -1.87640412       0.18162029       0.37123737
H       -1.73616102      -1.39032891      -0.40977477
H       -0.85767313      -1.04357656       1.12985377
H        0.42671533      -1.46614640      -1.16624674
H        2.03473575      -0.81248812       0.73999715
H        0.10966662       2.63124284       0.02367916
12
Frame=1 idx=005237 GeodesicLength=0.12446103640944617 rxn_smarts="[C:1]([c:2]1[c:3]([H:10])[n:4]([H:11])[n:5][c:6]1[H:12])([H:7])([H:8])[H:9]>>[C:1]([C:3](=[C:2]=[C:6](/[N:5]=[N:4]/[H:11])[H:12])[H:10])([H:7])([H:8])[H:9]"
C       -1.22712927      -0.64705349       0.17117838
C       -0.34077579       0.63609288      -0.95441531
C        0.35456833      -0.54896153      -0.61058477
N        1.44279155      -0.20546380       0.22769507
N        1.37310370       1.08559534       0.56680541
C        0.34383675       1.57730746      -0.07459061
H       -1.92713598       0.16473247       0.33486575
H       -1.73368698      -1.42042902      -0.39468227
H       -0.89353882      -1.00694531       1.14514849
H        0.41839798      -1.46249568      -1.18587450
H        2.07617199      -0.79924436       0.73255752
H        0.11339655       2.62686505       0.04189684
12
Frame=2 idx=005237 GeodesicLength=0.2488379189799312 rxn_smarts="[C:1]([c:2]1[c:3]([H:10])[n:4]([H:11])[n:5][c:6]1[H:12])([H:7])([H:8])[H:9]>>[C:1]([C:3](=[C:2]=[C:6](/[N:5]=[N:4]/[H:11])[H:12])[H:10])([H:7])([H:8])[H:9]"
C       -1.24817567      -0.64624307       0.16666790
C       -0.33441796       0.63630067      -0.93122242
C        0.34643402      -0.55673448      -0.61144017
N        1.46877044      -0.20241393       0.22705508
N        1.40329323       1.08734606       0.55980083
C        0.35793431       1.57618169      -0.06738554
H       -1.97859527       0.14585375       0.29424332
H       -1.73022143      -1.45167003      -0.37643508
H       -0.93176256      -0.96705217       1.16000156
H        0.40946162      -1.45792534      -1.20605396
H        2.11945869      -0.78569881       0.72339886
H        0.11782057       2.62205567       0.06136962
12
Frame=3 idx=005237 GeodesicLength=0.3730575654706974 rxn_smarts="[C:1]([c:2]1[c:3]([H:10])[n:4]([H:11])[n:5][c:6]1[H:12])([H:7])([H:8])[H:9]>>[C:1]([C:3](=[C:2]=[C:6](/[N:5]=[N:4]/[H:11])[H:12])[H:10])([H:7])([H:8])[H:9]"
C       -1.27013641      -0.64556123       0.16199116
C       -0.32828970       0.63620652      -0.90633997
C        0.33779741      -0.56461553      -0.61172609
N        1.49565902      -0.19933674       0.22634478
N        1.43387723       1.08897244       0.55288923
C        0.37211826       1.57472487      -0.05902846
H       -2.03034058       0.12459376       0.24942491
H       -1.72582238      -1.48376915      -0.35474886
H       -0.97267057      -0.92428069       1.17393970
H        0.39984700      -1.45220231      -1.22671271
H        2.16456984      -0.77170997       0.71238821
H        0.12339089       2.61697804       0.08157810
12
Frame=4 idx=005237 GeodesicLength=0.4971015604845967 rxn_smarts="[C:1]([c:2]1[c:3]([H:10])[n:4]([H:11])[n:5][c:6]1[H:12])([H:7])([H:8])[H:9]>>[C:1]([C:3](=[C:2]=[C:6](/[N:5]=[N:4]/[H:11])[H:12])[H:10])([H:7])([H:8])[H:9]"
C       -1.29303588      -0.64506215       0.15713547
C       -0.32240116       0.63571402      -0.87962793
C        0.32864627      -0.57261518      -0.61139149
N        1.52349266      -0.19619053       0.22557350
N        1.46486407       1.09054429       0.54600340
C        0.38639504       1.57290472      -0.04949502
H       -2.08180378       0.10074126       0.20044449
H       -1.72061670      -1.51626636      -0.32935094
H       -1.01667071      -0.87898534       1.18653123
H        0.38950648      -1.44527218      -1.24768940
H        2.21153325      -0.75713931       0.69940839
H        0.13009047       2.61162676       0.10245828
12
Frame=5 idx=005237 GeodesicLength=0.6209903583817548 rxn_smarts="[C:1]([c:2]1[c:3]([H:10])[n:4]([H:11])[n:5][c:6]1[H:12])([H:7])([H:8])[H:9]>>[C:1]([C:3](=[C:2]=[C:6](/[N:5]=[N:4]/[H:11])[H:12])[H:10])([H:7])([H:8])[H:9]"
C       -1.31697760      -0.64469852       0.15202382
C       -0.31657583       0.63455329      -0.85103175
C        0.31907578      -0.58095100      -0.61026508
N        1.55247837      -0.19294168       0.22455803
N        1.49629475       1.09208349       0.53906671
C        0.40081261       1.57060491      -0.03884630
H       -2.13249935       0.07419230       0.14742536
H       -1.71478529      -1.54857451      -0.30029225
H       -1.06434525      -0.83077919       1.19751065
H        0.37852298      -1.43734878      -1.26866455
H        2.26065518      -0.74184229       0.68404858
H        0.13734366       2.60570198       0.12446677
12
Frame=6 idx=005237 GeodesicLength=0.7447640063665402 rxn_smarts="[C:1]([c:2]1[c:3]([H:10])[n:4]([H:11])[n:5][c:6]1[H:12])([H:7])([H:8])[H:9]>>[C:1]([C:3](=[C:2]=[C:6](/[N:5]=[N:4]/[H:11])[H:12])[H:10])([H:7])([H:8])[H:9]"
C       -1.34192717      -0.64463581       0.14674919
C       -0.31099749       0.63272107      -0.82022107
C        0.30900405      -0.58955679      -0.60827302
N        1.58256655      -0.18948224       0.22348614
N        1.52814553       1.09376008       0.53204344
C        0.41526631       1.56786627      -0.02689971
H       -2.18174106       0.04469091       0.09080456
H       -1.70873238      -1.58008750      -0.26761098
H       -1.11592906      -0.78103114       1.20627267
H        0.36676831      -1.42825734      -1.28949455
H        2.31182074      -0.72560738       0.66639212
H        0.14575566       2.59961987       0.14675119
12
Frame=7 idx=005237 GeodesicLength=0.8684117598038152 rxn_smarts="[C:1]([c:2]1[c:3]([H:10])[n:4]([H:11])[n:5][c:6]1[H:12])([H:7])([H:8])[H:9]>>[C:1]([C:3](=[C:2]=[C:6](/[N:5]=[N:4]/[H:11])[H:12])[H:10])([H:7])([H:8])[H:9]"
C       -1.36790518      -0.64487720       0.14133831
C       -0.30560863       0.63001699      -0.78703740
C        0.29845646      -0.59852803      -0.60525734
N        1.61384851      -0.18575390       0.22242069
N        1.56050151       1.09571922       0.52468251
C        0.42979610       1.56465529      -0.01373885
H       -2.22886479       0.01231113       0.03103467
H       -1.70292178      -1.61004837      -0.23156804
H       -1.17180024      -0.73059473       1.21239971
H        0.35426550      -1.41808949      -1.30980405
H        2.36505784      -0.70815017       0.64629591
H        0.15517469       2.59333926       0.16923387
12
Frame=8 idx=005237 GeodesicLength=0.991971383635035 rxn_smarts="[C:1]([c:2]1[c:3]([H:10])[n:4]([H:11])[n:5][c:6]1[H:12])([H:7])([H:8])[H:9]>>[C:1]([C:3](=[C:2]=[C:6](/[N:5]=[N:4]/[H:11])[H:12])[H:10])([H:7])([H:8])[H:9]"
C       -1.39493272      -0.64541231       0.13579671
C       -0.30032909       0.62621102      -0.75130177
C        0.28747782      -0.60800035      -0.60102185
N        1.64647187      -0.18165826       0.22138414
N        1.59342807       1.09811475       0.51676731
C        0.44444079       1.56093020       0.00054739
H       -2.27325403      -0.02283729      -0.03123756
H       -1.69794342      -1.63771747      -0.19262612
H       -1.23233921      -0.68025316       1.21549549
H        0.34109552      -1.40701631      -1.32922461
H        2.42042325      -0.68917494       0.62360252
H        0.16546114       2.58681411       0.19181835
12
Frame=9 idx=005237 GeodesicLength=1.1154227536501091 rxn_smarts="[C:1]([c:2]1[c:3]([H:10])[n:4]([H:11])[n:5][c:6]1[H:12])([H:7])([H:8])[H:9]>>[C:1]([C:3](=[C:2]=[C:6](/[N:5]=[N:4]/[H:11])[H:12])[H:10])([H:7])([H:8])[H:9]"
C       -1.42311532      -0.64625808       0.13000034
C       -0.29485771       0.62085177      -0.71267611
C        0.27623697      -0.61837422      -0.59513768
N        1.68076541      -0.17709175       0.22007296
N        1.62688341       1.10096379       0.50821524
C        0.45920219       1.55643452       0.01606661
H       -2.31470942      -0.06071873      -0.09562873
H       -1.69441978      -1.66252763      -0.15143472
H       -1.29791837      -0.62911810       1.21525501
H        0.32755217      -1.39536629      -1.34731147
H        2.47838929      -0.66841097       0.59761545
H        0.17599116       2.57961569       0.21496309
12
Frame=10 idx=005237 GeodesicLength=1.2388692512928299 rxn_smarts="[C:1]([c:2]1[c:3]([H:10])[n:4]([H:11])[n:5][c:6]1[H:12])([H:7])([H:8])[H:9]>>[C:1]([C:3](=[C:2]=[C:6](/[N:5]=[N:4]/[H:11])[H:12])[H:10])([H:7])([H:8])[H:9]"
C       -1.45246195      -0.64720687       0.12405359
C       -0.28925803       0.61387678      -0.67091571
C        0.26465871      -0.62964980      -0.58747740
N        1.71676167      -0.17199642       0.21873861
N        1.66112037       1.10451259       0.49840284
C        0.47417998       1.55126819       0.03262069
H       -2.35253217      -0.10100426      -0.16174398
H       -1.69290919      -1.68410362      -0.10827157
H       -1.36865639      -0.57887235       1.21128533
H        0.31352668      -1.38314979      -1.36371222
H        2.53859861      -0.64553962       0.56849176
H        0.18697170       2.57186516       0.23852808
12
Frame=11 idx=005237 GeodesicLength=1.362338262192067 rxn_smarts="[C:1]([c:2]1[c:3]([H:10])[n:4]([H:11])[n:5][c:6]1[H:12])([H:7])([H:8])[H:9]>>[C:1]([C:3](=[C:2]=[C:6](/[N:5]=[N:4]/[H:11])[H:12])[H:10])([H:7])([H:8])[H:9]"
C       -1.48296894      -0.64827623       0.11791165
C       -0.28343795       0.60501087      -0.62548128
C        0.25278759      -0.64196955      -0.57780701
N        1.75469739      -0.16622821       0.21721872
N        1.69627511       1.10893066       0.48699360
C        0.48937699       1.54534062       0.05032113
H       -2.38641838      -0.14340834      -0.22891333
H       -1.69392451      -1.70219360      -0.06373432
H       -1.44449315      -0.53013212       1.20323876
H        0.29911823      -1.37029436      -1.37820329
H        2.60049185      -0.62038033       0.53628235
H        0.19849577       2.56360058       0.26217301
12
Frame=12 idx=005237 GeodesicLength=1.4857571148530166 rxn_smarts="[C:1]([c:2]1[c:3]([H:10])[n:4]([H:11])[n:5][c:6]1[H:12])([H:7])([H:8])[H:9]>>[C:1]([C:3](=[C:2]=[C:6](/[N:5]=[N:4]/[H:11])[H:12])[H:10])([H:7])([H:8])[H:9]"
C       -1.51468700      -0.64934562       0.11145467
C       -0.27725091       0.59391876      -0.57584046
C        0.24068006      -0.65555037      -0.56585601
N        1.79480838      -0.15965646       0.21519495
N        1.73230446       1.11431705       0.47352252
C        0.50483753       1.53851323       0.06920733
H       -2.41605387      -0.18773112      -0.29688668
H       -1.69801245      -1.71660564      -0.01809746
H       -1.52541805      -0.48280539       1.19071265
H        0.28447806      -1.35685949      -1.39051546
H        2.66394552      -0.59276002       0.50088752
H        0.21036826       2.55456507       0.28621643
12
Frame=13 idx=005237 GeodesicLength=1.608927803526637 rxn_smarts="[C:1]([c:2]1[c:3]([H:10])[n:4]([H:11])[n:5][c:6]1[H:12])([H:7])([H:8])[H:9]>>[C:1]([C:3](=[C:2]=[C:6](/[N:5]=[N:4]/[H:11])[H:12])[H:10])([H:7])([H:8])[H:9]"
C       -1.54762073      -0.65044615       0.10446248
C       -0.27032380       0.57991492      -0.52076366
C        0.22852643      -0.67086911      -0.55108400
N        1.83740066      -0.15208688       0.21193335
N        1.76916438       1.12082078       0.45703190
C        0.52053735       1.53041024       0.08961211
H       -2.44142832      -0.23390192      -0.36554066
H       -1.70575951      -1.72717068       0.02823289
H       -1.61126833      -0.43558077       1.17302038
H        0.26989896      -1.34278315      -1.40047033
H        2.72885509      -0.56251616       0.46226092
H        0.22201782       2.54420887       0.31130462
12
Frame=14 idx=005237 GeodesicLength=1.7321601813772984 rxn_smarts="[C:1]([c:2]1[c:3]([H:10])[n:4]([H:11])[n:5][c:6]1[H:12])([H:7])([H:8])[H:9]>>[C:1]([C:3](=[C:2]=[C:6](/[N:5]=[N:4]/[H:11])[H:12])[H:10])([H:7])([H:8])[H:9]"
C       -1.58178005      -0.65130293       0.09691071
C       -0.26275947       0.56276358      -0.45940591
C        0.21617730      -0.68796724      -0.53339253
N        1.88251977      -0.14339621       0.20759368
N        1.80673066       1.12851236       0.43758903
C        0.53656292       1.52110235       0.11133937
H       -2.46195844      -0.28147295      -0.43460975
H       -1.71771625      -1.73400940       0.07511469
H       -1.70179631      -0.38972600       1.14973020
H        0.25521800      -1.32768872      -1.40783626
H        2.79498209      -0.52959286       0.42023556
H        0.23381978       2.53277803       0.33673120
12
Frame=15 idx=005237 GeodesicLength=1.85532892838522 rxn_smarts="[C:1]([c:2]1[c:3]([H:10])[n:4]([H:11])[n:5][c:6]1[H:12])([H:7])([H:8])[H:9]>>[C:1]([C:3](=[C:2]=[C:6](/[N:5]=[N:4]/[H:11])[H:12])[H:10])([H:7])([H:8])[H:9]"
C       -1.61703602      -0.65196603       0.08869117
C       -0.25440244       0.54170916      -0.39000569
C        0.20363071      -0.70711066      -0.51265135
N        1.93037865      -0.13331688       0.20127126
N        1.84440706       1.13730112       0.41559196
C        0.55289897       1.51037654       0.13434762
H       -2.47757983      -0.32962525      -0.50324338
H       -1.73440633      -1.73714322       0.12170983
H       -1.79592883      -0.34584824       1.12064896
H        0.24036667      -1.31080300      -1.41290678
H        2.86180810      -0.49401922       0.37561688
H        0.24586328       2.52044567       0.36092952
12
Frame=16 idx=005237 GeodesicLength=1.9782881111394308 rxn_smarts="[C:1]([c:2]1[c:3]([H:10])[n:4]([H:11])[n:5][c:6]1[H:12])([H:7])([H:8])[H:9]>>[C:1]([C:3](=[C:2]=[C:6](/[N:5]=[N:4]/[H:11])[H:12])[H:10])([H:7])([H:8])[H:9]"
C       -1.65330035      -0.65214654       0.07955631
C       -0.24470195       0.51528856      -0.31013636
C        0.19101823      -0.72902257      -0.48817883
N        1.98098101      -0.12175210       0.19297473
N        1.88159143       1.14716944       0.39087371
C        0.56952769       1.49785706       0.15783905
H       -2.48796269      -0.37716277      -0.57132290
H       -1.75700834      -1.73638214       0.16710285
H       -1.89271604      -0.30343744       1.08534526
H        0.22561498      -1.29168668      -1.41532440
H        2.92980181      -0.45514653       0.32761805
H        0.25715423       2.50642173       0.38365254
