18
Frame=0 idx=000848 GeodesicLength=0.0 rxn_smarts="[C:1]([C:2]([C@@:3]1([H:12])[C:4]([H:13])([H:14])[C@:5]1([C:6]([H:16])([H:17])[H:18])[H:15])([H:10])[H:11])([H:7])([H:8])[H:9]>>[C:1](=[C:2]([H:10])[H:11])([H:7])[H:9].[C:3]1([H:12])=[C:4]([H:14])[C:5]1([C:6]([H:16])([H:17])[H:18])[H:15].[H:8][H:13]"
C        1.94376292       0.67850639       0.53765070
C        1.67876936       0.04488787      -0.63562329
C       -0.22836143      -1.24333995      -0.53407665
C       -0.80776516      -1.24012907       0.66644629
C       -1.50234413      -0.46980966      -0.41363829
C       -1.56401507       1.04173219      -0.43865839
H        1.67016799       1.71685047       0.68562751
H        0.71606192       0.22466250       1.60880350
H        2.67343317       0.27708329       1.23099562
H        2.21409859      -0.85933162      -0.89132010
H        1.20709145       0.57016872      -1.45537464
H        0.20221418      -1.95252682      -1.21832683
H        0.01568915      -0.22815627       1.59533696
H       -1.05698885      -1.93434835       1.45266373
H       -2.39681621      -0.92696672      -0.84581820
H       -2.45902827       1.39832078       0.07690107
H       -1.60723276       1.41015787      -1.46708871
H       -0.69873686       1.49223834       0.04549976
18
Frame=1 idx=000848 GeodesicLength=0.1600970579280084 rxn_smarts="[C:1]([C:2]([C@@:3]1([H:12])[C:4]([H:13])([H:14])[C@:5]1([C:6]([H:16])([H:17])[H:18])[H:15])([H:10])[H:11])([H:7])([H:8])[H:9]>>[C:1](=[C:2]([H:10])[H:11])([H:7])[H:9].[C:3]1([H:12])=[C:4]([H:14])[C:5]1([C:6]([H:16])([H:17])[H:18])[H:15].[H:8][H:13]"
C        1.95607828       0.66070250       0.54113325
C        1.68009370       0.04505847      -0.64156356
C       -0.22643588      -1.23318711      -0.51753733
C       -0.83108115      -1.23368718       0.67532158
C       -1.50681340      -0.46622178      -0.41944785
C       -1.58611640       1.04450575      -0.43200602
H        1.71419514       1.70806689       0.68437087
H        0.72366862       0.24466828       1.62666699
H        2.69116875       0.25899521       1.22885308
H        2.31003275      -0.78740399      -0.93083221
H        1.18921396       0.49302926      -1.49491145
H        0.20641661      -1.95396126      -1.18871052
H        0.00144017      -0.22600025       1.62141406
H       -1.09947334      -1.94083442       1.44369085
H       -2.38575790      -0.92802242      -0.87736235
H       -2.48990130       1.38953664       0.07602348
H       -1.61853632       1.42498918      -1.45652293
H       -0.72819230       1.49976624       0.06142006
18
Frame=2 idx=000848 GeodesicLength=0.3184602819363499 rxn_smarts="[C:1]([C:2]([C@@:3]1([H:12])[C:4]([H:13])([H:14])[C@:5]1([C:6]([H:16])([H:17])[H:18])[H:15])([H:10])[H:11])([H:7])([H:8])[H:9]>>[C:1](=[C:2]([H:10])[H:11])([H:7])[H:9].[C:3]1([H:12])=[C:4]([H:14])[C:5]1([C:6]([H:16])([H:17])[H:18])[H:15].[H:8][H:13]"
C        1.96847127       0.63945035       0.54477519
C        1.68138754       0.04593330      -0.64932429
C       -0.22500069      -1.22373698      -0.49792145
C       -0.85623921      -1.22671263       0.68582455
C       -1.51091794      -0.46297265      -0.42478763
C       -1.60770795       1.04658949      -0.42701669
H        1.76235327       1.69525953       0.68555099
H        0.73183186       0.26545784       1.64463961
H        2.70796138       0.23345823       1.22532724
H        2.40373070      -0.69393730      -0.97906984
H        1.17169089       0.41103478      -1.53067475
H        0.21084316      -1.95695269      -1.15384804
H       -0.01455763      -0.22292533       1.64845261
H       -1.14382567      -1.94605358       1.43586322
H       -2.37313512      -0.92942146      -0.90839866
H       -2.52070820       1.38044707       0.07151593
H       -1.62790719       1.43813113      -1.44762569
H       -0.75827047       1.50695091       0.07671773
18
Frame=3 idx=000848 GeodesicLength=0.4756124550890968 rxn_smarts="[C:1]([C:2]([C@@:3]1([H:12])[C:4]([H:13])([H:14])[C@:5]1([C:6]([H:16])([H:17])[H:18])[H:15])([H:10])[H:11])([H:7])([H:8])[H:9]>>[C:1](=[C:2]([H:10])[H:11])([H:7])[H:9].[C:3]1([H:12])=[C:4]([H:14])[C:5]1([C:6]([H:16])([H:17])[H:18])[H:15].[H:8][H:13]"
C        1.98097294       0.61433484       0.54814713
C        1.68334966       0.04706801      -0.65959546
C       -0.22371293      -1.21485945      -0.47523004
C       -0.88308304      -1.21920279       0.69808750
C       -1.51467527      -0.46003027      -0.42961494
C       -1.62894891       1.04811698      -0.42373637
H        1.81480869       1.67774333       0.68896674
H        0.74104626       0.28711615       1.66290767
H        2.72385582       0.19968596       1.22008000
H        2.49196600      -0.57675818      -1.03423426
H        1.15601129       0.32361430      -1.56309980
H        0.21565824      -1.96150510      -1.11389412
H       -0.03215885      -0.21889927       1.67702978
H       -1.18983767      -1.95011503       1.42934786
H       -2.35884842      -0.93122298      -0.93921347
H       -2.55200163       1.37125192       0.06302158
H       -1.63518454       1.44971902      -1.44064312
H       -0.78921763       1.51394258       0.09167332
18
Frame=4 idx=000848 GeodesicLength=0.6301073577445871 rxn_smarts="[C:1]([C:2]([C@@:3]1([H:12])[C:4]([H:13])([H:14])[C@:5]1([C:6]([H:16])([H:17])[H:18])[H:15])([H:10])[H:11])([H:7])([H:8])[H:9]>>[C:1](=[C:2]([H:10])[H:11])([H:7])[H:9].[C:3]1([H:12])=[C:4]([H:14])[C:5]1([C:6]([H:16])([H:17])[H:18])[H:15].[H:8][H:13]"
C        1.99252169       0.58572544       0.55048571
C        1.68566896       0.04766048      -0.67233967
C       -0.22251238      -1.20649217      -0.45001979
C       -0.91103682      -1.21145197       0.71157994
C       -1.51775046      -0.45727878      -0.43373890
C       -1.64896093       1.04932620      -0.42188881
H        1.87013087       1.65540326       0.69327715
H        0.75169539       0.30935139       1.68121923
H        2.73817745       0.15895229       1.21196428
H        2.56946839      -0.43440100      -1.09163275
H        1.14496610       0.22868503      -1.59276589
H        0.22016860      -1.96758304      -1.06975017
H       -0.05098845      -0.21452007       1.70706373
H       -1.23646314      -1.95365281       1.42335029
H       -2.34273850      -0.93311506      -0.96927543
H       -2.58265595       1.36243896       0.05077180
H       -1.63929819       1.46011957      -1.43510341
H       -0.82039263       1.52083228       0.10680269
18
Frame=5 idx=000848 GeodesicLength=0.7825061485956291 rxn_smarts="[C:1]([C:2]([C@@:3]1([H:12])[C:4]([H:13])([H:14])[C@:5]1([C:6]([H:16])([H:17])[H:18])[H:15])([H:10])[H:11])([H:7])([H:8])[H:9]>>[C:1](=[C:2]([H:10])[H:11])([H:7])[H:9].[C:3]1([H:12])=[C:4]([H:14])[C:5]1([C:6]([H:16])([H:17])[H:18])[H:15].[H:8][H:13]"
C        2.00452827       0.55211765       0.55228471
C        1.68792004       0.04952592      -0.68773057
C       -0.22055977      -1.19857195      -0.42136041
C       -0.93987904      -1.20274172       0.72689830
C       -1.51953630      -0.45501116      -0.43749886
C       -1.66775305       1.04999853      -0.42295953
H        1.93089823       1.62601632       0.70198163
H        0.76528485       0.33167328       1.70043652
H        2.75169649       0.10607857       1.19973941
H        2.62740902      -0.26090769      -1.15340557
H        1.13846823       0.12641248      -1.61867040
H        0.22602036      -1.97531848      -1.01944222
H       -0.07160280      -0.20792944       1.73899573
H       -1.28379273      -1.95525973       1.41919629
H       -2.32375689      -0.93617239      -0.99893730
H       -2.61307496       1.35372406       0.03250430
H       -1.63999892       1.46843353      -1.43283724
H       -0.85227101       1.52793222       0.12080521
18
Frame=6 idx=000848 GeodesicLength=0.9309380750085491 rxn_smarts="[C:1]([C:2]([C@@:3]1([H:12])[C:4]([H:13])([H:14])[C@:5]1([C:6]([H:16])([H:17])[H:18])[H:15])([H:10])[H:11])([H:7])([H:8])[H:9]>>[C:1](=[C:2]([H:10])[H:11])([H:7])[H:9].[C:3]1([H:12])=[C:4]([H:14])[C:5]1([C:6]([H:16])([H:17])[H:18])[H:15].[H:8][H:13]"
C        2.01778653       0.51333240       0.55326222
C        1.68776700       0.05552448      -0.70522683
C       -0.21750357      -1.19054523      -0.38904102
C       -0.96895727      -1.19243423       0.74387768
C       -1.51911336      -0.45344625      -0.44073706
C       -1.68397520       1.04962184      -0.42794938
H        1.99854614       1.58824929       0.71786268
H        0.78364345       0.35290246       1.72041238
H        2.76485830       0.03834624       1.18028572
H        2.65148203      -0.05394333      -1.21656005
H        1.13916377       0.01607260      -1.64000554
H        0.23379202      -1.98367131      -0.96197759
H       -0.09413981      -0.19790270       1.77204955
H       -1.33121031      -1.95403821       1.41698284
H       -2.30044301      -0.94113186      -1.02760727
H       -2.64216872       1.34427636       0.00564667
H       -1.63479379       1.47371673      -1.43458821
H       -0.88473420       1.53507071       0.13331319
18
Frame=7 idx=000848 GeodesicLength=1.077153255358215 rxn_smarts="[C:1]([C:2]([C@@:3]1([H:12])[C:4]([H:13])([H:14])[C@:5]1([C:6]([H:16])([H:17])[H:18])[H:15])([H:10])[H:11])([H:7])([H:8])[H:9]>>[C:1](=[C:2]([H:10])[H:11])([H:7])[H:9].[C:3]1([H:12])=[C:4]([H:14])[C:5]1([C:6]([H:16])([H:17])[H:18])[H:15].[H:8][H:13]"
C        2.03382500       0.47110717       0.55269909
C        1.68192486       0.06769300      -0.72390610
C       -0.21363589      -1.18297897      -0.35461866
C       -0.99793337      -1.18020858       0.76182016
C       -1.51691082      -0.45221146      -0.44405569
C       -1.69705545       1.04893848      -0.43746132
H        2.07105238       1.54268563       0.74195095
H        0.81116068       0.36894994       1.74334098
H        2.78200294      -0.04107927       1.14946464
H        2.62622635       0.18591878      -1.27463510
H        1.15543616      -0.10915952      -1.65667095
H        0.24381651      -1.99343943      -0.89847448
H       -0.11748655      -0.18452552       1.80659296
H       -1.37842115      -1.94941046       1.41640517
H       -2.27388549      -0.94744503      -1.05591642
H       -2.67036518       1.33538590      -0.03258745
H       -1.62067765       1.47703768      -1.44066948
H       -0.91907332       1.54274166       0.14672171
18
Frame=8 idx=000848 GeodesicLength=1.2176429618989681 rxn_smarts="[C:1]([C:2]([C@@:3]1([H:12])[C:4]([H:13])([H:14])[C@:5]1([C:6]([H:16])([H:17])[H:18])[H:15])([H:10])[H:11])([H:7])([H:8])[H:9]>>[C:1](=[C:2]([H:10])[H:11])([H:7])[H:9].[C:3]1([H:12])=[C:4]([H:14])[C:5]1([C:6]([H:16])([H:17])[H:18])[H:15].[H:8][H:13]"
C        2.05257172       0.43159166       0.54936994
C        1.66466398       0.08476669      -0.73831846
C       -0.21119108      -1.17611257      -0.32438575
C       -1.02390369      -1.16716540       0.77694049
C       -1.51377531      -0.44970304      -0.44791922
C       -1.70469986       1.04973850      -0.45056219
H        2.13880768       1.49596304       0.76651100
H        0.85011674       0.37471296       1.76780546
H        2.80680062      -0.11629007       1.10620404
H        2.53350901       0.43926844      -1.31444627
H        1.20432651      -0.25723767      -1.66033823
H        0.25219779      -2.00428363      -0.83581746
H       -0.13824767      -0.17278845       1.83920705
H       -1.42033153      -1.94349724       1.41352987
H       -2.24797256      -0.95121330      -1.08124788
H       -2.69337399       1.32967655      -0.08008255
H       -1.59560520       1.48183415      -1.44885060
H       -0.95389317       1.55073939       0.16240078
18
Frame=9 idx=000848 GeodesicLength=1.3608256312541551 rxn_smarts="[C:1]([C:2]([C@@:3]1([H:12])[C:4]([H:13])([H:14])[C@:5]1([C:6]([H:16])([H:17])[H:18])[H:15])([H:10])[H:11])([H:7])([H:8])[H:9]>>[C:1](=[C:2]([H:10])[H:11])([H:7])[H:9].[C:3]1([H:12])=[C:4]([H:14])[C:5]1([C:6]([H:16])([H:17])[H:18])[H:15].[H:8][H:13]"
C        2.08307802       0.40470841       0.54578818
C        1.64427343       0.09092163      -0.73848311
C       -0.21530153      -1.17286889      -0.30877505
C       -1.04698045      -1.15604969       0.78407407
C       -1.51478317      -0.44574430      -0.45415803
C       -1.70958916       1.05273779      -0.46383742
H        2.19831328       1.46317241       0.77932038
H        0.90000822       0.37313922       1.79073260
H        2.85274864      -0.16095766       1.06165118
H        2.37540017       0.66309520      -1.33169644
H        1.29342799      -0.41283259      -1.63450891
H        0.24820792      -2.01775142      -0.79260424
H       -0.15337144      -0.16866537       1.86621815
H       -1.45791082      -1.93934116       1.40322945
H       -2.23231712      -0.95001965      -1.10381292
H       -2.71214841       1.32875726      -0.12895643
H       -1.56501284       1.49046025      -1.45502674
H       -0.98804274       1.55723857       0.18084529
18
Frame=10 idx=000848 GeodesicLength=1.5201313330398083 rxn_smarts="[C:1]([C:2]([C@@:3]1([H:12])[C:4]([H:13])([H:14])[C@:5]1([C:6]([H:16])([H:17])[H:18])[H:15])([H:10])[H:11])([H:7])([H:8])[H:9]>>[C:1](=[C:2]([H:10])[H:11])([H:7])[H:9].[C:3]1([H:12])=[C:4]([H:14])[C:5]1([C:6]([H:16])([H:17])[H:18])[H:15].[H:8][H:13]"
C        2.12654210       0.39266433       0.54455677
C        1.62785716       0.08078210      -0.72322940
C       -0.22601606      -1.17144205      -0.31265832
C       -1.06456286      -1.14830534       0.78069032
C       -1.52182804      -0.43998427      -0.46374391
C       -1.71642886       1.05832976      -0.47500138
H        2.25581450       1.45089955       0.77492244
H        0.95575445       0.37472251       1.80881276
H        2.91631599      -0.17413062       1.02805595
H        2.17429321       0.82432226      -1.32525742
H        1.41495920      -0.56023527      -1.57448056
H        0.22950946      -2.03091836      -0.77890943
H       -0.16342087      -0.17226245       1.88547593
H       -1.48612673      -1.93998727       1.38308709
H       -2.23054460      -0.94362293      -1.12345303
H       -2.72867433       1.33177802      -0.16799612
H       -1.54336422       1.50439279      -1.45814453
H       -1.02007950       1.56299722       0.19727283
18
Frame=11 idx=000848 GeodesicLength=1.6909519132552209 rxn_smarts="[C:1]([C:2]([C@@:3]1([H:12])[C:4]([H:13])([H:14])[C@:5]1([C:6]([H:16])([H:17])[H:18])[H:15])([H:10])[H:11])([H:7])([H:8])[H:9]>>[C:1](=[C:2]([H:10])[H:11])([H:7])[H:9].[C:3]1([H:12])=[C:4]([H:14])[C:5]1([C:6]([H:16])([H:17])[H:18])[H:15].[H:8][H:13]"
C        2.17758066       0.39549744       0.54405495
C        1.62477504       0.05007101      -0.69576327
C       -0.23965779      -1.16955762      -0.33130907
C       -1.07828786      -1.14433085       0.76694005
C       -1.53184897      -0.43109590      -0.47642213
C       -1.72620049       1.06652532      -0.48003112
H        2.30132506       1.45932993       0.74747003
H        1.01241958       0.38468443       1.82060988
H        2.99298324      -0.15088431       1.00666057
H        1.96698533       0.90333296      -1.29993167
H        1.53977438      -0.69053377      -1.48584379
H        0.20253173      -2.03977879      -0.79073658
H       -0.17040123      -0.18713735       1.89839247
H       -1.50931418      -1.94589613       1.34946038
H       -2.23610742      -0.92933886      -1.14415741
H       -2.74507014       1.33704700      -0.19264959
H       -1.53131292       1.52565302      -1.45258038
H       -1.05017401       1.56641249       0.21583668
18
Frame=12 idx=000848 GeodesicLength=1.8663332370809902 rxn_smarts="[C:1]([C:2]([C@@:3]1([H:12])[C:4]([H:13])([H:14])[C@:5]1([C:6]([H:16])([H:17])[H:18])[H:15])([H:10])[H:11])([H:7])([H:8])[H:9]>>[C:1](=[C:2]([H:10])[H:11])([H:7])[H:9].[C:3]1([H:12])=[C:4]([H:14])[C:5]1([C:6]([H:16])([H:17])[H:18])[H:15].[H:8][H:13]"
C        2.23136562       0.40330006       0.54228012
C        1.62789953       0.01660670      -0.66640733
C       -0.25292373      -1.16445200      -0.35685202
C       -1.08950103      -1.14288843       0.74836051
C       -1.54357518      -0.42162988      -0.49096718
C       -1.74177913       1.07509158      -0.48165429
H        2.35273494       1.47434910       0.70657025
H        1.06822851       0.41174932       1.82812678
H        3.06734313      -0.12288218       0.99138248
H        1.78098705       0.92930338      -1.25926393
H        1.65258901      -0.80051211      -1.38202816
H        0.17657903      -2.04153655      -0.81608722
H       -0.17888790      -0.20536385       1.91007369
H       -1.52699156      -1.95645715       1.30992339
H       -2.24399030      -0.91433374      -1.16658395
H       -2.76583642       1.33978799      -0.20721578
H       -1.53190835       1.55000129      -1.44340284
H       -1.08233324       1.56986648       0.23374548
18
Frame=13 idx=000848 GeodesicLength=2.042417052992137 rxn_smarts="[C:1]([C:2]([C@@:3]1([H:12])[C:4]([H:13])([H:14])[C@:5]1([C:6]([H:16])([H:17])[H:18])[H:15])([H:10])[H:11])([H:7])([H:8])[H:9]>>[C:1](=[C:2]([H:10])[H:11])([H:7])[H:9].[C:3]1([H:12])=[C:4]([H:14])[C:5]1([C:6]([H:16])([H:17])[H:18])[H:15].[H:8][H:13]"
C        2.28544435       0.41245941       0.53655553
C        1.63448015      -0.01625572      -0.63822413
C       -0.26409869      -1.15656507      -0.38350049
C       -1.09999959      -1.14273447       0.72735633
C       -1.55442241      -0.41166332      -0.50691834
C       -1.76065870       1.08335997      -0.48123139
H        2.40862500       1.48945849       0.65381204
H        1.12542424       0.45257170       1.83152022
H        3.13787828      -0.09600848       0.97471489
H        1.61110269       0.92505324      -1.20281501
H        1.74785318      -0.89601091      -1.26597452
H        0.15593330      -2.03748627      -0.84463917
H       -0.19000883      -0.22672835       1.92198728
H       -1.54295114      -1.96944491       1.26563887
H       -2.24896225      -0.89853298      -1.19240776
H       -2.79004396       1.33950714      -0.21888270
H       -1.53741261       1.57671565      -1.43050077
H       -1.11818302       1.57230487       0.25350911
18
Frame=14 idx=000848 GeodesicLength=2.2182910372283033 rxn_smarts="[C:1]([C:2]([C@@:3]1([H:12])[C:4]([H:13])([H:14])[C@:5]1([C:6]([H:16])([H:17])[H:18])[H:15])([H:10])[H:11])([H:7])([H:8])[H:9]>>[C:1](=[C:2]([H:10])[H:11])([H:7])[H:9].[C:3]1([H:12])=[C:4]([H:14])[C:5]1([C:6]([H:16])([H:17])[H:18])[H:15].[H:8][H:13]"
C        2.33973650       0.41792139       0.52621518
C        1.64069458      -0.04193658      -0.61545325
C       -0.27244408      -1.14665109      -0.40740854
C       -1.11106951      -1.14305350       0.70665330
C       -1.56392110      -0.40290025      -0.52371622
C       -1.78289938       1.08966650      -0.48132969
H        2.47723997       1.49770695       0.59324992
H        1.18600328       0.50802287       1.83076552
H        3.20199195      -0.08328609       0.95344968
H        1.45632128       0.91220052      -1.12533479
H        1.82375987      -0.97309022      -1.14679903
H        0.14362586      -2.02931534      -0.86948037
H       -0.20633522      -0.24746282       1.93600085
H       -1.55880230      -1.98309445       1.22070404
H       -2.24945260      -0.88544959      -1.22100070
H       -2.81847730       1.33457938      -0.23292255
H       -1.54613182       1.60240983      -1.41696010
H       -1.15983996       1.57373251       0.27336674
18
Frame=15 idx=000848 GeodesicLength=2.3934796772509563 rxn_smarts="[C:1]([C:2]([C@@:3]1([H:12])[C:4]([H:13])([H:14])[C@:5]1([C:6]([H:16])([H:17])[H:18])[H:15])([H:10])[H:11])([H:7])([H:8])[H:9]>>[C:1](=[C:2]([H:10])[H:11])([H:7])[H:9].[C:3]1([H:12])=[C:4]([H:14])[C:5]1([C:6]([H:16])([H:17])[H:18])[H:15].[H:8][H:13]"
C        2.39350070       0.42072919       0.51090447
C        1.64534085      -0.06081052      -0.59823565
C       -0.27870050      -1.13607622      -0.42723907
C       -1.12421235      -1.14455780       0.68671149
C       -1.57193634      -0.39526165      -0.54090447
C       -1.80681503       1.09403414      -0.48149426
H        2.55447930       1.49954456       0.52309231
H        1.25133844       0.57764937       1.82494917
H        3.26092059      -0.08097352       0.92712796
H        1.31705574       0.89450073      -1.02751356
H        1.88215576      -1.03383273      -1.02653405
H        0.13807449      -2.01895863      -0.88884227
H       -0.22870399      -0.27052763       1.95310690
H       -1.57694826      -1.99797978       1.17453504
H       -2.24498313      -0.87380251      -1.25270339
H       -2.84972603       1.32599279      -0.25201708
H       -1.55308795       1.62755918      -1.40088017
H       -1.20775229       1.57277103       0.29593661
18
Frame=16 idx=000848 GeodesicLength=2.5676470300120853 rxn_smarts="[C:1]([C:2]([C@@:3]1([H:12])[C:4]([H:13])([H:14])[C@:5]1([C:6]([H:16])([H:17])[H:18])[H:15])([H:10])[H:11])([H:7])([H:8])[H:9]>>[C:1](=[C:2]([H:10])[H:11])([H:7])[H:9].[C:3]1([H:12])=[C:4]([H:14])[C:5]1([C:6]([H:16])([H:17])[H:18])[H:15].[H:8][H:13]"
C        2.44620109       0.42352893       0.49069996
C        1.64759961      -0.07479188      -0.58459434
C       -0.28415279      -1.12644880      -0.44285130
C       -1.14102091      -1.14858902       0.66732925
C       -1.57865427      -0.38851319      -0.55814709
C       -1.83028282       1.09691172      -0.48078579
H        2.63423167       1.49723095       0.44120281
H        1.32271377       0.66134493       1.81365384
H        3.31672463      -0.08205997       0.89579045
H        1.19485301       0.87050743      -0.91278767
H        1.92510906      -1.08040315      -0.90525135
H        0.13691197      -2.00823937      -0.90309202
H       -0.25838966      -0.30030824       1.97430804
H       -1.60013048      -2.01520018       1.12590893
H       -2.23587782      -0.86172027      -1.28775181
H       -2.88129090       1.31583201      -0.27694857
H       -1.55370717       1.65291502      -1.37998690
H       -1.26083800       1.56800307       0.32330354
