15
Frame=0 idx=001703 GeodesicLength=0.0 rxn_smarts="[C:1]([C:2]1([H:9])[C:3]([H:10])([H:11])[C:4]([H:12])([H:13])[C:5]1([H:14])[H:15])([H:6])([H:7])[H:8]>>[C:1]([C:2]([C:3]([H:10])([H:11])[H:12])([C:5]([C:4][H:13])([H:14])[H:15])[H:9])([H:6])([H:7])[H:8]"
C        1.74558420       0.05344471       0.19854939
C        0.25851278       0.24471309       0.41981115
C       -0.56288461      -1.03705445       0.51215922
C       -1.91854231       0.43874130      -0.37202883
C       -0.52002666       0.94420757      -0.69806663
H        2.25560626       1.01515795       0.11182685
H        2.20047639      -0.49131561       1.02985440
H        1.93646427      -0.51131771      -0.71745785
H        0.09179655       0.80681790       1.34316449
H       -0.41650389      -1.70835995      -0.33250087
H       -0.50744993      -1.59097606       1.45176986
H       -1.67534632      -0.62565857       0.56312147
H       -2.28945606      -0.19897414      -1.19056588
H       -0.46950393       2.03449543      -0.64661511
H       -0.12872672       0.62607860      -1.67302167
15
Frame=1 idx=001703 GeodesicLength=0.05620460936125135 rxn_smarts="[C:1]([C:2]1([H:9])[C:3]([H:10])([H:11])[C:4]([H:12])([H:13])[C:5]1([H:14])[H:15])([H:6])([H:7])[H:8]>>[C:1]([C:2]([C:3]([H:10])([H:11])[H:12])([C:5]([C:4][H:13])([H:14])[H:15])[H:9])([H:6])([H:7])[H:8]"
C        1.74489965       0.05366613       0.19799123
C        0.25792788       0.24484135       0.42067191
C       -0.56595354      -1.03575818       0.50991945
C       -1.91263285       0.43367427      -0.37693112
C       -0.51870728       0.94577386      -0.69950447
H        2.25461223       1.01547714       0.11054577
H        2.19970126      -0.49177618       1.02884306
H        1.93491577      -0.51156180      -0.71795249
H        0.09194823       0.80720393       1.34388682
H       -0.41269405      -1.70833441      -0.33249427
H       -0.50029563      -1.59349564       1.44751285
H       -1.69321713      -0.62193310       0.58099490
H       -2.28770548      -0.20143403      -1.19507444
H       -0.46651944       2.03582882      -0.64440823
H       -0.12627962       0.62782785      -1.67400098
15
Frame=2 idx=001703 GeodesicLength=0.11152875959014408 rxn_smarts="[C:1]([C:2]1([H:9])[C:3]([H:10])([H:11])[C:4]([H:12])([H:13])[C:5]1([H:14])[H:15])([H:6])([H:7])[H:8]>>[C:1]([C:2]([C:3]([H:10])([H:11])[H:12])([C:5]([C:4][H:13])([H:14])[H:15])[H:9])([H:6])([H:7])[H:8]"
C        1.74425577       0.05388094       0.19746108
C        0.25738728       0.24496412       0.42148467
C       -0.56899717      -1.03454136       0.50758589
C       -1.90667329       0.42839479      -0.38142583
C       -0.51737759       0.94730230      -0.70101472
H        2.25362664       1.01581165       0.10929724
H        2.19887903      -0.49219979       1.02787096
H        1.93343896      -0.51176771      -0.71844143
H        0.09208587       0.80752936       1.34456868
H       -0.40869582      -1.70839403      -0.33255995
H       -0.49361982      -1.59577007       1.44318572
H       -1.71081018      -0.61803808       0.59849559
H       -2.28606601      -0.20384982      -1.19926315
H       -0.46357550       2.03710579      -0.64225041
H       -0.12385816       0.62957191      -1.67499434
15
Frame=3 idx=001703 GeodesicLength=0.1662207134951854 rxn_smarts="[C:1]([C:2]1([H:9])[C:3]([H:10])([H:11])[C:4]([H:12])([H:13])[C:5]1([H:14])[H:15])([H:6])([H:7])[H:8]>>[C:1]([C:2]([C:3]([H:10])([H:11])[H:12])([C:5]([C:4][H:13])([H:14])[H:15])[H:9])([H:6])([H:7])[H:8]"
C        1.74364271       0.05408367       0.19692517
C        0.25690331       0.24504524       0.42225642
C       -0.57211784      -1.03338263       0.50515989
C       -1.90063353       0.42267576      -0.38562356
C       -0.51608705       0.94884440      -0.70253455
H        2.25265881       1.01618419       0.10812092
H        2.19805165      -0.49272868       1.02689699
H        1.93205422      -0.51188474      -0.71898587
H        0.09224274       0.80778933       1.34523568
H       -0.40446219      -1.70850080      -0.33267491
H       -0.48745989      -1.59776872       1.43867978
H       -1.72818581      -0.61365814       0.61595409
H       -2.28444783      -0.20637319      -1.20328939
H       -0.46072821       2.03831109      -0.64007735
H       -0.12143111       0.63136321      -1.67604331
15
Frame=4 idx=001703 GeodesicLength=0.22029117065246506 rxn_smarts="[C:1]([C:2]1([H:9])[C:3]([H:10])([H:11])[C:4]([H:12])([H:13])[C:5]1([H:14])[H:15])([H:6])([H:7])[H:8]>>[C:1]([C:2]([C:3]([H:10])([H:11])[H:12])([C:5]([C:4][H:13])([H:14])[H:15])[H:9])([H:6])([H:7])[H:8]"
C        1.74306048       0.05431376       0.19638890
C        0.25646449       0.24512165       0.42297905
C       -0.57525649      -1.03226493       0.50265291
C       -1.89453069       0.41663306      -0.38948536
C       -0.51478978       0.95036834      -0.70412060
H        2.25168141       1.01653171       0.10694623
H        2.19722610      -0.49327370       1.02588230
H        1.93070347      -0.51199826      -0.71950822
H        0.09239153       0.80801014       1.34587862
H       -0.40008265      -1.70867481      -0.33284353
H       -0.48173810      -1.59950035       1.43408163
H       -1.74537849      -0.60902710       0.63326227
H       -2.28277568      -0.20892056      -1.20717265
H       -0.45799725       2.03947584      -0.63783425
H       -0.11897835       0.63320521      -1.67710729
15
Frame=5 idx=001703 GeodesicLength=0.2739962506013596 rxn_smarts="[C:1]([C:2]1([H:9])[C:3]([H:10])([H:11])[C:4]([H:12])([H:13])[C:5]1([H:14])[H:15])([H:6])([H:7])[H:8]>>[C:1]([C:2]([C:3]([H:10])([H:11])[H:12])([C:5]([C:4][H:13])([H:14])[H:15])[H:9])([H:6])([H:7])[H:8]"
C        1.74248640       0.05454939       0.19585327
C        0.25604425       0.24518895       0.42368699
C       -0.57845426      -1.03115265       0.50007878
C       -1.88832297       0.41039644      -0.39327945
C       -0.51352750       0.95191987      -0.70573648
H        2.25070514       1.01692927       0.10582421
H        2.19638731      -0.49392890       1.02487427
H        1.92938854      -0.51202363      -0.72010106
H        0.09258427       0.80821772       1.34652551
H       -0.39564257      -1.70885685      -0.33299860
H       -0.47627362      -1.60108613       1.42942942
H       -1.76247202      -0.60433875       0.65062290
H       -2.28112957      -0.21151785      -1.21096432
H       -0.45527372       2.04061843      -0.63559996
H       -0.11649967       0.63508467      -1.67821549
15
Frame=6 idx=001703 GeodesicLength=0.32673735149279703 rxn_smarts="[C:1]([C:2]1([H:9])[C:3]([H:10])([H:11])[C:4]([H:12])([H:13])[C:5]1([H:14])[H:15])([H:6])([H:7])[H:8]>>[C:1]([C:2]([C:3]([H:10])([H:11])[H:12])([C:5]([C:4][H:13])([H:14])[H:15])[H:9])([H:6])([H:7])[H:8]"
C        1.74196705       0.05476869       0.19532614
C        0.25568420       0.24521678       0.42432325
C       -0.58159060      -1.03012423       0.49745013
C       -1.88213075       0.40390474      -0.39658876
C       -0.51225721       0.95345711      -0.70738645
H        2.24975743       1.01730276       0.10470508
H        2.19552399      -0.49450994       1.02392267
H        1.92817622      -0.51206182      -0.72064388
H        0.09276379       0.80837486       1.34712757
H       -0.39097640      -1.70911934      -0.33322030
H       -0.47127034      -1.60244244       1.42469562
H       -1.77930753      -0.59937768       0.66748336
H       -2.27960073      -0.21403930      -1.21448193
H       -0.45266792       2.04168292      -0.63339714
H       -0.11407117       0.63696689      -1.67931535
15
Frame=7 idx=001703 GeodesicLength=0.3790567348242265 rxn_smarts="[C:1]([C:2]1([H:9])[C:3]([H:10])([H:11])[C:4]([H:12])([H:13])[C:5]1([H:14])[H:15])([H:6])([H:7])[H:8]>>[C:1]([C:2]([C:3]([H:10])([H:11])[H:12])([C:5]([C:4][H:13])([H:14])[H:15])[H:9])([H:6])([H:7])[H:8]"
C        1.74147783       0.05498525       0.19479152
C        0.25536165       0.24523122       0.42493175
C       -0.58476440      -1.02914228       0.49470010
C       -1.87586481       0.39714932      -0.39968198
C       -0.51103307       0.95501376      -0.70906583
H        2.24881619       1.01770290       0.10363196
H        2.19463634      -0.49517756       1.02295706
H        1.92701445      -0.51202020      -0.72123140
H        0.09292333       0.80848588       1.34770787
H       -0.38614575      -1.70944074      -0.33347546
H       -0.46662669      -1.60361444       1.41990754
H       -1.79600772      -0.59408635       0.68426434
H       -2.27806305      -0.21668646      -1.21783674
H       -0.45009251       2.04271951      -0.63113868
H       -0.11163179       0.63888019      -1.68046206
15
Frame=8 idx=001703 GeodesicLength=0.4310547367076816 rxn_smarts="[C:1]([C:2]1([H:9])[C:3]([H:10])([H:11])[C:4]([H:12])([H:13])[C:5]1([H:14])[H:15])([H:6])([H:7])[H:8]>>[C:1]([C:2]([C:3]([H:10])([H:11])[H:12])([C:5]([C:4][H:13])([H:14])[H:15])[H:9])([H:6])([H:7])[H:8]"
C        1.74100788       0.05521271       0.19426604
C        0.25506347       0.24521326       0.42549177
C       -0.58789088      -1.02827368       0.49183468
C       -1.86955901       0.39011692      -0.40248457
C       -0.50981748       0.95649014      -0.71078844
H        2.24786389       1.01812740       0.10259449
H        2.19373070      -0.49585107       1.02201631
H        1.92592209      -0.51190426      -0.72183192
H        0.09306960       0.80849609       1.34826739
H       -0.38111105      -1.70982280      -0.33381409
H       -0.46240373      -1.60458527       1.41501622
H       -1.81256306      -0.58840501       0.70094830
H       -2.27656633      -0.21934804      -1.22098499
H       -0.44755149       2.04370484      -0.62889385
H       -0.10919457       0.64082877      -1.68163735
15
Frame=9 idx=001703 GeodesicLength=0.48297466408473183 rxn_smarts="[C:1]([C:2]1([H:9])[C:3]([H:10])([H:11])[C:4]([H:12])([H:13])[C:5]1([H:14])[H:15])([H:6])([H:7])[H:8]>>[C:1]([C:2]([C:3]([H:10])([H:11])[H:12])([C:5]([C:4][H:13])([H:14])[H:15])[H:9])([H:6])([H:7])[H:8]"
C        1.74059188       0.05542803       0.19375272
C        0.25484290       0.24515186       0.42599396
C       -0.59113153      -1.02743558       0.48883280
C       -1.86302885       0.38253403      -0.40508564
C       -0.50862656       0.95801487      -0.71251513
H        2.24693255       1.01858183       0.10160703
H        2.19282598      -0.49656394       1.02109127
H        1.92491720      -0.51174368      -0.72245791
H        0.09324373       0.80846578       1.34881706
H       -0.37587592      -1.71030539      -0.33424469
H       -0.45867285      -1.60534793       1.40984643
H       -1.82903383      -0.58215349       0.71772298
H       -2.27507187      -0.22215045      -1.22390194
H       -0.44517145       2.04467698      -0.62660149
H       -0.10674138       0.64284707      -1.68285746
15
Frame=10 idx=001703 GeodesicLength=0.534305830480087 rxn_smarts="[C:1]([C:2]1([H:9])[C:3]([H:10])([H:11])[C:4]([H:12])([H:13])[C:5]1([H:14])[H:15])([H:6])([H:7])[H:8]>>[C:1]([C:2]([C:3]([H:10])([H:11])[H:12])([C:5]([C:4][H:13])([H:14])[H:15])[H:9])([H:6])([H:7])[H:8]"
C        1.74021270       0.05564677       0.19324765
C        0.25465598       0.24505021       0.42646018
C       -0.59428996      -1.02671390       0.48570856
C       -1.85650440       0.37479218      -0.40738898
C       -0.50745780       0.95952142      -0.71426485
H        2.24599926       1.01905940       0.10066969
H        2.19190625      -0.49733835       1.02016046
H        1.92398530      -0.51151130      -0.72309430
H        0.09341259       0.80836257       1.34932681
H       -0.37044937      -1.71080873      -0.33468128
H       -0.45530847      -1.60589875       1.40471057
H       -1.84531363      -0.57565877       0.73419734
H       -2.27365451      -0.22492148      -1.22664956
H       -0.44286761       2.04556113      -0.62432045
H       -0.10432631       0.64485759      -1.68408183
15
Frame=11 idx=001703 GeodesicLength=0.5853191211356941 rxn_smarts="[C:1]([C:2]1([H:9])[C:3]([H:10])([H:11])[C:4]([H:12])([H:13])[C:5]1([H:14])[H:15])([H:6])([H:7])[H:8]>>[C:1]([C:2]([C:3]([H:10])([H:11])[H:12])([C:5]([C:4][H:13])([H:14])[H:15])[H:9])([H:6])([H:7])[H:8]"
C        1.73986015       0.05589738       0.19273334
C        0.25453028       0.24492929       0.42687835
C       -0.59740295      -1.02608322       0.48247355
C       -1.84994142       0.36678164      -0.40939225
C       -0.50631955       0.96099861      -0.71604579
H        2.24506784       1.01956257       0.09977006
H        2.19098857      -0.49815807       1.01922578
H        1.92312790      -0.51122633      -0.72375571
H        0.09357490       0.80819604       1.34983214
H       -0.36487243      -1.71139030      -0.33515253
H       -0.45233469      -1.60624971       1.39953671
H       -1.86149222      -0.56884653       0.75047429
H       -2.27224625      -0.22771825      -1.22922882
H       -0.44062461       2.04639769      -0.62202385
H       -0.10191552       0.64690918      -1.68532527
15
Frame=12 idx=001703 GeodesicLength=0.6360445976717906 rxn_smarts="[C:1]([C:2]1([H:9])[C:3]([H:10])([H:11])[C:4]([H:12])([H:13])[C:5]1([H:14])[H:15])([H:6])([H:7])[H:8]>>[C:1]([C:2]([C:3]([H:10])([H:11])[H:12])([C:5]([C:4][H:13])([H:14])[H:15])[H:9])([H:6])([H:7])[H:8]"
C        1.73953524       0.05615428       0.19222114
C        0.25441438       0.24474492       0.42727780
C       -0.60049763      -1.02554171       0.47909220
C       -1.84333697       0.35856634      -0.41118112
C       -0.50522432       0.96244883      -0.71785070
H        2.24412692       1.02009151       0.09889796
H        2.19005490      -0.49897717       1.01831354
H        1.92232768      -0.51088734      -0.72441134
H        0.09373151       0.80794407       1.35033377
H       -0.35907389      -1.71201554      -0.33566254
H       -0.44964495      -1.60651034       1.39429922
H       -1.87754980      -0.56161155       0.76662457
H       -2.27088914      -0.23050963      -1.23164580
H       -0.43844623       2.04718937      -0.61970297
H       -0.09952770       0.64891396      -1.68660573
15
Frame=13 idx=001703 GeodesicLength=0.6864712546166946 rxn_smarts="[C:1]([C:2]1([H:9])[C:3]([H:10])([H:11])[C:4]([H:12])([H:13])[C:5]1([H:14])[H:15])([H:6])([H:7])[H:8]>>[C:1]([C:2]([C:3]([H:10])([H:11])[H:12])([C:5]([C:4][H:13])([H:14])[H:15])[H:9])([H:6])([H:7])[H:8]"
C        1.73923472       0.05640490       0.19168796
C        0.25434018       0.24452116       0.42764921
C       -0.60356636      -1.02506821       0.47571387
C       -1.83662619       0.35002037      -0.41278491
C       -0.50420794       0.96387467      -0.71965179
H        2.24318157       1.02063777       0.09803453
H        2.18912890      -0.49983230       1.01741512
H        1.92156572      -0.51053483      -0.72511576
H        0.09388453       0.80764236       1.35081676
H       -0.35311862      -1.71275267      -0.33623586
H       -0.44724384      -1.60664671       1.38908018
H       -1.89351284      -0.55393298       0.78254039
H       -2.26954256      -0.23335048      -1.23395769
H       -0.43634545       2.04796225      -0.61732588
H       -0.09717182       0.65105468      -1.68786613
15
Frame=14 idx=001703 GeodesicLength=0.7364618532626972 rxn_smarts="[C:1]([C:2]1([H:9])[C:3]([H:10])([H:11])[C:4]([H:12])([H:13])[C:5]1([H:14])[H:15])([H:6])([H:7])[H:8]>>[C:1]([C:2]([C:3]([H:10])([H:11])[H:12])([C:5]([C:4][H:13])([H:14])[H:15])[H:9])([H:6])([H:7])[H:8]"
C        1.73895956       0.05665549       0.19119038
C        0.25428369       0.24428555       0.42799494
C       -0.60649817      -1.02475313       0.47218259
C       -1.82990447       0.34136801      -0.41403208
C       -0.50321182       0.96526275      -0.72143904
H        2.24220633       1.02123204       0.09725327
H        2.18821482      -0.50065845       1.01650678
H        1.92088512      -0.51006639      -0.72581111
H        0.09397739       0.80726492       1.35129648
H       -0.34706053      -1.71355375      -0.33682855
H       -0.44508074      -1.60667438       1.38383534
H       -1.90936051      -0.54598531       0.79805625
H       -2.26830451      -0.23603244      -1.23600622
H       -0.43424434       2.04862524      -0.61505875
H       -0.09486183       0.65302986      -1.68914029
15
Frame=15 idx=001703 GeodesicLength=0.7860901596943007 rxn_smarts="[C:1]([C:2]1([H:9])[C:3]([H:10])([H:11])[C:4]([H:12])([H:13])[C:5]1([H:14])[H:15])([H:6])([H:7])[H:8]>>[C:1]([C:2]([C:3]([H:10])([H:11])[H:12])([C:5]([C:4][H:13])([H:14])[H:15])[H:9])([H:6])([H:7])[H:8]"
C        1.73870506       0.05691217       0.19070004
C        0.25424306       0.24400602       0.42829293
C       -0.60943593      -1.02453000       0.46855633
C       -1.82316422       0.33246483      -0.41513902
C       -0.50225328       0.96663330      -0.72323593
H        2.24123333       1.02185360       0.09644951
H        2.18727268      -0.50152245       1.01560490
H        1.92023025      -0.50958329      -0.72652242
H        0.09407491       0.80682899       1.35176554
H       -0.34081031      -1.71439275      -0.33742765
H       -0.44322394      -1.60656299       1.37855994
H       -1.92503515      -0.53770690       0.81355007
H       -2.26707456      -0.23874901      -1.23802302
H       -0.43220824       2.04926724      -0.61270949
H       -0.09255364       0.65508123      -1.69042171
15
Frame=16 idx=001703 GeodesicLength=0.8356908885816533 rxn_smarts="[C:1]([C:2]1([H:9])[C:3]([H:10])([H:11])[C:4]([H:12])([H:13])[C:5]1([H:14])[H:15])([H:6])([H:7])[H:8]>>[C:1]([C:2]([C:3]([H:10])([H:11])[H:12])([C:5]([C:4][H:13])([H:14])[H:15])[H:9])([H:6])([H:7])[H:8]"
C        1.73848377       0.05719501       0.19020310
C        0.25423791       0.24367042       0.42859289
C       -0.61225614      -1.02444775       0.46480759
C       -1.81634229       0.32332042      -0.41602659
C       -0.50138069       0.96794986      -0.72506771
H        2.24024268       1.02247931       0.09570014
H        2.18633799      -0.50239761       1.01469706
H        1.91964640      -0.50902886      -0.72725563
H        0.09413972       0.80631464       1.35221104
H       -0.33435171      -1.71530432      -0.33806558
H       -0.44166435      -1.60630601       1.37326933
H       -1.94068123      -0.52901959       0.82880475
H       -2.26591255      -0.24139283      -1.23981804
H       -0.43022830       2.04983432      -0.61035376
H       -0.09027120       0.65713298      -1.69169859
