15
Frame=0 idx=000978 GeodesicLength=0.0 rxn_smarts="[C:1]([N:2]([C:3]([H:10])([H:11])[H:12])[C:4]([C:5](=[O:6])[H:15])([H:13])[H:14])([H:7])([H:8])[H:9]>>[C:1]([N:2]([C:3]([H:10])([H:11])[H:12])[C:4]([C:5][O:6][H:15])([H:13])[H:14])([H:7])([H:8])[H:9]"
C       -1.58295784      -0.88081174      -0.21047243
N       -0.49408830      -0.12551175       0.36986517
C       -0.70393338       1.30214425       0.24726052
C        0.77744822      -0.52405464      -0.17475205
C        1.95894299       0.04326591       0.54121994
O        3.10825015      -0.11150995      -0.04184057
H       -1.69052394      -0.71471653      -1.29701845
H       -2.52126001      -0.59602108       0.26790686
H       -1.42779668      -1.94831344      -0.04308266
H       -1.63991264       1.58020811       0.73361886
H        0.10801657       1.83645055       0.74271060
H       -0.74982348       1.63490650      -0.80513489
H        0.90243579      -0.28614946      -1.25249978
H        0.89348211      -1.61207727      -0.08382149
H        3.06172045       0.40219060       1.00604037
15
Frame=1 idx=000978 GeodesicLength=0.033550868898292875 rxn_smarts="[C:1]([N:2]([C:3]([H:10])([H:11])[H:12])[C:4]([C:5](=[O:6])[H:15])([H:13])[H:14])([H:7])([H:8])[H:9]>>[C:1]([N:2]([C:3]([H:10])([H:11])[H:12])[C:4]([C:5][O:6][H:15])([H:13])[H:14])([H:7])([H:8])[H:9]"
C       -1.58008058      -0.88254863      -0.20533322
N       -0.49152860      -0.12120300       0.36795659
C       -0.70903992       1.30511660       0.24232065
C        0.77917045      -0.51609269      -0.18194179
C        1.95924736       0.06095282       0.52857555
O        3.10946458      -0.11405876      -0.03960809
H       -1.69363846      -0.71947208      -1.29174973
H       -2.51740591      -0.60081888       0.27681999
H       -1.41974033      -1.94904246      -0.03644768
H       -1.64394715       1.58017913       0.73248169
H        0.10242464       1.84490645       0.73263181
H       -0.76107469       1.63465362      -0.81079825
H        0.89943385      -0.27751932      -1.25991878
H        0.89754852      -1.60380864      -0.09136141
H        3.06916626       0.35875583       1.03637266
15
Frame=2 idx=000978 GeodesicLength=0.06698052789816272 rxn_smarts="[C:1]([N:2]([C:3]([H:10])([H:11])[H:12])[C:4]([C:5](=[O:6])[H:15])([H:13])[H:14])([H:7])([H:8])[H:9]>>[C:1]([N:2]([C:3]([H:10])([H:11])[H:12])[C:4]([C:5][O:6][H:15])([H:13])[H:14])([H:7])([H:8])[H:9]"
C       -1.57696080      -0.88415580      -0.20025605
N       -0.48874978      -0.11699970       0.36616602
C       -0.71373571       1.30799849       0.23763987
C        0.78107417      -0.50839581      -0.18891682
C        1.95984202       0.07819448       0.51608800
O        3.11067084      -0.11657629      -0.03689742
H       -1.69638248      -0.72401922      -1.28650086
H       -2.51329386      -0.60534791       0.28556425
H       -1.41157459      -1.94966616      -0.02997628
H       -1.64756382       1.58019721       0.73148555
H        0.09721180       1.85306971       0.72296283
H       -0.77175474       1.63438396      -0.81613703
H        0.89659979      -0.26926212      -1.26711730
H        0.90168866      -1.59582682      -0.09867650
H        3.07292850       0.31640598       1.06457174
15
Frame=3 idx=000978 GeodesicLength=0.0997089740151253 rxn_smarts="[C:1]([N:2]([C:3]([H:10])([H:11])[H:12])[C:4]([C:5](=[O:6])[H:15])([H:13])[H:14])([H:7])([H:8])[H:9]>>[C:1]([N:2]([C:3]([H:10])([H:11])[H:12])[C:4]([C:5][O:6][H:15])([H:13])[H:14])([H:7])([H:8])[H:9]"
C       -1.57388548      -0.88551522      -0.19556505
N       -0.48587922      -0.11334505       0.36451710
C       -0.71750774       1.31041357       0.23358176
C        0.78293999      -0.50163235      -0.19554282
C        1.96049957       0.09372301       0.50419194
O        3.11167305      -0.12030731      -0.03314522
H       -1.69873684      -0.72785253      -1.28154779
H       -2.50916042      -0.60934682       0.29373651
H       -1.40408403      -1.95013820      -0.02425094
H       -1.65020735       1.58002256       0.73090751
H        0.09296954       1.86012333       0.71435255
H       -0.78095301       1.63407024      -0.82068949
H        0.89403546      -0.26181185      -1.27387015
H        0.90525523      -1.58880797      -0.10577012
H        3.07304124       0.28040457       1.08909422
15
Frame=4 idx=000978 GeodesicLength=0.13249024827302247 rxn_smarts="[C:1]([N:2]([C:3]([H:10])([H:11])[H:12])[C:4]([C:5](=[O:6])[H:15])([H:13])[H:14])([H:7])([H:8])[H:9]>>[C:1]([N:2]([C:3]([H:10])([H:11])[H:12])[C:4]([C:5][O:6][H:15])([H:13])[H:14])([H:7])([H:8])[H:9]"
C       -1.57085233      -0.88674165      -0.19109029
N       -0.48292478      -0.10997619       0.36298206
C       -0.72076632       1.31262578       0.22990361
C        0.78486556      -0.49544534      -0.20196231
C        1.96139567       0.10827007       0.49258536
O        3.11261934      -0.12430384      -0.02903863
H       -1.70091716      -0.73136731      -1.27679727
H       -2.50507932      -0.61297788       0.30156860
H       -1.39695708      -1.95055425      -0.01892507
H       -1.65236623       1.57987222       0.73056080
H        0.08930011       1.86662084       0.70642093
H       -0.78933812       1.63373775      -0.82480371
H        0.89160185      -0.25498968      -1.28041757
H        0.90863088      -1.58241212      -0.11269410
H        3.07078792       0.24764158       1.11170760
15
Frame=5 idx=000978 GeodesicLength=0.16518055031798662 rxn_smarts="[C:1]([N:2]([C:3]([H:10])([H:11])[H:12])[C:4]([C:5](=[O:6])[H:15])([H:13])[H:14])([H:7])([H:8])[H:9]>>[C:1]([N:2]([C:3]([H:10])([H:11])[H:12])[C:4]([C:5][O:6][H:15])([H:13])[H:14])([H:7])([H:8])[H:9]"
C       -1.56782645      -0.88785414      -0.18678159
N       -0.47988089      -0.10686682       0.36151987
C       -0.72355159       1.31464075       0.22653434
C        0.78681413      -0.48974409      -0.20825463
C        1.96243907       0.12193401       0.48117286
O        3.11342774      -0.12861643      -0.02456820
H       -1.70294344      -0.73457555      -1.27218136
H       -2.50097236      -0.61632336       0.30916764
H       -1.39012039      -1.95091838      -0.01393344
H       -1.65403104       1.57969635       0.73043731
H        0.08615851       1.87261077       0.69899897
H       -0.79703273       1.63338708      -0.82854454
H        0.88926142      -0.24863336      -1.28681585
H        0.91179014      -1.57653775      -0.11955247
H        3.06646790       0.21780094       1.13280109
15
Frame=6 idx=000978 GeodesicLength=0.19783373810118737 rxn_smarts="[C:1]([N:2]([C:3]([H:10])([H:11])[H:12])[C:4]([C:5](=[O:6])[H:15])([H:13])[H:14])([H:7])([H:8])[H:9]>>[C:1]([N:2]([C:3]([H:10])([H:11])[H:12])[C:4]([C:5][O:6][H:15])([H:13])[H:14])([H:7])([H:8])[H:9]"
C       -1.56480706      -0.88886696      -0.18260458
N       -0.47675333      -0.10398130       0.36010308
C       -0.72592485       1.31647629       0.22342174
C        0.78877937      -0.48446079      -0.21447296
C        1.96360998       0.13481008       0.46988533
O        3.11409225      -0.13319129      -0.01979214
H       -1.70485906      -0.73751747      -1.26765722
H       -2.49683281      -0.61942388       0.31659666
H       -1.38352837      -1.95122914      -0.00922449
H       -1.65525336       1.57948771       0.73051909
H        0.08348788       1.87815175       0.69197818
H       -0.80415818       1.63300694      -0.83196278
H        0.88699320      -0.24266410      -1.29310818
H        0.91475758      -1.57110637      -0.12641062
H        3.06039677       0.19050854       1.15272889
15
Frame=7 idx=000978 GeodesicLength=0.23044995321523257 rxn_smarts="[C:1]([N:2]([C:3]([H:10])([H:11])[H:12])[C:4]([C:5](=[O:6])[H:15])([H:13])[H:14])([H:7])([H:8])[H:9]>>[C:1]([N:2]([C:3]([H:10])([H:11])[H:12])[C:4]([C:5][O:6][H:15])([H:13])[H:14])([H:7])([H:8])[H:9]"
C       -1.56179641      -0.88980207      -0.17853943
N       -0.47354400      -0.10129675       0.35871501
C       -0.72793014       1.31815964       0.22053201
C        0.79075614      -0.47954894      -0.22065677
C        1.96489891       0.14697245       0.45868664
O        3.11461029      -0.13800260      -0.01473834
H       -1.70669975      -0.74023584      -1.26321221
H       -2.49265787      -0.62231590       0.32389363
H       -1.37715218      -1.95150938      -0.00475706
H       -1.65606039       1.57925335       0.73081471
H        0.08125634       1.88331156       0.68527653
H       -0.81082065       1.63260826      -0.83510200
H        0.88477465      -0.23701493      -1.29933711
H        0.91755045      -1.56607729      -0.13331757
H        3.05281461       0.16549844       1.17174195
15
Frame=8 idx=000978 GeodesicLength=0.2630525056634223 rxn_smarts="[C:1]([N:2]([C:3]([H:10])([H:11])[H:12])[C:4]([C:5](=[O:6])[H:15])([H:13])[H:14])([H:7])([H:8])[H:9]>>[C:1]([N:2]([C:3]([H:10])([H:11])[H:12])[C:4]([C:5][O:6][H:15])([H:13])[H:14])([H:7])([H:8])[H:9]"
C       -1.55877944      -0.89067471      -0.17455110
N       -0.47025176      -0.09877395       0.35734041
C       -0.72961854       1.31971591       0.21781613
C        0.79274797      -0.47493639      -0.22683697
C        1.96629612       0.15852120       0.44754625
O        3.11497699      -0.14293958      -0.00945949
H       -1.70848302      -0.74277722      -1.25880990
H       -2.48842865      -0.62504201       0.33111610
H       -1.37093325      -1.95176078      -0.00046938
H       -1.65649532       1.57899423       0.73130241
H        0.07941525       1.88816020       0.67878771
H       -0.81712382       1.63218248      -0.83801614
H        0.88259708      -0.23160357      -1.30552999
H        0.92020092      -1.56137231      -0.14031472
H        3.04387946       0.14230650       1.19007870
15
Frame=9 idx=000978 GeodesicLength=0.2956720619155526 rxn_smarts="[C:1]([N:2]([C:3]([H:10])([H:11])[H:12])[C:4]([C:5](=[O:6])[H:15])([H:13])[H:14])([H:7])([H:8])[H:9]>>[C:1]([N:2]([C:3]([H:10])([H:11])[H:12])[C:4]([C:5][O:6][H:15])([H:13])[H:14])([H:7])([H:8])[H:9]"
C       -1.55574544      -0.89150227      -0.17060934
N       -0.46687175      -0.09638248       0.35596843
C       -0.73103062       1.32117100       0.21523822
C        0.79476085      -0.47056580      -0.23304490
C        1.96780274       0.16953398       0.43644175
O        3.11520660      -0.14794462      -0.00397427
H       -1.71022932      -0.74518571      -1.25442465
H       -2.48413149      -0.62763648       0.33831265
H       -1.36482365      -1.95199463       0.00369243
H       -1.65659234       1.57871991       0.73196946
H        0.07792942       1.89276241       0.67243133
H       -0.82315976       1.63173013      -0.84074978
H        0.88045346      -0.22635525      -1.31171920
H        0.92273820      -1.55693559      -0.14745052
H        3.03369309       0.12058541       1.20791838
15
Frame=10 idx=000978 GeodesicLength=0.3283516055749558 rxn_smarts="[C:1]([N:2]([C:3]([H:10])([H:11])[H:12])[C:4]([C:5](=[O:6])[H:15])([H:13])[H:14])([H:7])([H:8])[H:9]>>[C:1]([N:2]([C:3]([H:10])([H:11])[H:12])[C:4]([C:5][O:6][H:15])([H:13])[H:14])([H:7])([H:8])[H:9]"
C       -1.55270642      -0.89230963      -0.16667932
N       -0.46340181      -0.09409541       0.35458961
C       -0.73221062       1.32255617       0.21275197
C        0.79681526      -0.46637314      -0.23930869
C        1.96945704       0.18008347       0.42537171
O        3.11536239      -0.15294960       0.00171462
H       -1.71199282      -0.74749779      -1.25003278
H       -2.47978298      -0.63015585       0.34554826
H       -1.35879460      -1.95223754       0.00779168
H       -1.65640137       1.57843595       0.73279303
H        0.07677515       1.89718876       0.66611619
H       -0.82902787       1.63126960      -0.84336644
H        0.87835521      -0.22116444      -1.31793947
H        0.92520155      -1.55271332      -0.15477497
H        3.02235187       0.09996277       1.22542459
15
Frame=11 idx=000978 GeodesicLength=0.3609994595237916 rxn_smarts="[C:1]([N:2]([C:3]([H:10])([H:11])[H:12])[C:4]([C:5](=[O:6])[H:15])([H:13])[H:14])([H:7])([H:8])[H:9]>>[C:1]([N:2]([C:3]([H:10])([H:11])[H:12])[C:4]([C:5][O:6][H:15])([H:13])[H:14])([H:7])([H:8])[H:9]"
C       -1.54966190      -0.89306019      -0.16283795
N       -0.45987055      -0.09196982       0.35320918
C       -0.73310280       1.32381189       0.21043631
C        0.79883869      -0.46247769      -0.24559193
C        1.97115019       0.19000156       0.41437522
O        3.11525901      -0.15818295       0.00759948
H       -1.71370788      -0.74963330      -1.24568064
H       -2.47535665      -0.63252615       0.35271874
H       -1.35291336      -1.95245344       0.01167707
H       -1.65586310       1.57812748       0.73378211
H        0.07596370       1.90130285       0.66001850
H       -0.83455660       1.63077562      -0.84574694
H        0.87625859      -0.21617773      -1.32412454
H        0.92747601      -1.54880896      -0.16225381
H        3.01008664       0.08127084       1.24241921
15
Frame=12 idx=000978 GeodesicLength=0.393556265413138 rxn_smarts="[C:1]([N:2]([C:3]([H:10])([H:11])[H:12])[C:4]([C:5](=[O:6])[H:15])([H:13])[H:14])([H:7])([H:8])[H:9]>>[C:1]([N:2]([C:3]([H:10])([H:11])[H:12])[C:4]([C:5][O:6][H:15])([H:13])[H:14])([H:7])([H:8])[H:9]"
C       -1.54655593      -0.89373655      -0.15906067
N       -0.45627413      -0.08995872       0.35184180
C       -0.73376272       1.32495627       0.20827559
C        0.80085823      -0.45881543      -0.25185353
C        1.97286568       0.19950364       0.40333329
O        3.11492831      -0.16333058       0.01349252
H       -1.71528009      -0.75164245      -1.24134271
H       -2.47084028      -0.63470977       0.35976747
H       -1.34709982      -1.95260205       0.01541449
H       -1.65504750       1.57779719       0.73491256
H        0.07539002       1.90515876       0.65411774
H       -0.83978358       1.63022195      -0.84790612
H        0.87414835      -0.21148537      -1.33025202
H        0.92966421      -1.54512367      -0.16970474
H        2.99678925       0.06376678       1.25896433
15
Frame=13 idx=000978 GeodesicLength=0.42612900979065227 rxn_smarts="[C:1]([N:2]([C:3]([H:10])([H:11])[H:12])[C:4]([C:5](=[O:6])[H:15])([H:13])[H:14])([H:7])([H:8])[H:9]>>[C:1]([N:2]([C:3]([H:10])([H:11])[H:12])[C:4]([C:5][O:6][H:15])([H:13])[H:14])([H:7])([H:8])[H:9]"
C       -1.54355204      -0.89437146      -0.15542149
N       -0.45267102      -0.08814601       0.35051495
C       -0.73416454       1.32597426       0.20631137
C        0.80285602      -0.45547870      -0.25804869
C        1.97469550       0.20848106       0.39232553
O        3.11447014      -0.16847910       0.01938112
H       -1.71685800      -0.75344847      -1.23713884
H       -2.46643227      -0.63674906       0.36660961
H       -1.34158519      -1.95277400       0.01890453
H       -1.65398562       1.57742874       0.73617038
H        0.07513534       1.90869091       0.64857492
H       -0.84460436       1.62970208      -0.84984121
H        0.87200643      -0.20712988      -1.33632523
H        0.93169961      -1.54179065      -0.17704511
H        2.98299001       0.04809027       1.27502814
15
Frame=14 idx=000978 GeodesicLength=0.4586985375310181 rxn_smarts="[C:1]([N:2]([C:3]([H:10])([H:11])[H:12])[C:4]([C:5](=[O:6])[H:15])([H:13])[H:14])([H:7])([H:8])[H:9]>>[C:1]([N:2]([C:3]([H:10])([H:11])[H:12])[C:4]([C:5][O:6][H:15])([H:13])[H:14])([H:7])([H:8])[H:9]"
C       -1.54059290      -0.89496317      -0.15188672
N       -0.44904222      -0.08649268       0.34921026
C       -0.73433248       1.32688008       0.20451354
C        0.80483097      -0.45241512      -0.26421253
C        1.97659256       0.21699878       0.38131992
O        3.11383970      -0.17361576       0.02527670
H       -1.71840775      -0.75509047      -1.23301911
H       -2.46205168      -0.63865346       0.37330718
H       -1.33627516      -1.95294570       0.02218989
H       -1.65267692       1.57702955       0.73755332
H        0.07515704       1.91194339       0.64330951
H       -0.84908470       1.62918647      -0.85157142
H        0.86983293      -0.20305865      -1.34235975
H        0.93360252      -1.53874502      -0.18434381
H        2.96860810       0.03394176       1.29071301
15
Frame=15 idx=000978 GeodesicLength=0.49126344820965967 rxn_smarts="[C:1]([N:2]([C:3]([H:10])([H:11])[H:12])[C:4]([C:5](=[O:6])[H:15])([H:13])[H:14])([H:7])([H:8])[H:9]>>[C:1]([N:2]([C:3]([H:10])([H:11])[H:12])[C:4]([C:5][O:6][H:15])([H:13])[H:14])([H:7])([H:8])[H:9]"
C       -1.53766026      -0.89551783      -0.14843333
N       -0.44537882      -0.08497628       0.34791387
C       -0.73428820       1.32768777       0.20285574
C        0.80678976      -0.44958675      -0.27037048
C        1.97855014       0.22510189       0.37029895
O        3.11304153      -0.17873267       0.03119767
H       -1.71993941      -0.75658959      -1.22895487
H       -2.45766940      -0.64044552       0.37991012
H       -1.33112198      -1.95311552       0.02530091
H       -1.65113467       1.57660182       0.73905465
H        0.07543169       1.91495099       0.63826633
H       -0.85327556       1.62867235      -0.85312246
H        0.86763160      -0.19921964      -1.34837316
H        0.93539465      -1.53594568      -0.19164276
H        2.95362894       0.02111468       1.30609882
15
Frame=16 idx=000978 GeodesicLength=0.5238328362957537 rxn_smarts="[C:1]([N:2]([C:3]([H:10])([H:11])[H:12])[C:4]([C:5](=[O:6])[H:15])([H:13])[H:14])([H:7])([H:8])[H:9]>>[C:1]([N:2]([C:3]([H:10])([H:11])[H:12])[C:4]([C:5][O:6][H:15])([H:13])[H:14])([H:7])([H:8])[H:9]"
C       -1.53474525      -0.89604188      -0.14504492
N       -0.44167540      -0.08358225       0.34661765
C       -0.73404543       1.32840821       0.20132052
C        0.80873604      -0.44696747      -0.27654061
C        1.98056628       0.23282351       0.35925083
O        3.11208190      -0.18382486       0.03715807
H       -1.72146691      -0.75796008      -1.22492733
H       -2.45326858      -0.64214708       0.38645640
H       -1.32609503      -1.95328677       0.02825192
H       -1.64936823       1.57615002       0.74066764
H        0.07594586       1.91773971       0.63341088
H       -0.85720950       1.62816051      -0.85451372
H        0.86540439      -0.19557788      -1.35438096
H        0.93708974      -1.53336604      -0.19897040
H        2.93805012       0.00947235       1.32124403
