13
Frame=0 idx=002022 GeodesicLength=0.0 rxn_smarts="[C:1]([C@@:2]([O:3][H:10])([C:4]([O:5][H:13])([H:11])[H:12])[H:9])([H:6])([H:7])[H:8]>>[C:1]([C:2][O:3][H:10])([H:6])([H:7])[H:8].[C:4]([O:5][H:13])([H:9])([H:11])[H:12]"
C       -1.66089730      -0.04239767       0.30768867
C       -0.44009028       0.46948467      -0.44122468
O       -0.40737179      -0.05589796      -1.72970203
C        1.21060911       0.28745400       0.43045338
O        1.95330510      -0.81260203       0.97055515
H       -2.50773219       0.56494523      -0.01767537
H       -1.54246249       0.10845935       1.38207037
H       -1.91643219      -1.09219023       0.11864851
H        0.26578961      -0.45097222       0.13646544
H       -0.04311155       0.62178460      -2.30092199
H        1.76883002       0.77486401      -0.36186327
H        0.99206325       0.94729673       1.25908249
H        2.32750066      -1.32022848       0.24642336
13
Frame=1 idx=002022 GeodesicLength=0.12961781531244893 rxn_smarts="[C:1]([C@@:2]([O:3][H:10])([C:4]([O:5][H:13])([H:11])[H:12])[H:9])([H:6])([H:7])[H:8]>>[C:1]([C:2][O:3][H:10])([H:6])([H:7])[H:8].[C:4]([O:5][H:13])([H:9])([H:11])[H:12]"
C       -1.70284454      -0.00427741       0.29756617
C       -0.44408879       0.43087024      -0.43287196
O       -0.40532541      -0.12898461      -1.70312963
C        1.20727145       0.27449392       0.46392280
O        2.02116794      -0.83657667       0.85477550
H       -2.52348474       0.60479790      -0.08676426
H       -1.61426728       0.19927695       1.36624670
H       -1.98098465      -1.05593808       0.15988927
H        0.25446958      -0.48602034       0.20213551
H        0.04236598       0.49714078      -2.27512358
H        1.72791591       0.87951145      -0.27277622
H        1.00249173       0.85102240       1.35642978
H        2.41531281      -1.22531654       0.06969993
13
Frame=2 idx=002022 GeodesicLength=0.25597888860449686 rxn_smarts="[C:1]([C@@:2]([O:3][H:10])([C:4]([O:5][H:13])([H:11])[H:12])[H:9])([H:6])([H:7])[H:8]>>[C:1]([C:2][O:3][H:10])([H:6])([H:7])[H:8].[C:4]([O:5][H:13])([H:9])([H:11])[H:12]"
C       -1.73914795       0.03256460       0.28574162
C       -0.44695693       0.39090167      -0.42358365
O       -0.40562184      -0.19674439      -1.67749259
C        1.20574070       0.25868550       0.49612508
O        2.07701969      -0.84996161       0.73554819
H       -2.53226852       0.64105047      -0.15370805
H       -1.67595897       0.28763433       1.34526952
H       -2.04244788      -1.01705619       0.19733131
H        0.24599864      -0.52308625       0.26413172
H        0.12267635       0.37230505      -2.24157540
H        1.68183598       0.96659058      -0.17821466
H        1.02314338       0.74832340       1.44432705
H        2.48598734      -1.11120717      -0.09390014
13
Frame=3 idx=002022 GeodesicLength=0.3806230935596539 rxn_smarts="[C:1]([C@@:2]([O:3][H:10])([C:4]([O:5][H:13])([H:11])[H:12])[H:9])([H:6])([H:7])[H:8]>>[C:1]([C:2][O:3][H:10])([H:6])([H:7])[H:8].[C:4]([O:5][H:13])([H:9])([H:11])[H:12]"
C       -1.76985084       0.06772983       0.27225138
C       -0.44876688       0.35007394      -0.41346733
O       -0.40737601      -0.25860210      -1.65351309
C        1.20611621       0.24039273       0.52715839
O        2.12202358      -0.85245934       0.61610814
H       -2.53495803       0.67284697      -0.21880231
H       -1.72782034       0.37339488       1.31951672
H       -2.09963144      -0.97642524       0.23122269
H        0.24099784      -0.56248584       0.32189094
H        0.19380355       0.25089506      -2.20271246
H        1.63274385       1.03608609      -0.08100284
H        1.05397680       0.64249482       1.52151601
H        2.53874171      -0.98394181      -0.24016626
13
Frame=4 idx=002022 GeodesicLength=0.5047115875358248 rxn_smarts="[C:1]([C@@:2]([O:3][H:10])([C:4]([O:5][H:13])([H:11])[H:12])[H:9])([H:6])([H:7])[H:8]>>[C:1]([C:2][O:3][H:10])([H:6])([H:7])[H:8].[C:4]([O:5][H:13])([H:9])([H:11])[H:12]"
C       -1.79559294       0.10135140       0.25746044
C       -0.45016103       0.30876128      -0.40283099
O       -0.41107006      -0.31465142      -1.63176922
C        1.20809999       0.21990906       0.55652729
O        2.15647937      -0.84490596       0.49817194
H       -2.53246973       0.70126773      -0.28112539
H       -1.77036777       0.45541415       1.29007274
H       -2.15319279      -0.93402014       0.26136274
H        0.23933855      -0.60442952       0.37498129
H        0.25592267       0.13260922      -2.16021962
H        1.58231909       1.08950128       0.01706941
H        1.09425191       0.53567212       1.58726678
H        2.57644274      -0.84647920      -0.36696740
13
Frame=5 idx=002022 GeodesicLength=0.6288307405010105 rxn_smarts="[C:1]([C@@:2]([O:3][H:10])([C:4]([O:5][H:13])([H:11])[H:12])[H:9])([H:6])([H:7])[H:8]>>[C:1]([C:2][O:3][H:10])([H:6])([H:7])[H:8].[C:4]([O:5][H:13])([H:9])([H:11])[H:12]"
C       -1.81686251       0.13343815       0.24141925
C       -0.45128041       0.26693692      -0.39158376
O       -0.41575253      -0.36565075      -1.61210063
C        1.21175635       0.19751860       0.58438612
O        2.18200884      -0.82740305       0.38329289
H       -2.52565058       0.72591964      -0.34151748
H       -1.80476491       0.53454084       1.25708840
H       -2.20286095      -0.89020893       0.28857734
H        0.24122636      -0.64907223       0.42403874
H        0.30799856       0.01910049      -2.11599692
H        1.53136540       1.12865528       0.11518912
H        1.14339088       0.42962826       1.64180745
H        2.59942551      -0.70340322      -0.47460052
13
Frame=6 idx=002022 GeodesicLength=0.7532931776154641 rxn_smarts="[C:1]([C@@:2]([O:3][H:10])([C:4]([O:5][H:13])([H:11])[H:12])[H:9])([H:6])([H:7])[H:8]>>[C:1]([C:2][O:3][H:10])([H:6])([H:7])[H:8].[C:4]([O:5][H:13])([H:9])([H:11])[H:12]"
C       -1.83421772       0.16414035       0.22428783
C       -0.45248765       0.22466218      -0.37972885
O       -0.42122530      -0.41214078      -1.59439341
C        1.21697813       0.17358178       0.61061234
O        2.19939339      -0.80039937       0.27240298
H       -2.51527768       0.74704940      -0.40010304
H       -1.83190400       0.61101114       1.22090470
H       -2.24894179      -0.84498127       0.31336706
H        0.24668225      -0.69639507       0.46942446
H        0.35099095      -0.08993499      -2.07106185
H        1.48045947       1.15527812       0.21302751
H        1.20058347       0.32557139       1.68532220
H        2.60896647      -0.55744288      -0.56406193
13
Frame=7 idx=002022 GeodesicLength=0.8782871410779641 rxn_smarts="[C:1]([C@@:2]([O:3][H:10])([C:4]([O:5][H:13])([H:11])[H:12])[H:9])([H:6])([H:7])[H:8]>>[C:1]([C:2][O:3][H:10])([H:6])([H:7])[H:8].[C:4]([O:5][H:13])([H:9])([H:11])[H:12]"
C       -1.84802441       0.19330557       0.20591950
C       -0.45372964       0.18166596      -0.36679017
O       -0.42626677      -0.45474503      -1.57806468
C        1.22387911       0.14858238       0.63590146
O        2.21024274      -0.76355900       0.16747574
H       -2.50179689       0.76399594      -0.45788879
H       -1.85283173       0.68558624       1.18106569
H       -2.29138799      -0.79860297       0.33624389
H        0.25621782      -0.74639003       0.51212946
H        0.38573319      -0.19270510      -2.02631817
H        1.42980228       1.17077817       0.31071646
H        1.26547897       0.22521465       1.71873299
H        2.60268331      -0.41312678      -0.63912338
13
Frame=8 idx=002022 GeodesicLength=1.0038091564608256 rxn_smarts="[C:1]([C@@:2]([O:3][H:10])([C:4]([O:5][H:13])([H:11])[H:12])[H:9])([H:6])([H:7])[H:8]>>[C:1]([C:2][O:3][H:10])([H:6])([H:7])[H:8].[C:4]([O:5][H:13])([H:9])([H:11])[H:12]"
C       -1.85872839       0.22149302       0.18661596
C       -0.45558082       0.13797628      -0.35300730
O       -0.43149052      -0.49376787      -1.56323519
C        1.23219418       0.12245797       0.65961535
O        2.21426273      -0.71811425       0.06817682
H       -2.48580389       0.77760501      -0.51445965
H       -1.86773446       0.75861239       1.13793970
H       -2.33076950      -0.75036565       0.35777522
H        0.26965833      -0.79923608       0.55177645
H        0.41402221      -0.29205875      -1.98150842
H        1.37952782       1.17603916       0.40864437
H        1.33656821       0.12845953       1.74176123
H        2.58387410      -0.26910075      -0.70009452
13
Frame=9 idx=002022 GeodesicLength=1.1298403488421846 rxn_smarts="[C:1]([C@@:2]([O:3][H:10])([C:4]([O:5][H:13])([H:11])[H:12])[H:9])([H:6])([H:7])[H:8]>>[C:1]([C:2][O:3][H:10])([H:6])([H:7])[H:8].[C:4]([O:5][H:13])([H:9])([H:11])[H:12]"
C       -1.86655848       0.24842547       0.16606706
C       -0.45793948       0.09289362      -0.33751452
O       -0.43533663      -0.52965023      -1.54911909
C        1.24210516       0.09547207       0.68276099
O        2.21268439      -0.66419672      -0.02323758
H       -2.46718500       0.78740485      -0.57080606
H       -1.87730847       0.83044796       1.09075202
H       -2.36743480      -0.70032558       0.37773767
H        0.28768861      -0.85507574       0.58961521
H        0.43688365      -0.38497325      -1.93700340
H        1.32974318       1.17144600       0.50680427
H        1.41404299       0.03736445       1.75558305
H        2.54861489      -0.12923290      -0.75163961
13
Frame=10 idx=002022 GeodesicLength=1.2563314955828566 rxn_smarts="[C:1]([C@@:2]([O:3][H:10])([C:4]([O:5][H:13])([H:11])[H:12])[H:9])([H:6])([H:7])[H:8]>>[C:1]([C:2][O:3][H:10])([H:6])([H:7])[H:8].[C:4]([O:5][H:13])([H:9])([H:11])[H:12]"
C       -1.87169985       0.27464982       0.14451890
C       -0.46140725       0.04643785      -0.32063289
O       -0.43847429      -0.56222611      -1.53605099
C        1.25338268       0.06775114       0.70442650
O        2.20475934      -0.60281942      -0.10779462
H       -2.44622966       0.79453200      -0.62625934
H       -1.88114231       0.90088932       1.04003405
H       -2.40185593      -0.64763151       0.39620768
H        0.31032089      -0.91391646       0.62496951
H        0.45587579      -0.47570121      -1.89166647
H        1.28067751       1.15743250       0.60565989
H        1.49613778      -0.04834419       1.75964601
H        2.49965529       0.00894628      -0.79305822
13
Frame=11 idx=002022 GeodesicLength=1.3833490266162198 rxn_smarts="[C:1]([C@@:2]([O:3][H:10])([C:4]([O:5][H:13])([H:11])[H:12])[H:9])([H:6])([H:7])[H:8]>>[C:1]([C:2][O:3][H:10])([H:6])([H:7])[H:8].[C:4]([O:5][H:13])([H:9])([H:11])[H:12]"
C       -1.87422083       0.29999226       0.12168565
C       -0.46621709      -0.00263176      -0.30145025
O       -0.43964702      -0.59209447      -1.52325294
C        1.26611094       0.03925852       0.72527928
O        2.19048715      -0.53482442      -0.18441661
H       -2.42227761       0.79919799      -0.68150466
H       -1.87923277       0.96990954       0.98521934
H       -2.43481105      -0.59187471       0.41244261
H        0.33817931      -0.97605600       0.65900205
H        0.47178368      -0.56125067      -1.84560481
H        1.23228916       1.13371516       0.70480728
H        1.58354574      -0.12672646       1.75467500
H        2.43401041       0.14338503      -0.82688193
13
Frame=12 idx=002022 GeodesicLength=1.5108673358101525 rxn_smarts="[C:1]([C@@:2]([O:3][H:10])([C:4]([O:5][H:13])([H:11])[H:12])[H:9])([H:6])([H:7])[H:8]>>[C:1]([C:2][O:3][H:10])([H:6])([H:7])[H:8].[C:4]([O:5][H:13])([H:9])([H:11])[H:12]"
C       -1.87404283       0.32473236       0.09779919
C       -0.47307483      -0.05442837      -0.28028573
O       -0.43912819      -0.61827017      -1.51129608
C        1.28004843       0.01062968       0.74412624
O        2.16864739      -0.46086299      -0.25429897
H       -2.39521904       0.80273281      -0.73574001
H       -1.87081964       1.03648955       0.92736211
H       -2.46656036      -0.53248009       0.42579738
H        0.37159228      -1.04108746       0.69092237
H        0.48556092      -0.64625289      -1.79700357
H        1.18508328       1.10065650       0.80426139
H        1.67417031      -0.19743967       1.73986614
H        2.35374228       0.27558074      -0.85151045
13
Frame=13 idx=002022 GeodesicLength=1.6392610036250588 rxn_smarts="[C:1]([C@@:2]([O:3][H:10])([C:4]([O:5][H:13])([H:11])[H:12])[H:9])([H:6])([H:7])[H:8]>>[C:1]([C:2][O:3][H:10])([H:6])([H:7])[H:8].[C:4]([O:5][H:13])([H:9])([H:11])[H:12]"
C       -1.87083412       0.34859281       0.07263082
C       -0.48259043      -0.11085512      -0.25628841
O       -0.43586455      -0.64252792      -1.49892462
C        1.29499014      -0.01838008       0.76149743
O        2.13822730      -0.38250777      -0.31666048
H       -2.36399928       0.80488391      -0.78974787
H       -1.85494040       1.10091382       0.86560646
H       -2.49747585      -0.46868015       0.43611959
H        0.41117486      -1.10944235       0.72178051
H        0.49757462      -0.72450372      -1.74711255
H        1.13876163       1.05758287       0.90300989
H        1.76857383      -0.25800217       1.71575587
H        2.25640224       0.40292587      -0.86766663
13
Frame=14 idx=002022 GeodesicLength=1.768905504813152 rxn_smarts="[C:1]([C@@:2]([O:3][H:10])([C:4]([O:5][H:13])([H:11])[H:12])[H:9])([H:6])([H:7])[H:8]>>[C:1]([C:2][O:3][H:10])([H:6])([H:7])[H:8].[C:4]([O:5][H:13])([H:9])([H:11])[H:12]"
C       -1.86420126       0.37152560       0.04643825
C       -0.49542050      -0.17127544      -0.23031924
O       -0.43021296      -0.66474526      -1.48619093
C        1.31037619      -0.04665513       0.77614303
O        2.09741500      -0.30100381      -0.37246546
H       -2.32886075       0.80594414      -0.84276293
H       -1.83063168       1.16191315       0.80105485
H       -2.52678372      -0.40031700       0.44302861
H        0.45668255      -1.17965385       0.75088320
H        0.50821083      -0.79830593      -1.69511283
H        1.09460252       1.00518808       1.00067643
H        1.86386984      -0.30796315       1.68162301
H        2.14495394       0.52534860      -0.87299598
13
Frame=15 idx=002022 GeodesicLength=1.9005660229150856 rxn_smarts="[C:1]([C@@:2]([O:3][H:10])([C:4]([O:5][H:13])([H:11])[H:12])[H:9])([H:6])([H:7])[H:8]>>[C:1]([C:2][O:3][H:10])([H:6])([H:7])[H:8].[C:4]([O:5][H:13])([H:9])([H:11])[H:12]"
C       -1.85335779       0.39335980       0.01916798
C       -0.51161758      -0.23513659      -0.20313895
O       -0.42313076      -0.68967580      -1.47125050
C        1.32547457      -0.07484941       0.78885436
O        2.04574659      -0.21883475      -0.42001808
H       -2.29097156       0.80282865      -0.89534432
H       -1.79603229       1.22127019       0.73104583
H       -2.55179486      -0.32644603       0.44976925
H        0.50741858      -1.25162004       0.77779390
H        0.51845310      -0.85723754      -1.64535178
H        1.05253855       0.94270978       1.09641349
H        1.95852897      -0.34564353       1.63894065
H        2.01874447       0.63927526      -0.86688182
13
Frame=16 idx=002022 GeodesicLength=2.035114983794589 rxn_smarts="[C:1]([C@@:2]([O:3][H:10])([C:4]([O:5][H:13])([H:11])[H:12])[H:9])([H:6])([H:7])[H:8]>>[C:1]([C:2][O:3][H:10])([H:6])([H:7])[H:8].[C:4]([O:5][H:13])([H:9])([H:11])[H:12]"
C       -1.83827587       0.41410194      -0.00901733
C       -0.53086467      -0.29938606      -0.17637795
O       -0.41627602      -0.71823979      -1.45423512
C        1.33984178      -0.10199941       0.79909158
O        1.98298938      -0.13725690      -0.45930034
H       -2.25259378       0.79451273      -0.94675217
H       -1.75096185       1.27799484       0.65562174
H       -2.57037190      -0.24737385       0.45700300
H        0.56208071      -1.32321696       0.80159961
H        0.52886077      -0.90258365      -1.59829641
H        1.01463186       0.87111499       1.19012876
H        2.04944952      -0.37175594       1.58816574
H        1.88149007       0.74408807      -0.84763112
