13
Frame=0 idx=003710 GeodesicLength=0.0 rxn_smarts="[C:1](/[C:2](=[N:3]/[O:4][H:10])[C:5]([O:6][H:13])([H:11])[H:12])([H:7])([H:8])[H:9]>>[C:1](=[C:2]([N:3]([O:4][H:10])[H:8])[C:5]([O:6][H:13])([H:11])[H:12])([H:7])[H:9]"
C       -0.79054608       1.57637640       0.28691117
C       -0.12106274       0.36357128      -0.01139024
N       -1.09189722      -0.53250560      -0.03328896
O       -0.75191091      -1.82905496       0.42686550
C        1.32122368       0.07693303      -0.26450724
O        1.58215139      -1.06736344      -1.03136064
H       -0.49587048       2.51512213      -0.17266039
H       -1.84239572       0.46261651       0.20613661
H       -1.11692752       1.66215953       1.31984953
H       -1.38065919      -2.40122811      -0.02241764
H        1.82919605       0.04104394       0.71022737
H        1.73818353       0.93501633      -0.79744604
H        1.12051525      -1.80268705      -0.61691897
13
Frame=1 idx=003710 GeodesicLength=0.055554905570805585 rxn_smarts="[C:1](/[C:2](=[N:3]/[O:4][H:10])[C:5]([O:6][H:13])([H:11])[H:12])([H:7])([H:8])[H:9]>>[C:1](=[C:2]([N:3]([O:4][H:10])[H:8])[C:5]([O:6][H:13])([H:11])[H:12])([H:7])[H:9]"
C       -0.79103250       1.57729909       0.27387351
C       -0.12780219       0.36272398      -0.02797526
N       -1.09479309      -0.53871578      -0.02365497
O       -0.73819204      -1.82904021       0.43795552
C        1.31914839       0.07131624      -0.24593767
O        1.59474878      -1.04725272      -1.04422768
H       -0.52530411       2.50281654      -0.22800350
H       -1.85004652       0.46519543       0.24265047
H       -1.08483970       1.69836449       1.31268360
H       -1.36337614      -2.40913002      -0.00596272
H        1.80215816      -0.00330372       0.73885875
H        1.75817428       0.94414166      -0.73582359
H        1.10115668      -1.79441497      -0.69443645
13
Frame=2 idx=003710 GeodesicLength=0.11149388412410047 rxn_smarts="[C:1](/[C:2](=[N:3]/[O:4][H:10])[C:5]([O:6][H:13])([H:11])[H:12])([H:7])([H:8])[H:9]>>[C:1](=[C:2]([N:3]([O:4][H:10])[H:8])[C:5]([O:6][H:13])([H:11])[H:12])([H:7])[H:9]"
C       -0.79118951       1.57821272       0.26064775
C       -0.13448577       0.36115945      -0.04291619
N       -1.09782054      -0.54481839      -0.01245629
O       -0.72508222      -1.83009714       0.44721401
C        1.31632679       0.06513074      -0.22717092
O        1.60796197      -1.02925379      -1.05227973
H       -0.55540366       2.48812165      -0.28297400
H       -1.85583934       0.46855608       0.28320316
H       -1.05097014       1.73698624       1.30313448
H       -1.34467366      -2.41707079       0.00468327
H        1.77512195      -0.04539977       0.76543483
H        1.77475051       0.95030954      -0.67586318
H        1.08130362      -1.78183654      -0.77065718
13
Frame=3 idx=003710 GeodesicLength=0.16662823054084125 rxn_smarts="[C:1](/[C:2](=[N:3]/[O:4][H:10])[C:5]([O:6][H:13])([H:11])[H:12])([H:7])([H:8])[H:9]>>[C:1](=[C:2]([N:3]([O:4][H:10])[H:8])[C:5]([O:6][H:13])([H:11])[H:12])([H:7])[H:9]"
C       -0.79063550       1.57865012       0.24813350
C       -0.14088880       0.35885767      -0.05576196
N       -1.10066311      -0.55064245      -0.00020879
O       -0.71268486      -1.83134353       0.45536126
C        1.31262056       0.05848695      -0.20878451
O        1.62054521      -1.01394310      -1.05583206
H       -0.58487262       2.47082117      -0.33521143
H       -1.85958282       0.47307349       0.32451481
H       -1.01712258       1.77625912       1.29140780
H       -1.32432076      -2.42436870       0.01012404
H        1.74890203      -0.08428988       0.78949614
H        1.78739972       0.95340427      -0.61944572
H        1.06130355      -1.76496512      -0.84379308
13
Frame=4 idx=003710 GeodesicLength=0.22213482697144488 rxn_smarts="[C:1](/[C:2](=[N:3]/[O:4][H:10])[C:5]([O:6][H:13])([H:11])[H:12])([H:7])([H:8])[H:9]>>[C:1](=[C:2]([N:3]([O:4][H:10])[H:8])[C:5]([O:6][H:13])([H:11])[H:12])([H:7])[H:9]"
C       -0.79005163       1.57904186       0.23575525
C       -0.14724206       0.35595611      -0.06695735
N       -1.10370513      -0.55640764       0.01305709
O       -0.70122827      -1.83369753       0.46197099
C        1.30845779       0.05146248      -0.19052813
O        1.63293536      -1.00146154      -1.05528341
H       -0.61453997       2.45181184      -0.38552618
H       -1.86150777       0.47852324       0.36859162
H       -0.98254447       1.81706498       1.27708085
H       -1.30333075      -2.43166519       0.01064787
H        1.72341180      -0.12066413       0.81188342
H        1.79723920       0.95434759      -0.56601799
H        1.04210591      -1.74431207      -0.91467404
13
Frame=5 idx=003710 GeodesicLength=0.2775952929540232 rxn_smarts="[C:1](/[C:2](=[N:3]/[O:4][H:10])[C:5]([O:6][H:13])([H:11])[H:12])([H:7])([H:8])[H:9]>>[C:1](=[C:2]([N:3]([O:4][H:10])[H:8])[C:5]([O:6][H:13])([H:11])[H:12])([H:7])[H:9]"
C       -0.78905935       1.57920526       0.22419315
C       -0.15340953       0.35253163      -0.07648849
N       -1.10679744      -0.56197371       0.02706590
O       -0.69082368      -1.83643474       0.46776274
C        1.30382302       0.04406584      -0.17276064
O        1.64427142      -0.99190638      -1.05154906
H       -0.64414945       2.43096918      -0.43302974
H       -1.86168379       0.48525046       0.41331831
H       -0.94833443       1.85826574       1.26066197
H       -1.28131685      -2.43843350       0.00681098
H        1.69885809      -0.15449156       0.83248363
H        1.80452899       0.95321059      -0.51620301
H        1.02409299      -1.72025880      -0.98226574
13
Frame=6 idx=003710 GeodesicLength=0.3331687022129781 rxn_smarts="[C:1](/[C:2](=[N:3]/[O:4][H:10])[C:5]([O:6][H:13])([H:11])[H:12])([H:7])([H:8])[H:9]>>[C:1](=[C:2]([N:3]([O:4][H:10])[H:8])[C:5]([O:6][H:13])([H:11])[H:12])([H:7])[H:9]"
C       -0.78799465       1.57906160       0.21295570
C       -0.15952786       0.34859784      -0.08464243
N       -1.11003154      -0.56743055       0.04165299
O       -0.68145687      -1.83975335       0.47241401
C        1.29874098       0.03635515      -0.15517228
O        1.65437538      -0.98500362      -1.04493559
H       -0.67420205       2.40827676      -0.47831859
H       -1.85978566       0.49289083       0.45992936
H       -0.91366604       1.90016689       1.24158288
H       -1.25883166      -2.44459717      -0.00102929
H        1.67498717      -0.18625448       0.85195394
H        1.80967099       0.95043117      -0.46925761
H        1.00772182      -1.69274108      -1.04713309
13
Frame=7 idx=003710 GeodesicLength=0.3894271102709196 rxn_smarts="[C:1](/[C:2](=[N:3]/[O:4][H:10])[C:5]([O:6][H:13])([H:11])[H:12])([H:7])([H:8])[H:9]>>[C:1](=[C:2]([N:3]([O:4][H:10])[H:8])[C:5]([O:6][H:13])([H:11])[H:12])([H:7])[H:9]"
C       -0.78707173       1.57887956       0.20195072
C       -0.16565354       0.34422279      -0.09138474
N       -1.11358962      -0.57283067       0.05702635
O       -0.67323623      -1.84393865       0.47596789
C        1.29343989       0.02823439      -0.13760773
O        1.66327168      -0.98065856      -1.03602568
H       -0.70535568       2.38387962      -0.52185168
H       -1.85571465       0.50158432       0.50902680
H       -0.87865228       1.94329339       1.21942123
H       -1.23594294      -2.45034358      -0.01284781
H        1.65193903      -0.21664966       0.87055676
H        1.81331319       0.94630956      -0.42455780
H        0.99325287      -1.66198251      -1.10967431
13
Frame=8 idx=003710 GeodesicLength=0.44538263031452324 rxn_smarts="[C:1](/[C:2](=[N:3]/[O:4][H:10])[C:5]([O:6][H:13])([H:11])[H:12])([H:7])([H:8])[H:9]>>[C:1](=[C:2]([N:3]([O:4][H:10])[H:8])[C:5]([O:6][H:13])([H:11])[H:12])([H:7])[H:9]"
C       -0.78565904       1.57811491       0.19176906
C       -0.17162941       0.33943965      -0.09698307
N       -1.11702732      -0.57791214       0.07260832
O       -0.66610514      -1.84774664       0.47941894
C        1.28752195       0.01976668      -0.12056356
O        1.67004166      -0.97835515      -1.02589732
H       -0.73663529       2.35753146      -0.56231761
H       -1.84958717       0.51152090       0.55768866
H       -0.84421581       1.98557654       1.19502314
H       -1.21178953      -2.45451611      -0.02751723
H        1.62915555      -0.24566729       0.88792928
H        1.81515171       0.94069676      -0.38269386
H        0.98077784      -1.62844958      -1.16846474
13
Frame=9 idx=003710 GeodesicLength=0.5018903496182656 rxn_smarts="[C:1](/[C:2](=[N:3]/[O:4][H:10])[C:5]([O:6][H:13])([H:11])[H:12])([H:7])([H:8])[H:9]>>[C:1](=[C:2]([N:3]([O:4][H:10])[H:8])[C:5]([O:6][H:13])([H:11])[H:12])([H:7])[H:9]"
C       -0.78438264       1.57722452       0.18207513
C       -0.17766466       0.33438066      -0.10181126
N       -1.12083648      -0.58290770       0.08812038
O       -0.66019995      -1.85196553       0.48225020
C        1.28145965       0.01100193      -0.10381418
O        1.67530815      -0.97799343      -1.01471817
H       -0.76893944       2.33009358      -0.60000688
H       -1.84157699       0.52248095       0.60721963
H       -0.80976152       2.02788944       1.16789010
H       -1.18765646      -2.45790994      -0.04438681
H        1.60712195      -0.27376697       0.90442352
H        1.81600161       0.93414609      -0.34292994
H        0.97112678      -1.59267360      -1.22431172
13
Frame=10 idx=003710 GeodesicLength=0.55861426183841 rxn_smarts="[C:1](/[C:2](=[N:3]/[O:4][H:10])[C:5]([O:6][H:13])([H:11])[H:12])([H:7])([H:8])[H:9]>>[C:1](=[C:2]([N:3]([O:4][H:10])[H:8])[C:5]([O:6][H:13])([H:11])[H:12])([H:7])[H:9]"
C       -0.78293863       1.57615507       0.17299379
C       -0.18370216       0.32908454      -0.10590492
N       -1.12482406      -0.58787426       0.10343154
O       -0.65545828      -1.85636413       0.48486110
C        1.27507359       0.00197795      -0.08745094
O        1.67879394      -0.97920037      -1.00309497
H       -0.80170588       2.30168436      -0.63460145
H       -1.83160775       0.53441639       0.65662563
H       -0.77578625       2.06971351       1.13811376
H       -1.16316615      -2.46038441      -0.06282886
H        1.58554583      -0.30120678       0.91994903
H        1.81579549       0.92684987      -0.30507204
H        0.96398033      -1.55485175      -1.27702167
13
Frame=11 idx=003710 GeodesicLength=0.6158562517664928 rxn_smarts="[C:1](/[C:2](=[N:3]/[O:4][H:10])[C:5]([O:6][H:13])([H:11])[H:12])([H:7])([H:8])[H:9]>>[C:1](=[C:2]([N:3]([O:4][H:10])[H:8])[C:5]([O:6][H:13])([H:11])[H:12])([H:7])[H:9]"
C       -0.78144165       1.57487974       0.16454084
C       -0.18979176       0.32354046      -0.10941618
N       -1.12903881      -0.59264481       0.11851338
O       -0.65182373      -1.86064291       0.48739893
C        1.26840810      -0.00743231      -0.07146980
O        1.68072208      -0.98177943      -0.99142132
H       -0.83528982       2.27220726      -0.66608746
H       -1.81989174       0.54756277       0.70575848
H       -0.74232619       2.11090792       1.10578432
H       -1.13811212      -2.46160557      -0.08250745
H        1.56430712      -0.32827685       0.93451880
H        1.81474240       0.91860366      -0.26873794
H        0.95953612      -1.51531992      -1.32687459
13
Frame=12 idx=003710 GeodesicLength=0.6733914974280839 rxn_smarts="[C:1](/[C:2](=[N:3]/[O:4][H:10])[C:5]([O:6][H:13])([H:11])[H:12])([H:7])([H:8])[H:9]>>[C:1](=[C:2]([N:3]([O:4][H:10])[H:8])[C:5]([O:6][H:13])([H:11])[H:12])([H:7])[H:9]"
C       -0.77971691       1.57337799       0.15656964
C       -0.19590096       0.31778734      -0.11238869
N       -1.13346650      -0.59728646       0.13334307
O       -0.64930816      -1.86484568       0.49010536
C        1.26139245      -0.01720847      -0.05579749
O        1.68088535      -0.98526445      -0.98003427
H       -0.86957748       2.24180503      -0.69465609
H       -1.80640740       0.56175082       0.75430967
H       -0.70927699       2.15111621       1.07076562
H       -1.11232378      -2.46157166      -0.10296477
H        1.54325724      -0.35540597       0.94827139
H        1.81293803       0.90957410      -0.23353755
H        0.95750510      -1.47382883      -1.37398589
13
Frame=13 idx=003710 GeodesicLength=0.7315118935532146 rxn_smarts="[C:1](/[C:2](=[N:3]/[O:4][H:10])[C:5]([O:6][H:13])([H:11])[H:12])([H:7])([H:8])[H:9]>>[C:1](=[C:2]([N:3]([O:4][H:10])[H:8])[C:5]([O:6][H:13])([H:11])[H:12])([H:7])[H:9]"
C       -0.77785445       1.57169506       0.14895945
C       -0.20209951       0.31179748      -0.11483496
N       -1.13829802      -0.60180499       0.14814335
O       -0.64811878      -1.86907842       0.49288276
C        1.25409199      -0.02740407      -0.04030815
O        1.67951141      -0.98953968      -0.96891037
H       -0.90511199       2.21027427      -0.72038295
H       -1.79104116       0.57704292       0.80278108
H       -0.67629061       2.19064806       1.03255267
H       -1.08566409      -2.46022973      -0.12442493
H        1.52231035      -0.38277113       0.96119100
H        1.81063283       0.89974672      -0.19902841
H        0.95793203      -1.43037648      -1.41862056
13
Frame=14 idx=003710 GeodesicLength=0.7899981095077657 rxn_smarts="[C:1](/[C:2](=[N:3]/[O:4][H:10])[C:5]([O:6][H:13])([H:11])[H:12])([H:7])([H:8])[H:9]>>[C:1](=[C:2]([N:3]([O:4][H:10])[H:8])[C:5]([O:6][H:13])([H:11])[H:12])([H:7])[H:9]"
C       -0.77586360       1.56989529       0.14182301
C       -0.20841253       0.30566570      -0.11713014
N       -1.14338233      -0.60623106       0.16229015
O       -0.64789153      -1.87323382       0.49566769
C        1.24646715      -0.03793440      -0.02518001
O        1.67671246      -0.99443291      -0.95845587
H       -0.94125659       2.17839431      -0.74278646
H       -1.77392912       0.59329486       0.85043690
H       -0.64392401       2.22892800       0.99165722
H       -1.05880111      -2.45782220      -0.14558176
H        1.50151802      -0.41033515       0.97327473
H        1.80765154       0.88928541      -0.16527526
H        0.96111166      -1.38547402      -1.46074019
13
Frame=15 idx=003710 GeodesicLength=0.8494926966907701 rxn_smarts="[C:1](/[C:2](=[N:3]/[O:4][H:10])[C:5]([O:6][H:13])([H:11])[H:12])([H:7])([H:8])[H:9]>>[C:1](=[C:2]([N:3]([O:4][H:10])[H:8])[C:5]([O:6][H:13])([H:11])[H:12])([H:7])[H:9]"
C       -0.77392604       1.56834756       0.13528279
C       -0.21495448       0.29945915      -0.11923479
N       -1.14902337      -0.61046838       0.17583636
O       -0.64875900      -1.87733003       0.49884852
C        1.23875870      -0.04901107      -0.01041472
O        1.67282551      -1.00031732      -0.94899714
H       -0.97851136       2.14655265      -0.76184550
H       -1.75584131       0.61098780       0.89701668
H       -0.61232156       2.26628415       0.94842725
H       -1.03083597      -2.45449483      -0.16669508
H        1.48123882      -0.43831308       0.98464934
H        1.80441958       0.87799597      -0.13217867
H        0.96693051      -1.33969256      -1.50069503
13
Frame=16 idx=003710 GeodesicLength=0.9084744903252397 rxn_smarts="[C:1](/[C:2](=[N:3]/[O:4][H:10])[C:5]([O:6][H:13])([H:11])[H:12])([H:7])([H:8])[H:9]>>[C:1](=[C:2]([N:3]([O:4][H:10])[H:8])[C:5]([O:6][H:13])([H:11])[H:12])([H:7])[H:9]"
C       -0.77107330       1.56599041       0.12896800
C       -0.22142941       0.29300539      -0.12121888
N       -1.15467785      -0.61479297       0.18876881
O       -0.65089229      -1.88112345       0.50197262
C        1.23014333      -0.06009611       0.00393580
O        1.66688803      -1.00556619      -0.93981879
H       -1.01517240       2.11383029      -0.77732855
H       -1.73522293       0.62864631       0.94248602
H       -0.58090971       2.30106783       0.90163341
H       -1.00279014      -2.44969219      -0.18665786
H        1.45995338      -0.46643292       0.99459224
H        1.80004814       0.86632217      -0.09975600
H        0.97513513      -1.29115858      -1.53757681
