11
Frame=0 idx=000535 GeodesicLength=0.0 rxn_smarts="[C:1]([C:2]([C:3]([H:9])([H:10])[H:11])([H:7])[H:8])([H:4])([H:5])[H:6]>>[C:1](=[C:2]([H:7])[H:8])([H:4])[H:5].[C:3]([H:6])([H:9])([H:10])[H:11]"
C       -1.44317789      -0.02265012       0.61517749
C       -0.27636619       0.72927600       0.27309676
C        1.20550335      -0.42400068      -0.61647611
H       -2.25637847      -0.10651658      -0.08891557
H       -1.54394625      -0.43677167       1.60612991
H       -0.19578830      -0.50427221      -0.00120058
H        0.38109760       1.05135332       1.07038359
H       -0.31077065       1.39487857      -0.58036070
H        1.43766220      -1.36527938      -0.10846058
H        2.03054126       0.27612276      -0.50124259
H        0.97162336      -0.59214006      -1.66813157
11
Frame=1 idx=000535 GeodesicLength=0.09699276288387616 rxn_smarts="[C:1]([C:2]([C:3]([H:9])([H:10])[H:11])([H:7])[H:8])([H:4])([H:5])[H:6]>>[C:1](=[C:2]([H:7])[H:8])([H:4])[H:5].[C:3]([H:6])([H:9])([H:10])[H:11]"
C       -1.44315827      -0.02583901       0.61174560
C       -0.27783955       0.73068218       0.27684236
C        1.20978786      -0.42778460      -0.61725110
H       -2.26990602      -0.07610599      -0.08024966
H       -1.54522685      -0.44120566       1.60260921
H       -0.20173301      -0.53234395      -0.02020875
H        0.36969063       1.05660764       1.08115543
H       -0.31825894       1.40751393      -0.56798477
H        1.46342784      -1.35750913      -0.09852599
H        2.03151979       0.27958017      -0.52082272
H        0.98169653      -0.61359558      -1.66730960
11
Frame=2 idx=000535 GeodesicLength=0.1935346663141621 rxn_smarts="[C:1]([C:2]([C:3]([H:9])([H:10])[H:11])([H:7])[H:8])([H:4])([H:5])[H:6]>>[C:1](=[C:2]([H:7])[H:8])([H:4])[H:5].[C:3]([H:6])([H:9])([H:10])[H:11]"
C       -1.44275501      -0.02919807       0.60782787
C       -0.27931390       0.73275120       0.28063225
C        1.21374904      -0.43168364      -0.61790055
H       -2.28252841      -0.04611392      -0.07060010
H       -1.54601303      -0.44570676       1.59867754
H       -0.20793722      -0.56089869      -0.04020168
H        0.35791610       1.06249394       1.09208054
H       -0.32592965       1.42054116      -0.55549219
H        1.48827610      -1.34938683      -0.08866584
H        2.03220771       0.28230232      -0.54011663
H        0.99232827      -0.63510070      -1.66624120
11
Frame=3 idx=000535 GeodesicLength=0.2897560052714158 rxn_smarts="[C:1]([C:2]([C:3]([H:9])([H:10])[H:11])([H:7])[H:8])([H:4])([H:5])[H:6]>>[C:1](=[C:2]([H:7])[H:8])([H:4])[H:5].[C:3]([H:6])([H:9])([H:10])[H:11]"
C       -1.44192213      -0.03268794       0.60338202
C       -0.28077653       0.73557724       0.28450098
C        1.21732952      -0.43570299      -0.61842811
H       -2.29417648      -0.01668071      -0.06001893
H       -1.54628884      -0.45024027       1.59429296
H       -0.21437779      -0.59001917      -0.06113393
H        0.34578008       1.06904369       1.10320762
H       -0.33377479       1.43402648      -0.54287612
H        1.51217916      -1.34094647      -0.07888796
H        2.03258646       0.28427204      -0.55912199
H        1.00344133      -0.65664191      -1.66491656
11
Frame=4 idx=000535 GeodesicLength=0.3858142221372682 rxn_smarts="[C:1]([C:2]([C:3]([H:9])([H:10])[H:11])([H:7])[H:8])([H:4])([H:5])[H:6]>>[C:1](=[C:2]([H:7])[H:8])([H:4])[H:5].[C:3]([H:6])([H:9])([H:10])[H:11]"
C       -1.44060028      -0.03625683       0.59836728
C       -0.28221630       0.73927352       0.28849630
C        1.22045840      -0.43984987      -0.61883296
H       -2.30476618       0.01203612      -0.04859352
H       -1.54603675      -0.45477616       1.58940497
H       -0.22103179      -0.61981317      -0.08295295
H        0.33329617       1.07628851       1.11459875
H       -0.34177649       1.44805124      -0.53012163
H        1.53511978      -1.33221784      -0.06919513
H        2.03262196       0.28547594      -0.57785444
H        1.01493147      -0.67821146      -1.66331669
11
Frame=5 idx=000535 GeodesicLength=0.4819321905413983 rxn_smarts="[C:1]([C:2]([C:3]([H:9])([H:10])[H:11])([H:7])[H:8])([H:4])([H:5])[H:6]>>[C:1](=[C:2]([H:7])[H:8])([H:4])[H:5].[C:3]([H:6])([H:9])([H:10])[H:11]"
C       -1.43869338      -0.03986513       0.59271567
C       -0.28360160       0.74399395       0.29267310
C        1.22304257      -0.44413034      -0.61911033
H       -2.31421238       0.03980228      -0.03639838
H       -1.54519409      -0.45925784       1.58395835
H       -0.22788991      -0.65043954      -0.10559630
H        0.32048618       1.08431397       1.12632279
H       -0.34991772       1.46270155      -0.51723563
H        1.55697963      -1.32323099      -0.05962789
H        2.03228291       0.28586344      -0.59625894
H        1.02671779      -0.69975134      -1.66144243
11
Frame=6 idx=000535 GeodesicLength=0.5781598035145388 rxn_smarts="[C:1]([C:2]([C:3]([H:9])([H:10])[H:11])([H:7])[H:8])([H:4])([H:5])[H:6]>>[C:1](=[C:2]([H:7])[H:8])([H:4])[H:5].[C:3]([H:6])([H:9])([H:10])[H:11]"
C       -1.43613724      -0.04343505       0.58640450
C       -0.28492214       0.74983552       0.29710164
C        1.22501160      -0.44854964      -0.61926961
H       -2.32243129       0.06648517      -0.02363546
H       -1.54378271      -0.46363694       1.57790683
H       -0.23490452      -0.68205659      -0.12893977
H        0.30736765       1.09310237       1.13847130
H       -0.35816531       1.47807926      -0.50415693
H        1.57782359      -1.31399355      -0.05019527
H        2.03149655       0.28546876      -0.61442495
H        1.03864382      -0.72129931      -1.65926228
11
Frame=7 idx=000535 GeodesicLength=0.6746348474091953 rxn_smarts="[C:1]([C:2]([C:3]([H:9])([H:10])[H:11])([H:7])[H:8])([H:4])([H:5])[H:6]>>[C:1](=[C:2]([H:7])[H:8])([H:4])[H:5].[C:3]([H:6])([H:9])([H:10])[H:11]"
C       -1.43282160      -0.04690286       0.57937105
C       -0.28613988       0.75693836       0.30187336
C        1.22626375      -0.45311122      -0.61931633
H       -2.32933433       0.09187857      -0.01052134
H       -1.54179187      -0.46783305       1.57118791
H       -0.24203776      -0.71489404      -0.15283388
H        0.29397599       1.10268097       1.15115848
H       -0.36647872       1.49430190      -0.49082487
H        1.59763797      -1.30449450      -0.04093702
H        2.03016990       0.28429612      -0.63239998
H        1.05055655      -0.74286024      -1.65675739
11
Frame=8 idx=000535 GeodesicLength=0.7713892076966228 rxn_smarts="[C:1]([C:2]([C:3]([H:9])([H:10])[H:11])([H:7])[H:8])([H:4])([H:5])[H:6]>>[C:1](=[C:2]([H:7])[H:8])([H:4])[H:5].[C:3]([H:6])([H:9])([H:10])[H:11]"
C       -1.42863420      -0.05021064       0.57156406
C       -0.28722205       0.76541626       0.30708347
C        1.22670253      -0.45781777      -0.61926325
H       -2.33482991       0.11585246       0.00268250
H       -1.53924289      -0.47177240       1.56373856
H       -0.24923503      -0.74920961      -0.17707631
H        0.28033271       1.11304126       1.16450547
H       -0.37480779       1.51148218      -0.47715778
H        1.61646750      -1.29469883      -0.03189720
H        2.02817911       0.28238520      -0.65027569
H        1.06229001      -0.76446812      -1.65390382
11
Frame=9 idx=000535 GeodesicLength=0.8687383446576901 rxn_smarts="[C:1]([C:2]([C:3]([H:9])([H:10])[H:11])([H:7])[H:8])([H:4])([H:5])[H:6]>>[C:1](=[C:2]([H:7])[H:8])([H:4])[H:5].[C:3]([H:6])([H:9])([H:10])[H:11]"
C       -1.42334832      -0.05337197       0.56279337
C       -0.28824980       0.77540445       0.31284074
C        1.22617777      -0.46270960      -0.61908421
H       -2.33855557       0.13871858       0.01585326
H       -1.53616028      -0.47552293       1.55530724
H       -0.25639738      -0.78548721      -0.20146055
H        0.26632585       1.12410976       1.17869626
H       -0.38314274       1.52977021      -0.46303879
H        1.63453541      -1.28447835      -0.02300353
H        2.02520019       0.27991422      -0.66830587
H        1.07361487      -0.78634716      -1.65059791
11
Frame=10 idx=000535 GeodesicLength=0.96620230757916 rxn_smarts="[C:1]([C:2]([C:3]([H:9])([H:10])[H:11])([H:7])[H:8])([H:4])([H:5])[H:6]>>[C:1](=[C:2]([H:7])[H:8])([H:4])[H:5].[C:3]([H:6])([H:9])([H:10])[H:11]"
C       -1.41691618      -0.05622597       0.55308140
C       -0.28908281       0.78702905       0.31929579
C        1.22460298      -0.46776979      -0.61885300
H       -2.34054449       0.15984308       0.02842726
H       -1.53262875      -0.47886369       1.54592177
H       -0.26340288      -0.82379269      -0.22557236
H        0.25209242       1.13589811       1.19389577
H       -0.39135607       1.54932328      -0.44831355
H        1.65172507      -1.27381171      -0.01443504
H        2.02120554       0.27679068      -0.68656605
H        1.08430518      -0.80842036      -1.64688198
11
Frame=11 idx=000535 GeodesicLength=1.0636716079389767 rxn_smarts="[C:1]([C:2]([C:3]([H:9])([H:10])[H:11])([H:7])[H:8])([H:4])([H:5])[H:6]>>[C:1](=[C:2]([H:7])[H:8])([H:4])[H:5].[C:3]([H:6])([H:9])([H:10])[H:11]"
C       -1.40921049      -0.05868717       0.54234847
C       -0.28969227       0.80037785       0.32660140
C        1.22188260      -0.47300753      -0.61861193
H       -2.34064903       0.17914499       0.03996912
H       -1.52875799      -0.48170248       1.53547311
H       -0.27010842      -0.86444981      -0.24901844
H        0.23763829       1.14831627       1.21030704
H       -0.39937267       1.57028756      -0.43278579
H        1.66817212      -1.26257082      -0.00625608
H        2.01598229       0.27309239      -0.70530280
H        1.09411558      -0.83080125      -1.64272411
11
Frame=12 idx=000535 GeodesicLength=1.1609922673008901 rxn_smarts="[C:1]([C:2]([C:3]([H:9])([H:10])[H:11])([H:7])[H:8])([H:4])([H:5])[H:6]>>[C:1](=[C:2]([H:7])[H:8])([H:4])[H:5].[C:3]([H:6])([H:9])([H:10])[H:11]"
C       -1.40009193      -0.06066145       0.53051674
C       -0.29003117       0.81553103       0.33492885
C        1.21791239      -0.47843587      -0.61841662
H       -2.33872223       0.19652285       0.04994569
H       -1.52469514      -0.48392401       1.52384086
H       -0.27632836      -0.90779856      -0.27127372
H        0.22297157       1.16125238       1.22815801
H       -0.40708859       1.59281770      -0.41622116
H        1.68401808      -1.25059296       0.00140732
H        2.00926877       0.26889581      -0.72478530
H        1.10278662      -0.85360691      -1.63810067
11
Frame=13 idx=000535 GeodesicLength=1.2580747897504987 rxn_smarts="[C:1]([C:2]([C:3]([H:9])([H:10])[H:11])([H:7])[H:8])([H:4])([H:5])[H:6]>>[C:1](=[C:2]([H:7])[H:8])([H:4])[H:5].[C:3]([H:6])([H:9])([H:10])[H:11]"
C       -1.38941749      -0.06205050       0.51751678
C       -0.29006488       0.83253882       0.34446057
C        1.21261194      -0.48406431      -0.61831771
H       -2.33461834       0.21196111       0.05783318
H       -1.52059783      -0.48544392       1.51088924
H       -0.28189230      -0.95418902      -0.29184747
H        0.20808360       1.17457234       1.24767775
H       -0.41440113       1.61704262      -0.39836834
H        1.69943176      -1.23769790       0.00846433
H        2.00079352       0.26431373      -0.74533287
H        1.11007114      -0.87698297      -1.63297546
11
Frame=14 idx=000535 GeodesicLength=1.3548032050112293 rxn_smarts="[C:1]([C:2]([C:3]([H:9])([H:10])[H:11])([H:7])[H:8])([H:4])([H:5])[H:6]>>[C:1](=[C:2]([H:7])[H:8])([H:4])[H:5].[C:3]([H:6])([H:9])([H:10])[H:11]"
C       -1.37703353      -0.06276788       0.50326518
C       -0.28974391       0.85142686       0.35538552
C        1.20590012      -0.48991738      -0.61838386
H       -2.32817052       0.22547357       0.06302339
H       -1.51666477      -0.48614555       1.49647174
H       -0.28655763      -1.00396404      -0.31006315
H        0.19293167       1.18811090       1.26912024
H       -0.42120604       1.64308854      -0.37894209
H        1.71459117      -1.22366391       0.01470874
H        1.99021851       0.25942572      -0.76726304
H        1.11573492      -0.90106682      -1.62732268
11
Frame=15 idx=000535 GeodesicLength=1.451148144903112 rxn_smarts="[C:1]([C:2]([C:3]([H:9])([H:10])[H:11])([H:7])[H:8])([H:4])([H:5])[H:6]>>[C:1](=[C:2]([H:7])[H:8])([H:4])[H:5].[C:3]([H:6])([H:9])([H:10])[H:11]"
C       -1.36280386      -0.06272028       0.48771117
C       -0.28903857       0.87217587       0.36788252
C        1.19772898      -0.49602126      -0.61867390
H       -2.31924648       0.23715250       0.06497984
H       -1.51307299      -0.48596193       1.48044895
H       -0.29011727      -1.05738305      -0.32535033
H        0.17745110       1.20168936       1.29270037
H       -0.42740762       1.67102573      -0.35767551
H        1.72967466      -1.20828171       0.01998467
H        1.97723427       0.25433096      -0.79089599
H        1.11959778      -0.92600619      -1.62111180
11
Frame=16 idx=000535 GeodesicLength=1.5471904221646409 rxn_smarts="[C:1]([C:2]([C:3]([H:9])([H:10])[H:11])([H:7])[H:8])([H:4])([H:5])[H:6]>>[C:1](=[C:2]([H:7])[H:8])([H:4])[H:5].[C:3]([H:6])([H:9])([H:10])[H:11]"
C       -1.34659096      -0.06180724       0.47081294
C       -0.28792656       0.89473518       0.38213035
C        1.18807365      -0.50241994      -0.61925562
H       -2.30770491       0.24714272       0.06314913
H       -1.51002314      -0.48483960       1.46266031
H       -0.29231464      -1.11464473      -0.33705758
H        0.16153957       1.21510997       1.31864297
H       -0.43292496       1.70090860      -0.33428370
H        1.74486274      -1.19131706       0.02407752
H        1.96149532       0.24909130      -0.81656206
H        1.12151389      -0.95195920      -1.61431427
