20
Frame=0 idx=001243 GeodesicLength=0.0 rxn_smarts="[C:1]([C:2]([C:3]([C:4]([H:13])([H:14])[H:15])([C:5]([C:6]([H:18])([H:19])[H:20])([H:16])[H:17])[H:12])([H:10])[H:11])([H:7])([H:8])[H:9]>>[C:1](=[C:2]([H:10])[H:11])([H:7])[H:8].[C:3](=[C:4]([H:13])[H:14])([C:5]([C:6]([H:18])([H:19])[H:20])([H:16])[H:17])[H:12].[H:9][H:15]"
C        2.49950350      -0.20033930      -0.91551278
C        1.56531542      -1.07215592      -0.42700851
C       -0.22471808       0.05358246       0.63929955
C        0.05488259       1.39733090       0.62963100
C       -1.34890379      -0.52427342      -0.18322098
C       -2.71051960      -0.32074908       0.48301873
H        3.43581831      -0.04987935      -0.38933921
H        2.51931193       0.03604524      -1.97385613
H        2.00261230       1.22614842      -0.56587796
H        0.83329443      -1.50641551      -1.09286978
H        1.74525017      -1.60559985       0.49617304
H        0.04299891      -0.50685998       1.52804911
H       -0.51849010       2.05634944      -0.01695402
H        0.48940974       1.86818715       1.50379147
H        1.33414162       1.61056148      -0.17138141
H       -1.19303761      -1.59443577      -0.34135082
H       -1.35309304      -0.05958137      -1.17436827
H       -2.93503888       0.74112370       0.60020449
H       -3.51005941      -0.77576289      -0.10575063
H       -2.72867842      -0.77327635       1.47732309
20
Frame=1 idx=001243 GeodesicLength=0.07840743232572818 rxn_smarts="[C:1]([C:2]([C:3]([C:4]([H:13])([H:14])[H:15])([C:5]([C:6]([H:18])([H:19])[H:20])([H:16])[H:17])[H:12])([H:10])[H:11])([H:7])([H:8])[H:9]>>[C:1](=[C:2]([H:10])[H:11])([H:7])[H:8].[C:3](=[C:4]([H:13])[H:14])([C:5]([C:6]([H:18])([H:19])[H:20])([H:16])[H:17])[H:12].[H:9][H:15]"
C        2.52806990      -0.20362718      -0.89117024
C        1.55904404      -1.06292394      -0.44018446
C       -0.22550983       0.05743991       0.61674861
C        0.04471376       1.40633003       0.60497838
C       -1.36452204      -0.52272777      -0.18405904
C       -2.71503914      -0.33028058       0.50705462
H        3.44799800      -0.07936936      -0.32981589
H        2.60124024       0.02062038      -1.95000882
H        2.03014983       1.23332245      -0.56944513
H        0.83668661      -1.46257034      -1.13846471
H        1.72044980      -1.64358596       0.45798544
H        0.03990803      -0.49118886       1.51430380
H       -0.54798749       2.06396274      -0.02527249
H        0.48036554       1.87875418       1.47801589
H        1.33879052       1.62854913      -0.19107202
H       -1.20508200      -1.59160118      -0.34839963
H       -1.39026797      -0.05583878      -1.17390895
H       -2.94581407       0.72970448       0.62889931
H       -3.52152235      -0.79128167      -0.06732653
H       -2.71167137      -0.78368769       1.50114187
20
Frame=2 idx=001243 GeodesicLength=0.1558041464037201 rxn_smarts="[C:1]([C:2]([C:3]([C:4]([H:13])([H:14])[H:15])([C:5]([C:6]([H:18])([H:19])[H:20])([H:16])[H:17])[H:12])([H:10])[H:11])([H:7])([H:8])[H:9]>>[C:1](=[C:2]([H:10])[H:11])([H:7])[H:8].[C:3](=[C:4]([H:13])[H:14])([C:5]([C:6]([H:18])([H:19])[H:20])([H:16])[H:17])[H:12].[H:9][H:15]"
C        2.55478471      -0.20737246      -0.86657710
C        1.55299960      -1.05357035      -0.45341458
C       -0.22634846       0.06151569       0.59424148
C        0.03451266       1.41550356       0.58000718
C       -1.37946422      -0.52136404      -0.18478415
C       -2.71860049      -0.33982295       0.53050194
H        3.45738862      -0.11013986      -0.27206239
H        2.67940921       0.00403990      -1.92351691
H        2.05826770       1.24017244      -0.57194802
H        0.84122495      -1.41731941      -1.18247031
H        1.69535081      -1.67978302       0.41738455
H        0.03724691      -0.47509173       1.50036122
H       -0.57788537       2.07141384      -0.03287541
H        0.47107780       1.88956409       1.45200302
H        1.34419418       1.64649178      -0.21002406
H       -1.21657213      -1.58896402      -0.35509894
H       -1.42638087      -0.05272076      -1.17310274
H       -2.95572544       0.71822707       0.65676439
H       -3.53149277      -0.80710085      -0.02951117
H       -2.69398740      -0.79367892       1.52412201
20
Frame=3 idx=001243 GeodesicLength=0.2323583596809725 rxn_smarts="[C:1]([C:2]([C:3]([C:4]([H:13])([H:14])[H:15])([C:5]([C:6]([H:18])([H:19])[H:20])([H:16])[H:17])[H:12])([H:10])[H:11])([H:7])([H:8])[H:9]>>[C:1](=[C:2]([H:10])[H:11])([H:7])[H:8].[C:3](=[C:4]([H:13])[H:14])([C:5]([C:6]([H:18])([H:19])[H:20])([H:16])[H:17])[H:12].[H:9][H:15]"
C        2.57974236      -0.21158237      -0.84178928
C        1.54716728      -1.04407472      -0.46665684
C       -0.22724886       0.06580903       0.57178240
C        0.02425032       1.42485237       0.55468307
C       -1.39375523      -0.52018962      -0.18539640
C       -2.72124496      -0.34936786       0.55336420
H        3.46416962      -0.14225778      -0.21615630
H        2.75378292      -0.01367876      -1.89464993
H        2.08700333       1.24667988      -0.57331309
H        0.84693467      -1.37076515      -1.22479168
H        1.67010954      -1.71404121       0.37446457
H        0.03495628      -0.45855699       1.48624484
H       -0.60821688       2.07866698      -0.03969995
H        0.46151881       1.90061123       1.42572394
H        1.35032658       1.66442969      -0.22820764
H       -1.22753195      -1.58653255      -0.36141435
H       -1.46145261      -0.05025579      -1.17196980
H       -2.96481980       0.70669250       0.68379736
H       -3.54002057      -0.82321189       0.00770323
H       -2.67567085      -0.80322698       1.54628164
20
Frame=4 idx=001243 GeodesicLength=0.30825664016220344 rxn_smarts="[C:1]([C:2]([C:3]([C:4]([H:13])([H:14])[H:15])([C:5]([C:6]([H:18])([H:19])[H:20])([H:16])[H:17])[H:12])([H:10])[H:11])([H:7])([H:8])[H:9]>>[C:1](=[C:2]([H:10])[H:11])([H:7])[H:8].[C:3](=[C:4]([H:13])[H:14])([C:5]([C:6]([H:18])([H:19])[H:20])([H:16])[H:17])[H:12].[H:9][H:15]"
C        2.60305578      -0.21627129      -0.81681579
C        1.54152567      -1.03441936      -0.47989630
C       -0.22822835       0.07032306       0.54935672
C        0.01389232       1.43438086       0.52895322
C       -1.40742810      -0.51920623      -0.18590001
C       -2.72301649      -0.35891225       0.57567608
H        3.46848635      -0.17576553      -0.16206849
H        2.82446250      -0.03255858      -1.86364706
H        2.11638369       1.25283030      -0.57348430
H        0.85384759      -1.32296727      -1.26538137
H        1.64484054      -1.74625059       0.32926556
H        0.03298008      -0.44156227       1.47195834
H       -0.63902523       2.08568986      -0.04568007
H        0.45168844       1.91188429       1.39911499
H        1.35712019       1.68240833      -0.24565919
H       -1.23798396      -1.58431358      -0.36732982
H       -1.49553096      -0.04845130      -1.17053210
H       -2.97315755       0.69509846       0.71003183
H       -3.54716150      -0.83961329       0.04436797
H       -2.65675100      -0.81232364       1.56766979
20
Frame=5 idx=001243 GeodesicLength=0.38353805755277326 rxn_smarts="[C:1]([C:2]([C:3]([C:4]([H:13])([H:14])[H:15])([C:5]([C:6]([H:18])([H:19])[H:20])([H:16])[H:17])[H:12])([H:10])[H:11])([H:7])([H:8])[H:9]>>[C:1](=[C:2]([H:10])[H:11])([H:7])[H:8].[C:3](=[C:4]([H:13])[H:14])([C:5]([C:6]([H:18])([H:19])[H:20])([H:16])[H:17])[H:12].[H:9][H:15]"
C        2.62482097      -0.22139518      -0.79167048
C        1.53606070      -1.02459289      -0.49318740
C       -0.22928006       0.07503996       0.52691749
C        0.00343059       1.44407307       0.50272517
C       -1.42052435      -0.51843451      -0.18629297
C       -2.72394861      -0.36843315       0.59750000
H        3.47033793      -0.21057106      -0.10969670
H        2.89172147      -0.05240125      -1.83057948
H        2.14640582       1.25855452      -0.57241529
H        0.86186779      -1.27405888      -1.30428498
H        1.61958115      -1.77648575       0.28184559
H        0.03130962      -0.42408886       1.45747756
H       -0.67030160       2.09242562      -0.05084523
H        0.44160219       1.92337241       1.37208548
H        1.36455609       1.70042932      -0.26242610
H       -1.24795861      -1.58234221      -0.37279874
H       -1.52871147      -0.04735997      -1.16882894
H       -2.98077488       0.68347441       0.73552481
H       -3.55297675      -0.85627750       0.08057660
H       -2.63721800      -0.82092808       1.58837359
20
Frame=6 idx=001243 GeodesicLength=0.458384576732757 rxn_smarts="[C:1]([C:2]([C:3]([C:4]([H:13])([H:14])[H:15])([C:5]([C:6]([H:18])([H:19])[H:20])([H:16])[H:17])[H:12])([H:10])[H:11])([H:7])([H:8])[H:9]>>[C:1](=[C:2]([H:10])[H:11])([H:7])[H:8].[C:3](=[C:4]([H:13])[H:14])([C:5]([C:6]([H:18])([H:19])[H:20])([H:16])[H:17])[H:12].[H:9][H:15]"
C        2.64512878      -0.22700197      -0.76634391
C        1.53074521      -1.01457219      -0.50648364
C       -0.23043572       0.07997189       0.50447329
C       -0.00719380       1.45394196       0.47596351
C       -1.43306532      -0.51787442      -0.18657410
C       -2.72407946      -0.37793088       0.61884859
H        3.46991687      -0.24677875      -0.05905669
H        2.95551626      -0.07330752      -1.79576105
H        2.17709297       1.26385506      -0.56998261
H        0.87110561      -1.22404124      -1.34142212
H        1.59445934      -1.80456699       0.23221612
H        0.02987591      -0.40610317       1.44282623
H       -0.70205191       2.09883193      -0.05512283
H        0.43124165       1.93507382       1.34457670
H        1.37254454       1.71854489      -0.27853259
H       -1.25745864      -1.58062660      -0.37780691
H       -1.56100379      -0.04698357      -1.16687234
H       -2.98772800       0.67181089       0.76027694
H       -3.55749978      -0.87321933       0.11635631
H       -2.61711070      -0.82902380       1.60842109
20
Frame=7 idx=001243 GeodesicLength=0.5328702170229911 rxn_smarts="[C:1]([C:2]([C:3]([C:4]([H:13])([H:14])[H:15])([C:5]([C:6]([H:18])([H:19])[H:20])([H:16])[H:17])[H:12])([H:10])[H:11])([H:7])([H:8])[H:9]>>[C:1](=[C:2]([H:10])[H:11])([H:7])[H:8].[C:3](=[C:4]([H:13])[H:14])([C:5]([C:6]([H:18])([H:19])[H:20])([H:16])[H:17])[H:12].[H:9][H:15]"
C        2.66403660      -0.23310072      -0.74085922
C        1.52557539      -1.00434276      -0.51976309
C       -0.23170370       0.08510810       0.48202220
C       -0.01801357       1.46397779       0.44862563
C       -1.44506971      -0.51754202      -0.18673955
C       -2.72344610      -0.38738614       0.63973038
H        3.46732074      -0.28441152      -0.01023145
H        3.01582455      -0.09519998      -1.75938903
H        2.20846392       1.26869910      -0.56604863
H        0.88157319      -1.17301927      -1.37673363
H        1.56962246      -1.83039140       0.18047052
H        0.02863779      -0.38758677       1.42801572
H       -0.73423232       2.10484944      -0.05849052
H        0.42060229       1.94697774       1.31653946
H        1.38103296       1.73677342      -0.29399063
H       -1.26648943      -1.57918519      -0.38230897
H       -1.59243391      -0.04736226      -1.16468968
H       -2.99406035       0.66012468       0.78427884
H       -3.56077271      -0.89041924       0.15172107
H       -2.59646809      -0.83656299       1.62784058
20
Frame=8 idx=001243 GeodesicLength=0.607065037620715 rxn_smarts="[C:1]([C:2]([C:3]([C:4]([H:13])([H:14])[H:15])([C:5]([C:6]([H:18])([H:19])[H:20])([H:16])[H:17])[H:12])([H:10])[H:11])([H:7])([H:8])[H:9]>>[C:1](=[C:2]([H:10])[H:11])([H:7])[H:8].[C:3](=[C:4]([H:13])[H:14])([C:5]([C:6]([H:18])([H:19])[H:20])([H:16])[H:17])[H:12].[H:9][H:15]"
C        2.68160246      -0.23969564      -0.71520803
C        1.52054114      -0.99388605      -0.53302232
C       -0.23309770       0.09044155       0.45955174
C       -0.02906955       1.47417101       0.42065917
C       -1.45655877      -0.51744922      -0.18678563
C       -2.72208343      -0.39678258       0.66017581
H        3.46262551      -0.32348997       0.03677523
H        3.07270342      -0.11802158      -1.72166525
H        2.24051415       1.27305683      -0.56046796
H        0.89329550      -1.12106393      -1.41017836
H        1.54517005      -1.85388516       0.12663899
H        0.02755230      -0.36851294       1.41304192
H       -0.76677666       2.11041802      -0.06096161
H        0.40967990       1.95907349       1.28790413
H        1.38994534       1.75513336      -0.30883728
H       -1.27505249      -1.57804176      -0.38626992
H       -1.62302799      -0.04852322      -1.16230206
H       -2.99981408       0.64843057       0.80754706
H       -3.56283228      -0.90786199       0.18672253
H       -2.57531683      -0.84351079       1.64668185
20
Frame=9 idx=001243 GeodesicLength=0.6809559489760234 rxn_smarts="[C:1]([C:2]([C:3]([C:4]([H:13])([H:14])[H:15])([C:5]([C:6]([H:18])([H:19])[H:20])([H:16])[H:17])[H:12])([H:10])[H:11])([H:7])([H:8])[H:9]>>[C:1](=[C:2]([H:10])[H:11])([H:7])[H:8].[C:3](=[C:4]([H:13])[H:14])([C:5]([C:6]([H:18])([H:19])[H:20])([H:16])[H:17])[H:12].[H:9][H:15]"
C        2.69788338      -0.24674676      -0.68940147
C        1.51563925      -0.98319662      -0.54632296
C       -0.23460079       0.09594067       0.43702564
C       -0.04036254       1.48448443       0.39201160
C       -1.46755612      -0.51760601      -0.18669897
C       -2.71999625      -0.40609765       0.68023857
H        3.45571382      -0.36386049       0.08207714
H        3.12639709      -0.14154504      -1.68258985
H        2.27318128       1.27685426      -0.55319225
H        0.90615606      -1.06833412      -1.44181712
H        1.52107554      -1.87513436       0.07074183
H        0.02661809      -0.34888641       1.39787525
H       -0.79956873       2.11548239      -0.06262598
H        0.39852276       1.97132577       1.25860226
H        1.39923355       1.77361895      -0.32314662
H       -1.28316126      -1.57720694      -0.38963496
H       -1.65285312      -0.05050499      -1.15970702
H       -3.00498504       0.63675374       0.83012829
H       -3.56370178      -0.92550747       0.22143684
H       -2.55363518      -0.84983335       1.66499977
20
Frame=10 idx=001243 GeodesicLength=0.7546311598345742 rxn_smarts="[C:1]([C:2]([C:3]([C:4]([H:13])([H:14])[H:15])([C:5]([C:6]([H:18])([H:19])[H:20])([H:16])[H:17])[H:12])([H:10])[H:11])([H:7])([H:8])[H:9]>>[C:1](=[C:2]([H:10])[H:11])([H:7])[H:8].[C:3](=[C:4]([H:13])[H:14])([C:5]([C:6]([H:18])([H:19])[H:20])([H:16])[H:17])[H:12].[H:9][H:15]"
C        2.71289339      -0.25431526      -0.66338797
C        1.51084621      -0.97225728      -0.55964061
C       -0.23624064       0.10160016       0.41445772
C       -0.05196194       1.49491102       0.36265968
C       -1.47807313      -0.51803325      -0.18647445
C       -2.71722406      -0.41531561       0.69993672
H        3.44671797      -0.40562941       0.12563927
H        3.17680716      -0.16585683      -1.64244246
H        2.30643953       1.28007402      -0.54401963
H        0.92029612      -1.01475475      -1.47157754
H        1.49754048      -1.89393184       0.01275380
H        0.02578815      -0.32868341       1.38253716
H       -0.83251170       2.11997995      -0.06351256
H        0.38710938       1.98373522       1.22857514
H        1.40878362       1.79225563      -0.33695458
H       -1.29079497      -1.57672313      -0.39238355
H       -1.68190363      -0.05333891      -1.15693087
H       -3.00963191       0.62511241       0.85200762
H       -3.56341483      -0.94335718       0.25590556
H       -2.53146518      -0.85547154       1.68285154
20
Frame=11 idx=001243 GeodesicLength=0.8281132308602493 rxn_smarts="[C:1]([C:2]([C:3]([C:4]([H:13])([H:14])[H:15])([C:5]([C:6]([H:18])([H:19])[H:20])([H:16])[H:17])[H:12])([H:10])[H:11])([H:7])([H:8])[H:9]>>[C:1](=[C:2]([H:10])[H:11])([H:7])[H:8].[C:3](=[C:4]([H:13])[H:14])([C:5]([C:6]([H:18])([H:19])[H:20])([H:16])[H:17])[H:12].[H:9][H:15]"
C        2.72664885      -0.26241136      -0.63716976
C        1.50615397      -0.96106151      -0.57299173
C       -0.23801768       0.10738964       0.39185319
C       -0.06390006       1.50541343       0.33258881
C       -1.48812011      -0.51875341      -0.18608935
C       -2.71379064      -0.42441069       0.71929397
H        3.43564249      -0.44876283       0.16741730
H        3.22395939      -0.19085097      -1.60135189
H        2.34024134       1.28267333      -0.53280573
H        0.93570096      -0.96039160      -1.49944173
H        1.47467712      -1.91019295      -0.04729532
H        0.02504227      -0.30791022       1.36702533
H       -0.86544265       2.12384370      -0.06373581
H        0.37543476       1.99628086       1.19778764
H        1.41851776       1.81104094      -0.35027599
H       -1.29794533      -1.57661534      -0.39445233
H       -1.71019483      -0.05707162      -1.15397695
H       -3.01377090       0.61353127       0.87318106
H       -3.56199828      -0.96137568       0.29016531
H       -2.50883845      -0.86036499       1.70027398
20
Frame=12 idx=001243 GeodesicLength=0.9014146959223787 rxn_smarts="[C:1]([C:2]([C:3]([C:4]([H:13])([H:14])[H:15])([C:5]([C:6]([H:18])([H:19])[H:20])([H:16])[H:17])[H:12])([H:10])[H:11])([H:7])([H:8])[H:9]>>[C:1](=[C:2]([H:10])[H:11])([H:7])[H:8].[C:3](=[C:4]([H:13])[H:14])([C:5]([C:6]([H:18])([H:19])[H:20])([H:16])[H:17])[H:12].[H:9][H:15]"
C        2.73915110      -0.27104784      -0.61071843
C        1.50155309      -0.94959974      -0.58640940
C       -0.23993189       0.11328103       0.36920441
C       -0.07620848       1.51595316       0.30178907
C       -1.49770235      -0.51978458      -0.18553077
C       -2.70971261      -0.43336068       0.73835448
H        3.42244339      -0.49323552       0.20742430
H        3.26793641      -0.21643682      -1.55943993
H        2.37450733       1.28459671      -0.51939580
H        0.95238024      -0.90527680      -1.52539788
H        1.45256062      -1.92384480      -0.10942730
H        0.02436110      -0.28657535       1.35132978
H       -0.89820130       2.12702593      -0.06344415
H        0.36350521       2.00893850       1.16619680
H        1.42834404       1.82998128      -0.36316791
H       -1.30459529      -1.57690822      -0.39579640
H       -1.73773858      -0.06173892      -1.15084980
H       -3.01742027       0.60203493       0.89366970
H       -3.55946907      -0.97953427       0.32428256
H       -2.48576268      -0.86446802       1.71732667
20
Frame=13 idx=001243 GeodesicLength=0.974535600877113 rxn_smarts="[C:1]([C:2]([C:3]([C:4]([H:13])([H:14])[H:15])([C:5]([C:6]([H:18])([H:19])[H:20])([H:16])[H:17])[H:12])([H:10])[H:11])([H:7])([H:8])[H:9]>>[C:1](=[C:2]([H:10])[H:11])([H:7])[H:8].[C:3](=[C:4]([H:13])[H:14])([C:5]([C:6]([H:18])([H:19])[H:20])([H:16])[H:17])[H:12].[H:9][H:15]"
C        2.75041980      -0.28020682      -0.58404208
C        1.49704631      -0.93786019      -0.59995872
C       -0.24196663       0.11922355       0.34651007
C       -0.08889474       1.52646204       0.27026230
C       -1.50682110      -0.52115475      -0.18476638
C       -2.70499848      -0.44213260       0.75716386
H        3.40703794      -0.53898441       0.24562695
H        3.30887284      -0.24238742      -1.51672924
H        2.40915091       1.28575836      -0.50361636
H        0.97024797      -0.84950485      -1.54947403
H        1.43119969      -1.93488568      -0.17365409
H        0.02374371      -0.26471593       1.33543339
H       -0.93061248       2.12948744      -0.06288125
H        0.35131236       2.02167679       1.13378302
H        1.43820156       1.84908548      -0.37566811
H       -1.31072550      -1.57762905      -0.39633260
H       -1.76455117      -0.06739461      -1.14753210
H       -3.02057678       0.59066456       0.91348943
H       -3.55584287      -0.99777709       0.35832230
H       -2.46224333      -0.86772483       1.73406365
20
Frame=14 idx=001243 GeodesicLength=1.0475160779508939 rxn_smarts="[C:1]([C:2]([C:3]([C:4]([H:13])([H:14])[H:15])([C:5]([C:6]([H:18])([H:19])[H:20])([H:16])[H:17])[H:12])([H:10])[H:11])([H:7])([H:8])[H:9]>>[C:1](=[C:2]([H:10])[H:11])([H:7])[H:8].[C:3](=[C:4]([H:13])[H:14])([C:5]([C:6]([H:18])([H:19])[H:20])([H:16])[H:17])[H:12].[H:9][H:15]"
C        2.76040052      -0.28996602      -0.55708311
C        1.49259983      -0.92582364      -0.61369065
C       -0.24413136       0.12519232       0.32377941
C       -0.10201404       1.53690526       0.23799672
C       -1.51547473      -0.52290190      -0.18376909
C       -2.69966079      -0.45070414       0.77576642
H        3.38941159      -0.58610001       0.28198271
H        3.34672828      -0.26874617      -1.47339227
H        2.44409951       1.28609799      -0.48522336
H        0.98940162      -0.79294254      -1.57162312
H        1.41078323      -1.94309728      -0.24009168
H        0.02318952      -0.24233023       1.31933914
H       -0.96252154       2.13118049      -0.06228484
H        0.33879017       2.03451001       1.10050946
H        1.44800226       1.86836655      -0.38775541
H       -1.31629840      -1.57883518      -0.39599815
H       -1.79062421      -0.07411179      -1.14403098
H       -3.02326794       0.57945175       0.93262343
H       -3.55112087      -1.01610876       0.39237269
H       -2.43829265      -0.87003670       1.75057269
20
Frame=15 idx=001243 GeodesicLength=1.1203976186834192 rxn_smarts="[C:1]([C:2]([C:3]([C:4]([H:13])([H:14])[H:15])([C:5]([C:6]([H:18])([H:19])[H:20])([H:16])[H:17])[H:12])([H:10])[H:11])([H:7])([H:8])[H:9]>>[C:1](=[C:2]([H:10])[H:11])([H:7])[H:8].[C:3](=[C:4]([H:13])[H:14])([C:5]([C:6]([H:18])([H:19])[H:20])([H:16])[H:17])[H:12].[H:9][H:15]"
C        2.76907262      -0.30036026      -0.52984699
C        1.48820442      -0.91346608      -0.62768057
C       -0.24641496       0.13114301       0.30102126
C       -0.11558351       1.54721742       0.20499745
C       -1.52365339      -0.52506344      -0.18249926
C       -2.69370596      -0.45904208       0.79420606
H        3.36951505      -0.63460151       0.31641001
H        3.38155446      -0.29537806      -1.42952428
H        2.47927823       1.28552607      -0.46397042
H        1.00980317      -0.73557824      -1.59184208
H        1.39138630      -1.94837235      -0.30876042
H        0.02270682      -0.21945037       1.30303695
H       -0.99377802       2.13207284      -0.06195220
H        0.32588618       2.04742404       1.06636363
H        1.45767710       1.88783783      -0.39941688
H       -1.32127237      -1.58056626      -0.39469586
H       -1.81594905      -0.08196926      -1.14032875
H       -3.02549755       0.56843454       0.95106381
H       -3.54530898      -1.03448573       0.42650457
H       -2.41392057      -0.87132211       1.76691396
20
Frame=16 idx=001243 GeodesicLength=1.1931955980700397 rxn_smarts="[C:1]([C:2]([C:3]([C:4]([H:13])([H:14])[H:15])([C:5]([C:6]([H:18])([H:19])[H:20])([H:16])[H:17])[H:12])([H:10])[H:11])([H:7])([H:8])[H:9]>>[C:1](=[C:2]([H:10])[H:11])([H:7])[H:8].[C:3](=[C:4]([H:13])[H:14])([C:5]([C:6]([H:18])([H:19])[H:20])([H:16])[H:17])[H:12].[H:9][H:15]"
C        2.77637677      -0.31144863      -0.50229224
C        1.48384259      -0.90076540      -0.64204876
C       -0.24879734       0.13703739       0.27822218
C       -0.12961132       1.55733789       0.17125376
C       -1.53133870      -0.52767079      -0.18092630
C       -2.68711334      -0.46712527       0.81255046
H        3.34715270      -0.68447966       0.34892910
H        3.41348071      -0.32223964      -1.38511708
H        2.51455890       1.28392338      -0.43967472
H        1.03145372      -0.67734368      -1.61013608
H        1.37305938      -1.95057311      -0.37980255
H        0.02232619      -0.19610242       1.28649117
H       -1.02429019       2.13216486      -0.06215104
H        0.31257775       2.06040634       1.03131066
H        1.46716888       1.90752614      -0.41068400
H       -1.32559042      -1.58285819      -0.39235573
H       -1.84052905      -0.09102447      -1.13641086
H       -3.02726199       0.55763951       0.96883512
H       -3.53837818      -1.05289348       0.46083345
H       -2.38908707      -0.87151077       1.78317348
