14
Frame=0 idx=002985 GeodesicLength=0.0 rxn_smarts="[C:1]([C@@:2]1([H:10])[O:3][C@:4]1([C:5]([O:6][H:14])([H:12])[H:13])[H:11])([H:7])([H:8])[H:9]>>[C:1]([C@@:2]1([H:10])[O:3][C@@:4]1([C:5](=[O:6])[H:12])[H:13])([H:7])([H:8])[H:9].[H:11][H:14]"
C        2.06647298       0.41627304      -0.09566405
C        0.96600959      -0.45271998       0.42183587
O        0.01101911       0.18509722       1.36678348
C       -0.43717354      -0.17966527       0.21165827
C       -1.51218196       0.35354167      -0.69169781
O       -2.66753353       0.54973611      -0.13943124
H        1.70604041       1.42162641      -0.31094075
H        2.46537209      -0.01420082      -1.01576186
H        2.87736223       0.47708863       0.63106737
H        1.22125851      -1.46195924       0.72906553
H       -1.87991706      -1.45290596       0.79637693
H       -1.45686902      -0.24549302      -1.62563597
H       -0.91926349       1.28994972      -0.91558332
H       -2.44059635      -0.88636848       0.63792757
14
Frame=1 idx=002985 GeodesicLength=0.10739083557757605 rxn_smarts="[C:1]([C@@:2]1([H:10])[O:3][C@:4]1([C:5]([O:6][H:14])([H:12])[H:13])[H:11])([H:7])([H:8])[H:9]>>[C:1]([C@@:2]1([H:10])[O:3][C@@:4]1([C:5](=[O:6])[H:12])[H:13])([H:7])([H:8])[H:9].[H:11][H:14]"
C        2.06575770       0.41438003      -0.09614902
C        0.95885385      -0.44588136       0.42271099
O        0.01144395       0.19606120       1.36563779
C       -0.44141790      -0.16603079       0.20442102
C       -1.51902878       0.34964609      -0.70155388
O       -2.67845754       0.51871569      -0.14794166
H        1.71270847       1.42201823      -0.31303265
H        2.46408083      -0.01971773      -1.01480036
H        2.87576507       0.47066920       0.63204536
H        1.20314232      -1.46151547       0.71787916
H       -1.85582803      -1.44572269       0.82061012
H       -1.45377618      -0.23176618      -1.64473191
H       -0.89382358       1.29224879      -0.88804323
H       -2.44942019      -0.89310500       0.64294827
14
Frame=2 idx=002985 GeodesicLength=0.2146467567042849 rxn_smarts="[C:1]([C@@:2]1([H:10])[O:3][C@:4]1([C:5]([O:6][H:14])([H:12])[H:13])[H:11])([H:7])([H:8])[H:9]>>[C:1]([C@@:2]1([H:10])[O:3][C@@:4]1([C:5](=[O:6])[H:12])[H:13])([H:7])([H:8])[H:9].[H:11][H:14]"
C        2.06491500       0.41240589      -0.09660869
C        0.95174145      -0.43916553       0.42372475
O        0.01204846       0.20685280       1.36477785
C       -0.44563579      -0.15266628       0.19750647
C       -1.52535917       0.34636632      -0.71101374
O       -2.68854485       0.48735523      -0.15634853
H        1.71908941       1.42218471      -0.31523469
H        2.46263412      -0.02537761      -1.01377948
H        2.87403876       0.46438353       0.63300078
H        1.18520489      -1.46084223       0.70694769
H       -1.83183102      -1.43799875       0.84414925
H       -1.45104359      -0.21722406      -1.66316966
H       -0.86908576       1.29400045      -0.86172058
H       -2.45817190      -0.90027448       0.64776858
14
Frame=3 idx=002985 GeodesicLength=0.3219056251839232 rxn_smarts="[C:1]([C@@:2]1([H:10])[O:3][C@:4]1([C:5]([O:6][H:14])([H:12])[H:13])[H:11])([H:7])([H:8])[H:9]>>[C:1]([C@@:2]1([H:10])[O:3][C@@:4]1([C:5](=[O:6])[H:12])[H:13])([H:7])([H:8])[H:9].[H:11][H:14]"
C        2.06394643       0.41034712      -0.09704811
C        0.94465865      -0.43255738       0.42487445
O        0.01281244       0.21751139       1.36417645
C       -0.44984320      -0.13956366       0.19089494
C       -1.53125838       0.34363053      -0.72008252
O       -2.69783156       0.45560408      -0.16470844
H        1.72520951       1.42213680      -0.31753782
H        2.46101882      -0.03118382      -1.01270949
H        2.87219351       0.45820571       0.63392459
H        1.16743311      -1.45992859       0.69630630
H       -1.80786382      -1.42985443       0.86698180
H       -1.44866829      -0.20185379      -1.68100610
H       -0.84489177       1.29532861      -0.83657961
H       -2.46691544      -0.90782257       0.65251354
14
Frame=4 idx=002985 GeodesicLength=0.4292352217916185 rxn_smarts="[C:1]([C@@:2]1([H:10])[O:3][C@:4]1([C:5]([O:6][H:14])([H:12])[H:13])[H:11])([H:7])([H:8])[H:9]>>[C:1]([C@@:2]1([H:10])[O:3][C@@:4]1([C:5](=[O:6])[H:12])[H:13])([H:7])([H:8])[H:9].[H:11][H:14]"
C        2.06285552       0.40820378      -0.09746806
C        0.93759301      -0.42604204       0.42615154
O        0.01371635       0.22806989       1.36380417
C       -0.45405507      -0.12671287       0.18456005
C       -1.53681118       0.34136230      -0.72877109
O       -2.70633017       0.42341673      -0.17308195
H        1.73109555       1.42188956      -0.31992415
H        2.45922938      -0.03713112      -1.01159750
H        2.87023805       0.45211119       0.63481655
H        1.14981656      -1.45876648       0.68597699
H       -1.78387609      -1.42140859       0.88908755
H       -1.44665796      -0.18564563      -1.69828791
H       -0.82110352       1.29632472      -0.81258526
H       -2.47571043      -0.91567142       0.65731907
14
Frame=5 idx=002985 GeodesicLength=0.5367361149178257 rxn_smarts="[C:1]([C@@:2]1([H:10])[O:3][C@:4]1([C:5]([O:6][H:14])([H:12])[H:13])[H:11])([H:7])([H:8])[H:9]>>[C:1]([C@@:2]1([H:10])[O:3][C@@:4]1([C:5](=[O:6])[H:12])[H:13])([H:7])([H:8])[H:9].[H:11][H:14]"
C        2.06165191       0.40597677      -0.09786613
C        0.93053354      -0.41960111       0.42754181
O        0.01474246       0.23855981       1.36362905
C       -0.45828164      -0.11409234       0.17847046
C       -1.54208727       0.33949700      -0.73710100
O       -2.71406941       0.39075604      -0.18153055
H        1.73678583       1.42145856      -0.32236974
H        2.45726626      -0.04320910      -1.01044696
H        2.86818326       0.44606931       0.63568097
H        1.13234153      -1.45734786       0.67596830
H       -1.75978866      -1.41277243       0.91046938
H       -1.44503189      -0.16860862      -1.71505740
H       -0.79759929       1.29706034      -0.78968662
H       -2.48464664      -0.92374636       0.66229842
14
Frame=6 idx=002985 GeodesicLength=0.6444223827142554 rxn_smarts="[C:1]([C@@:2]1([H:10])[O:3][C@:4]1([C:5]([O:6][H:14])([H:12])[H:13])[H:11])([H:7])([H:8])[H:9]>>[C:1]([C@@:2]1([H:10])[O:3][C@@:4]1([C:5](=[O:6])[H:12])[H:13])([H:7])([H:8])[H:9].[H:11][H:14]"
C        2.06034372       0.40366955      -0.09823855
C        0.92347281      -0.41322078       0.42903026
O        0.01587465       0.24900008       1.36362163
C       -0.46253258      -0.10168984       0.17259548
C       -1.54715377       0.33795879      -0.74509226
O       -2.72105891       0.35756632      -0.19012211
H        1.74230973       1.42086019      -0.32484999
H        2.45513396      -0.04940379      -1.00926089
H        2.86603702       0.44005684       0.63652658
H        1.11500483      -1.45567017       0.66628316
H       -1.73554240      -1.40404070       0.93110531
H       -1.44380315      -0.15073921      -1.73135444
H       -0.77427574       1.29759381      -0.76783695
H       -2.49381016      -0.93194109       0.66759279
14
Frame=7 idx=002985 GeodesicLength=0.7522587930498342 rxn_smarts="[C:1]([C@@:2]1([H:10])[O:3][C@:4]1([C:5]([O:6][H:14])([H:12])[H:13])[H:11])([H:7])([H:8])[H:9]>>[C:1]([C@@:2]1([H:10])[O:3][C@@:4]1([C:5](=[O:6])[H:12])[H:13])([H:7])([H:8])[H:9].[H:11][H:14]"
C        2.05893962       0.40129154      -0.09857754
C        0.91640742      -0.40689084       0.43059871
O        0.01709936       0.25939336       1.36375697
C       -0.46681450      -0.08949789       0.16690511
C       -1.55206668       0.33667212      -0.75276691
O       -2.72727895       0.32380805      -0.19892738
H        1.74769013       1.42011503      -0.32733322
H        2.45284263      -0.05568820      -1.00803941
H        2.86380471       0.43405831       0.63736785
H        1.09781071      -1.45373461       0.65690792
H       -1.71108271      -1.39531564       0.95096458
H       -1.44299618      -0.13204496      -1.74720601
H       -0.75105498       1.29794264      -0.74699879
H       -2.50330060      -0.94010891       0.67334813
14
Frame=8 idx=002985 GeodesicLength=0.8602361316359364 rxn_smarts="[C:1]([C@@:2]1([H:10])[O:3][C@:4]1([C:5]([O:6][H:14])([H:12])[H:13])[H:11])([H:7])([H:8])[H:9]>>[C:1]([C@@:2]1([H:10])[O:3][C@@:4]1([C:5](=[O:6])[H:12])[H:13])([H:7])([H:8])[H:9].[H:11][H:14]"
C        2.05745196       0.39885034      -0.09887820
C        0.90933591      -0.40060067       0.43222717
O        0.01840402       0.26974271       1.36400834
C       -0.47113155      -0.07750503       0.16136682
C       -1.55687290       0.33555605      -0.76015683
O       -2.73273462       0.28940625      -0.20802377
H        1.75295627       1.41924217      -0.32979282
H        2.45040632      -0.06204019      -1.00678419
H        2.86149430       0.42805625       0.63821763
H        1.08076491      -1.45154386       0.64782648
H       -1.68635337      -1.38668821       0.97002743
H       -1.44261552      -0.11252705      -1.76265320
H       -0.72786970       1.29814356      -0.72710325
H       -2.51323603      -0.94809231       0.67971841
14
Frame=9 idx=002985 GeodesicLength=0.96759441191514 rxn_smarts="[C:1]([C@@:2]1([H:10])[O:3][C@:4]1([C:5]([O:6][H:14])([H:12])[H:13])[H:11])([H:7])([H:8])[H:9]>>[C:1]([C@@:2]1([H:10])[O:3][C@@:4]1([C:5](=[O:6])[H:12])[H:13])([H:7])([H:8])[H:9].[H:11][H:14]"
C        2.05589282       0.39632585      -0.09915955
C        0.90225588      -0.39434465       0.43390331
O        0.01980069       0.28006608       1.36436068
C       -0.47546937      -0.06565830       0.15595009
C       -1.56156697       0.33460148      -0.76732418
O       -2.73745510       0.25403288      -0.21746381
H        1.75813979       1.41822494      -0.33226124
H        2.44783204      -0.06849691      -1.00550748
H        2.85911702       0.42201955       0.63905892
H        1.06382348      -1.44911072       0.63901395
H       -1.66150967      -1.37796119       0.98843971
H       -1.44253464      -0.09208148      -1.77775389
H       -0.70478191       1.29830751      -0.70795335
H       -2.52354406      -0.95592504       0.68669682
14
Frame=10 idx=002985 GeodesicLength=1.0751261567171384 rxn_smarts="[C:1]([C@@:2]1([H:10])[O:3][C@:4]1([C:5]([O:6][H:14])([H:12])[H:13])[H:11])([H:7])([H:8])[H:9]>>[C:1]([C@@:2]1([H:10])[O:3][C@@:4]1([C:5](=[O:6])[H:12])[H:13])([H:7])([H:8])[H:9].[H:11][H:14]"
C        2.05427219       0.39376141      -0.09938982
C        0.89517499      -0.38811872       0.43559182
O        0.02125994       0.29031299       1.36478530
C       -0.47984296      -0.05400143       0.15062176
C       -1.56621751       0.33363524      -0.77428763
O       -2.74136663       0.21779427      -0.22738393
H        1.76325017       1.41712230      -0.33463746
H        2.44514195      -0.07495077      -1.00420516
H        2.85667412       0.41595147       0.63993543
H        1.04705594      -1.44644091       0.63042749
H       -1.63630148      -1.36948398       1.00601073
H       -1.44287949      -0.07080698      -1.79252103
H       -0.68164945       1.29836667      -0.68958442
H       -2.53457178      -0.96314157       0.69463693
14
Frame=11 idx=002985 GeodesicLength=1.1827081280945513 rxn_smarts="[C:1]([C@@:2]1([H:10])[O:3][C@:4]1([C:5]([O:6][H:14])([H:12])[H:13])[H:11])([H:7])([H:8])[H:9]>>[C:1]([C@@:2]1([H:10])[O:3][C@@:4]1([C:5](=[O:6])[H:12])[H:13])([H:7])([H:8])[H:9].[H:11][H:14]"
C        2.05260024       0.39117193      -0.09956517
C        0.88810064      -0.38192628       0.43726434
O        0.02277762       0.30044587       1.36526636
C       -0.48424867      -0.04253775       0.14535404
C       -1.57084257       0.33256045      -0.78108882
O       -2.74441286       0.18054761      -0.23790240
H        1.76830006       1.41595861      -0.33688156
H        2.44235036      -0.08135302      -1.00288790
H        2.85417059       0.40984093       0.64085606
H        1.03048377      -1.44355314       0.62201495
H       -1.61070356      -1.36129235       1.02273566
H       -1.44364112      -0.04870372      -1.80698077
H       -0.65846340       1.29833524      -0.67189327
H       -2.54647111      -0.96949438       0.70370850
14
Frame=12 idx=002985 GeodesicLength=1.2904220882575108 rxn_smarts="[C:1]([C@@:2]1([H:10])[O:3][C@:4]1([C:5]([O:6][H:14])([H:12])[H:13])[H:11])([H:7])([H:8])[H:9]>>[C:1]([C@@:2]1([H:10])[O:3][C@@:4]1([C:5](=[O:6])[H:12])[H:13])([H:7])([H:8])[H:9].[H:11][H:14]"
C        2.05089004       0.38858443      -0.09967761
C        0.88104983      -0.37577898       0.43888224
O        0.02434996       0.31039584       1.36578707
C       -0.48867771      -0.03128654       0.14011028
C       -1.57545219       0.33123891      -0.78778552
O       -2.74653940       0.14211312      -0.24915332
H        1.77329319       1.41477091      -0.33893739
H        2.43948406      -0.08762835      -1.00156787
H        2.85161215       0.40368718       0.64183757
H        1.01415077      -1.44047614       0.61369634
H       -1.58466555      -1.35348614       1.03857121
H       -1.44479348      -0.02578746      -1.82117312
H       -0.63522385       1.29821704      -0.65475848
H       -2.55947781      -0.97456382       0.71416861
14
Frame=13 idx=002985 GeodesicLength=1.3980458764842876 rxn_smarts="[C:1]([C@@:2]1([H:10])[O:3][C@:4]1([C:5]([O:6][H:14])([H:12])[H:13])[H:11])([H:7])([H:8])[H:9]>>[C:1]([C@@:2]1([H:10])[O:3][C@@:4]1([C:5](=[O:6])[H:12])[H:13])([H:7])([H:8])[H:9].[H:11][H:14]"
C        2.04914793       0.38600975      -0.09973388
C        0.87403251      -0.36968951       0.44041965
O        0.02598495       0.32011517       1.36634624
C       -0.49312648      -0.02024725       0.13487545
C       -1.58007250       0.32954984      -0.79439971
O       -2.74758807       0.10217661      -0.26130784
H        1.77823206       1.41357813      -0.34077746
H        2.43655174      -0.09373610      -1.00027030
H        2.84900672       0.39748126       0.64287222
H        0.99807488      -1.43723581       0.60540519
H       -1.55823149      -1.34603443       1.05354798
H       -1.44631379      -0.00198159      -1.83509807
H       -0.61197462       1.29803150      -0.63802732
H       -2.57372384      -0.97801757       0.72614785
14
Frame=14 idx=002985 GeodesicLength=1.50570642561391 rxn_smarts="[C:1]([C@@:2]1([H:10])[O:3][C@:4]1([C:5]([O:6][H:14])([H:12])[H:13])[H:11])([H:7])([H:8])[H:9]>>[C:1]([C@@:2]1([H:10])[O:3][C@@:4]1([C:5](=[O:6])[H:12])[H:13])([H:7])([H:8])[H:9].[H:11][H:14]"
C        2.04739401       0.38349304      -0.09972257
C        0.86708449      -0.36368853       0.44182013
O        0.02768352       0.32947535       1.36692942
C       -0.49757258      -0.00946603       0.12960380
C       -1.58467293       0.32734138      -0.80102187
O       -2.74748531       0.06044128      -0.27451933
H        1.78310578       1.41243515      -0.34232322
H        2.43360327      -0.09955691      -0.99901114
H        2.84636236       0.39124191       0.64398335
H        0.98233466      -1.43388403       0.59701242
H       -1.53136970      -1.33908088       1.06760146
H       -1.44816837       0.02268606      -1.84880772
H       -0.58874408       1.29777005      -0.62155285
H       -2.58955511      -0.97920784       0.74000810
14
Frame=15 idx=002985 GeodesicLength=1.613305106864045 rxn_smarts="[C:1]([C@@:2]1([H:10])[O:3][C@:4]1([C:5]([O:6][H:14])([H:12])[H:13])[H:11])([H:7])([H:8])[H:9]>>[C:1]([C@@:2]1([H:10])[O:3][C@@:4]1([C:5](=[O:6])[H:12])[H:13])([H:7])([H:8])[H:9].[H:11][H:14]"
C        2.04564168       0.38105961      -0.09965050
C        0.86023224      -0.35780505       0.44304298
O        0.02946181       0.33837676       1.36754157
C       -0.50199923       0.00103880       0.12427615
C       -1.58924810       0.32448578      -0.80769310
O       -2.74602862       0.01639538      -0.28896261
H        1.78790514       1.41137540      -0.34352920
H        2.43066686      -0.10501374      -0.99782355
H        2.84369248       0.38497391       0.64516333
H        0.96697525      -1.43046602       0.58840668
H       -1.50413899      -1.33263494       1.08076197
H       -1.45034368       0.04830201      -1.86229542
H       -0.56559604       1.29744542      -0.60515491
H       -2.60722080      -0.97753332       0.75591661
14
Frame=16 idx=002985 GeodesicLength=1.720899199429661 rxn_smarts="[C:1]([C@@:2]1([H:10])[O:3][C@:4]1([C:5]([O:6][H:14])([H:12])[H:13])[H:11])([H:7])([H:8])[H:9]>>[C:1]([C@@:2]1([H:10])[O:3][C@@:4]1([C:5](=[O:6])[H:12])[H:13])([H:7])([H:8])[H:9].[H:11][H:14]"
C        2.04390473       0.37873829      -0.09953069
C        0.85350873      -0.35207584       0.44404434
O        0.03134844       0.34670132       1.36819704
C       -0.50638197       0.01124554       0.11888424
C       -1.59378714       0.32085288      -0.81443565
O       -2.74295551      -0.03065163      -0.30482601
H        1.79261757       1.41043747      -0.34434565
H        2.42776629      -0.11001550      -0.99675345
H        2.84101461       0.37868086       0.64639082
H        0.95204670      -1.42703150       0.57946325
H       -1.47657380      -1.32672307       1.09309541
H       -1.45284746       0.07498406      -1.87551909
H       -0.54259886       1.29707193      -0.58863343
H       -2.62706233      -0.97221481       0.77396887
