11
Frame=0 idx=000623 GeodesicLength=0.0 rxn_smarts="[O:1]([C:2]([C:3]([C:4](=[O:5])[H:11])([H:9])[H:10])([H:7])[H:8])[H:6]>>[C-:4]#[O+:5].[O:1]([C:2]([C:3]([H:7])([H:9])[H:10])([H:8])[H:11])[H:6]"
O       -1.39547590       0.60660126      -0.96535295
C       -0.71836289       0.22502244       0.16245307
C        0.21106396      -0.89645574      -0.00595966
C        1.73715375       0.49774118      -0.12425960
O        2.80771803       0.72347957       0.27558243
H       -2.23948926       0.99427539      -0.72902207
H       -0.99469689      -1.16392350       0.31658794
H       -1.09063413       0.52340181       1.13510943
H        0.27635087      -1.38834851      -0.96568852
H        0.67164729      -1.35842921       0.85763010
H        0.73472516       1.23663526       0.04291982
11
Frame=1 idx=000623 GeodesicLength=0.06563628992854104 rxn_smarts="[O:1]([C:2]([C:3]([C:4](=[O:5])[H:11])([H:9])[H:10])([H:7])[H:8])[H:6]>>[C-:4]#[O+:5].[O:1]([C:2]([C:3]([H:7])([H:9])[H:10])([H:8])[H:11])[H:6]"
O       -1.38932848       0.60454140      -0.96782725
C       -0.72280513       0.21986820       0.16803517
C        0.21440486      -0.89717315      -0.00043715
C        1.74024890       0.51145507      -0.14230617
O        2.81340560       0.71355944       0.26234860
H       -2.22673660       1.00978129      -0.73762789
H       -1.00210113      -1.17125297       0.31543254
H       -1.09791428       0.51772026       1.14015063
H        0.28599564      -1.38616787      -0.96175333
H        0.67222320      -1.35823315       0.86553618
H        0.71260742       1.23590147       0.05844866
11
Frame=2 idx=000623 GeodesicLength=0.13122320539986942 rxn_smarts="[O:1]([C:2]([C:3]([C:4](=[O:5])[H:11])([H:9])[H:10])([H:7])[H:8])[H:6]>>[C-:4]#[O+:5].[O:1]([C:2]([C:3]([H:7])([H:9])[H:10])([H:8])[H:11])[H:6]"
O       -1.38303829       0.60254088      -0.97027451
C       -0.72745316       0.21464363       0.17366653
C        0.21784093      -0.89769044       0.00541478
C        1.74295144       0.52579988      -0.15933313
O        2.81948881       0.70312444       0.24719760
H       -2.21345795       1.02526779      -0.74637789
H       -1.00961495      -1.17870220       0.31381694
H       -1.10583851       0.51169989       1.14515258
H        0.29624784      -1.38352824      -0.95753440
H        0.67236791      -1.35812954       0.87388722
H        0.69050594       1.23497390       0.07438427
11
Frame=3 idx=000623 GeodesicLength=0.1967678018764455 rxn_smarts="[O:1]([C:2]([C:3]([C:4](=[O:5])[H:11])([H:9])[H:10])([H:7])[H:8])[H:6]>>[C-:4]#[O+:5].[O:1]([C:2]([C:3]([H:7])([H:9])[H:10])([H:8])[H:11])[H:6]"
O       -1.37658423       0.60061113      -0.97269149
C       -0.73228863       0.20934621       0.17933509
C        0.22136940      -0.89801941       0.01159981
C        1.74530911       0.54072690      -0.17537077
O        2.82586904       0.69225079       0.23015999
H       -2.19962572       1.04073758      -0.75524525
H       -1.01723104      -1.18626125       0.31173807
H       -1.11436903       0.50535447       1.15010016
H        0.30708003      -1.38044931      -0.95301025
H        0.67206262      -1.35815280       0.88267735
H        0.66840846       1.23385569       0.09070728
11
Frame=4 idx=000623 GeodesicLength=0.2623237144528632 rxn_smarts="[O:1]([C:2]([C:3]([C:4](=[O:5])[H:11])([H:9])[H:10])([H:7])[H:8])[H:6]>>[C-:4]#[O+:5].[O:1]([C:2]([C:3]([H:7])([H:9])[H:10])([H:8])[H:11])[H:6]"
O       -1.36995612       0.59876792      -0.97507182
C       -0.73729581       0.20398352       0.18502806
C        0.22498724      -0.89816003       0.01811752
C        1.74737408       0.55620035      -0.19045234
O        2.83249380       0.68095334       0.21129807
H       -2.18524754       1.05614116      -0.76419867
H       -1.02494030      -1.19391191       0.30919596
H       -1.12346751       0.49870889       1.15497827
H        0.31846919      -1.37693419      -0.94816192
H        0.67129347      -1.35832472       0.89188461
H        0.64628950       1.23257566       0.10738226
11
Frame=5 idx=000623 GeodesicLength=0.3279410175584555 rxn_smarts="[O:1]([C:2]([C:3]([C:4](=[O:5])[H:11])([H:9])[H:10])([H:7])[H:8])[H:6]>>[C-:4]#[O+:5].[O:1]([C:2]([C:3]([H:7])([H:9])[H:10])([H:8])[H:11])[H:6]"
O       -1.36310820       0.59703239      -0.97741818
C       -0.74245029       0.19855580       0.19073619
C        0.22869811      -0.89812265       0.02497939
C        1.74920233       0.57215309      -0.20459549
O        2.83922317       0.66932703       0.19057843
H       -2.17028484       1.07149137      -0.77322176
H       -1.03273346      -1.20164243       0.30617782
H       -1.13311102       0.49176668       1.15976954
H        0.33039386      -1.37301161      -0.94296380
H        0.67003852      -1.35867972       0.90151890
H        0.62413183       1.23113005       0.12443896
11
Frame=6 idx=000623 GeodesicLength=0.3936802757347032 rxn_smarts="[O:1]([C:2]([C:3]([C:4](=[O:5])[H:11])([H:9])[H:10])([H:7])[H:8])[H:6]>>[C-:4]#[O+:5].[O:1]([C:2]([C:3]([H:7])([H:9])[H:10])([H:8])[H:11])[H:6]"
O       -1.35603759       0.59542206      -0.97971919
C       -0.74774605       0.19307530       0.19644735
C        0.23249892      -0.89789428       0.03218471
C        1.75084250       0.58857320      -0.21782796
O        2.84607053       0.65733001       0.16806754
H       -2.15477606       1.08670882      -0.78228650
H       -1.04059380      -1.20943130       0.30268158
H       -1.14327477       0.48455095       1.16445685
H        0.34283674      -1.36867044      -0.93739019
H        0.66828669      -1.35922585       0.91154723
H        0.60189288       1.22956154       0.14183858
11
Frame=7 idx=000623 GeodesicLength=0.4594988746233737 rxn_smarts="[O:1]([C:2]([C:3]([C:4](=[O:5])[H:11])([H:9])[H:10])([H:7])[H:8])[H:6]>>[C-:4]#[O+:5].[O:1]([C:2]([C:3]([H:7])([H:9])[H:10])([H:8])[H:11])[H:6]"
O       -1.34869768       0.59395240      -0.98198570
C       -0.75316962       0.18753860       0.20215635
C        0.23639525      -0.89747978       0.03976015
C        1.75233363       0.60543116      -0.23011116
O        2.85291295       0.64501537       0.14364526
H       -2.13868338       1.10180628      -0.79138927
H       -1.04851521      -1.21727296       0.29868039
H       -1.15396574       0.47705523       1.16902467
H        0.35581049      -1.36391846      -0.93140869
H        0.66600526      -1.35999360       0.92199637
H        0.57957405       1.22786576       0.15963163
11
Frame=8 idx=000623 GeodesicLength=0.5254340800027876 rxn_smarts="[O:1]([C:2]([C:3]([C:4](=[O:5])[H:11])([H:9])[H:10])([H:7])[H:8])[H:6]>>[C-:4]#[O+:5].[O:1]([C:2]([C:3]([H:7])([H:9])[H:10])([H:8])[H:11])[H:6]"
O       -1.34105377       0.59265435      -0.98421221
C       -0.75871285       0.18195410       0.20785464
C        0.24038536      -0.89687316       0.04772244
C        1.75373284       0.62270326      -0.24143796
O        2.85971448       0.63238504       0.11727815
H       -2.12203269       1.11672674      -0.80051704
H       -1.05648527      -1.22514783       0.29415457
H       -1.16517990       0.46929114       1.17344990
H        0.36931222      -1.35875155      -0.92497834
H        0.66316923      -1.36100180       0.93285205
H        0.55715035       1.22605971       0.17783379
11
Frame=9 idx=000623 GeodesicLength=0.5917281825432984 rxn_smarts="[O:1]([C:2]([C:3]([C:4](=[O:5])[H:11])([H:9])[H:10])([H:7])[H:8])[H:6]>>[C-:4]#[O+:5].[O:1]([C:2]([C:3]([H:7])([H:9])[H:10])([H:8])[H:11])[H:6]"
O       -1.33303617       0.59155113      -0.98640329
C       -0.76434884       0.17632309       0.21353444
C        0.24446575      -0.89608726       0.05607705
C        1.75513808       0.64025125      -0.25184622
O        2.86632537       0.61958811       0.08893843
H       -2.10475642       1.13148293      -0.80965219
H       -1.06450017      -1.23305151       0.28909302
H       -1.17690217       0.46124426       1.17772356
H        0.38328338      -1.35322139      -0.91807801
H        0.65976620      -1.36228311       0.94412615
H        0.53456498       1.22420249       0.19648706
11
Frame=10 idx=000623 GeodesicLength=0.658143092616416 rxn_smarts="[O:1]([C:2]([C:3]([C:4](=[O:5])[H:11])([H:9])[H:10])([H:7])[H:8])[H:6]>>[C-:4]#[O+:5].[O:1]([C:2]([C:3]([H:7])([H:9])[H:10])([H:8])[H:11])[H:6]"
O       -1.32464775       0.59066043      -0.98854450
C       -0.77008339       0.17065769       0.21918567
C        0.24864243      -0.89509703       0.06484599
C        1.75655504       0.65816796      -0.26131048
O        2.87275659       0.60649413       0.05863377
H       -2.08694003       1.14599392      -0.81876546
H       -1.07252587      -1.24095462       0.28347793
H       -1.18912684       0.45294616       1.18181024
H        0.39776713      -1.34728141      -0.91066114
H        0.65577501      -1.36383501       0.95578648
H        0.51182767       1.22224779       0.21554151
11
Frame=11 idx=000623 GeodesicLength=0.7245357764188358 rxn_smarts="[O:1]([C:2]([C:3]([C:4](=[O:5])[H:11])([H:9])[H:10])([H:7])[H:8])[H:6]>>[C-:4]#[O+:5].[O:1]([C:2]([C:3]([H:7])([H:9])[H:10])([H:8])[H:11])[H:6]"
O       -1.31579250       0.59000329      -0.99064940
C       -0.77591157       0.16494567       0.22480094
C        0.25292478      -0.89390333       0.07410758
C        1.75802490       0.67645983      -0.26961683
O        2.87878533       0.59314614       0.02597382
H       -2.06849065       1.16031179      -0.82787636
H       -1.08054356      -1.24886313       0.27723991
H       -1.20190840       0.44436588       1.18567003
H        0.41285335      -1.34089193      -0.90263908
H        0.65111641      -1.36571706       0.96790991
H        0.48894191       1.22014284       0.23507950
11
Frame=12 idx=000623 GeodesicLength=0.7909720557124328 rxn_smarts="[O:1]([C:2]([C:3]([C:4](=[O:5])[H:11])([H:9])[H:10])([H:7])[H:8])[H:6]>>[C-:4]#[O+:5].[O:1]([C:2]([C:3]([H:7])([H:9])[H:10])([H:8])[H:11])[H:6]"
O       -1.30638559       0.58960827      -0.99272483
C       -0.78182843       0.15918454       0.23037386
C        0.25731606      -0.89250288       0.08391600
C        1.75961732       0.69509306      -0.27667232
O        2.88427179       0.57957802      -0.00927759
H       -2.04936038       1.17443681      -0.83698984
H       -1.08853120      -1.25677036       0.27032810
H       -1.21529226       0.43548033       1.18926311
H        0.42857915      -1.33404594      -0.89393450
H        0.64573908      -1.36795733       0.98053025
H        0.46587446       1.21789550       0.25518779
11
Frame=13 idx=000623 GeodesicLength=0.8575241252792926 rxn_smarts="[O:1]([C:2]([C:3]([C:4](=[O:5])[H:11])([H:9])[H:10])([H:7])[H:8])[H:6]>>[C-:4]#[O+:5].[O:1]([C:2]([C:3]([H:7])([H:9])[H:10])([H:8])[H:11])[H:6]"
O       -1.29633359       0.58951757      -0.99476410
C       -0.78782691       0.15338251       0.23589678
C        0.26181248      -0.89088567       0.09431860
C        1.76141026       0.71404367      -0.28240319
O        2.88911777       0.56578155      -0.04730871
H       -2.02955219       1.18830866      -0.84610439
H       -1.09646064      -1.26466157       0.26268963
H       -1.22931602       0.42627795       1.19254546
H        0.44496980      -1.32673018      -0.88446414
H        0.63959174      -1.37057020       0.99365285
H        0.44258729       1.21553571       0.27594121
11
Frame=14 idx=000623 GeodesicLength=0.924200081477733 rxn_smarts="[O:1]([C:2]([C:3]([C:4](=[O:5])[H:11])([H:9])[H:10])([H:7])[H:8])[H:6]>>[C-:4]#[O+:5].[O:1]([C:2]([C:3]([H:7])([H:9])[H:10])([H:8])[H:11])[H:6]"
O       -1.28549190       0.58976966      -0.99679775
C       -0.79390310       0.14751872       0.24136220
C        0.26642663      -0.88905841       0.10542667
C        1.76347941       0.73328334      -0.28656757
O        2.89302730       0.55184192      -0.08865474
H       -2.00893180       1.20200684      -0.85527220
H       -1.10430299      -1.27254236       0.25423175
H       -1.24408576       0.41670130       1.19545700
H        0.46212723      -1.31893462      -0.87409902
H        0.63258681      -1.37360855       1.00738965
H        0.41906817       1.21302216       0.29752400
11
Frame=15 idx=000623 GeodesicLength=0.9910563628355304 rxn_smarts="[O:1]([C:2]([C:3]([C:4](=[O:5])[H:11])([H:9])[H:10])([H:7])[H:8])[H:6]>>[C-:4]#[O+:5].[O:1]([C:2]([C:3]([H:7])([H:9])[H:10])([H:8])[H:11])[H:6]"
O       -1.27373194       0.59039723      -0.99882983
C       -0.80005469       0.14158567       0.24676033
C        0.27115971      -0.88702024       0.11732588
C        1.76590812       0.75279200      -0.28900350
O        2.89577634       0.53778901      -0.13369133
H       -1.98740988       1.21555371      -0.86450830
H       -1.11201404      -1.28041238       0.24487465
H       -1.25968522       0.40671121       1.19793189
H        0.48012230      -1.31065699      -0.86271468
H        0.62465398      -1.37709656       1.02179867
H        0.39527533       1.21035732       0.32005623
11
Frame=16 idx=000623 GeodesicLength=1.0580892852788293 rxn_smarts="[O:1]([C:2]([C:3]([C:4](=[O:5])[H:11])([H:9])[H:10])([H:7])[H:8])[H:6]>>[C-:4]#[O+:5].[O:1]([C:2]([C:3]([H:7])([H:9])[H:10])([H:8])[H:11])[H:6]"
O       -1.26091779       0.59143881      -1.00084225
C       -0.80624872       0.13558826       0.25207309
C        0.27600257      -0.88477010       0.13006965
C        1.76881746       0.77250187      -0.28961992
O        2.89705932       0.52370567      -0.18260324
H       -1.96494993       1.22889008      -0.87379540
H       -1.11956104      -1.28824955       0.23456191
H       -1.27612294       0.39629932       1.19990964
H        0.49896392      -1.30190652      -0.85021590
H        0.61572440      -1.38105129       1.03688590
H        0.37123275       1.20755347       0.34357652
