12
Frame=0 idx=003845 GeodesicLength=0.0 rxn_smarts="[N:1]#[C:2][C:3]([C@@:4]1([H:9])[C:5]([H:10])([H:11])[N:6]1[H:12])([H:7])[H:8]>>[N:1](=[C:2]=[C:3]([H:7])[H:8])[C:5](/[C:4](=[N:6]/[H:12])[H:9])([H:10])[H:11]"
N       -1.31441158      -0.87410940      -1.34625723
C       -1.52898714       0.14696741      -0.79866178
C       -0.93336270       1.06105056       0.10162396
C        0.33208170      -0.07548065       0.52390438
C        0.42794795      -0.99704189      -0.64125095
N        1.60456039       0.35929810       0.57484970
H       -0.50983132       1.93472903      -0.38986034
H       -1.50825813       1.32246999       0.98492400
H       -0.10218708      -0.55721413       1.40909334
H        0.94655341      -0.59520288      -1.50168980
H        0.61543593      -2.04684732      -0.44102955
H        1.97045857       0.32138120       1.52435430
12
Frame=1 idx=003845 GeodesicLength=0.08348512582093907 rxn_smarts="[N:1]#[C:2][C:3]([C@@:4]1([H:9])[C:5]([H:10])([H:11])[N:6]1[H:12])([H:7])[H:8]>>[N:1](=[C:2]=[C:3]([H:7])[H:8])[C:5](/[C:4](=[N:6]/[H:12])[H:9])([H:10])[H:11]"
N       -1.32008123      -0.87189879      -1.34296804
C       -1.53904021       0.15061133      -0.79854336
C       -0.94967368       1.07068683       0.09771307
C        0.33398221      -0.07377552       0.53129649
C        0.44291142      -0.99215587      -0.63459283
N        1.61222551       0.34456607       0.57081080
H       -0.52742876       1.94333563      -0.39648306
H       -1.53031862       1.33358751       0.97676216
H       -0.10158922      -0.55576279       1.41510451
H        0.95822448      -0.59461156      -1.49931412
H        0.63132586      -2.04206233      -0.43443075
H        1.98946224       0.28747949       1.51464512
12
Frame=2 idx=003845 GeodesicLength=0.1669473970267291 rxn_smarts="[N:1]#[C:2][C:3]([C@@:4]1([H:9])[C:5]([H:10])([H:11])[N:6]1[H:12])([H:7])[H:8]>>[N:1](=[C:2]=[C:3]([H:7])[H:8])[C:5](/[C:4](=[N:6]/[H:12])[H:9])([H:10])[H:11]"
N       -1.32609337      -0.86963785      -1.33953081
C       -1.54931517       0.15421037      -0.79811582
C       -0.96603560       1.08040639       0.09373588
C        0.33641395      -0.07210196       0.53853312
C        0.45801765      -0.98726791      -0.62803864
N        1.62013503       0.32973448       0.56720388
H       -0.54519854       1.95191840      -0.40343897
H       -1.55221453       1.34484599       0.96860075
H       -0.10059120      -0.55439616       1.42088901
H        0.97000594      -0.59404620      -1.49702203
H        0.64712641      -2.03734028      -0.42803815
H        2.00774943       0.25367474       1.50522179
12
Frame=3 idx=003845 GeodesicLength=0.2503668846795297 rxn_smarts="[N:1]#[C:2][C:3]([C@@:4]1([H:9])[C:5]([H:10])([H:11])[N:6]1[H:12])([H:7])[H:8]>>[N:1](=[C:2]=[C:3]([H:7])[H:8])[C:5](/[C:4](=[N:6]/[H:12])[H:9])([H:10])[H:11]"
N       -1.33245755      -0.86730077      -1.33596427
C       -1.55980797       0.15777845      -0.79736955
C       -0.98243505       1.09020664       0.08970922
C        0.33937795      -0.07051366       0.54560732
C        0.47326084      -0.98241070      -0.62161475
N        1.62830788       0.31473704       0.56399673
H       -0.56310064       1.96046426      -0.41070212
H       -1.57391828       1.35624026       0.96047080
H       -0.09920254      -0.55315670       1.42643596
H        0.98190907      -0.59352664      -1.49482257
H        0.66279400      -2.03271846      -0.42189599
H        2.02527230       0.22020028       1.49614922
12
Frame=4 idx=003845 GeodesicLength=0.3337462525921576 rxn_smarts="[N:1]#[C:2][C:3]([C@@:4]1([H:9])[C:5]([H:10])([H:11])[N:6]1[H:12])([H:7])[H:8]>>[N:1](=[C:2]=[C:3]([H:7])[H:8])[C:5](/[C:4](=[N:6]/[H:12])[H:9])([H:10])[H:11]"
N       -1.33917181      -0.86491328      -1.33223503
C       -1.57053334       0.16129987      -0.79629699
C       -0.99890840       1.10009672       0.08561291
C        0.34286247      -0.06898035       0.55253507
C        0.48865934      -0.97755653      -0.61530656
N        1.63673164       0.29963204       0.56119146
H       -0.58118025       1.96896681      -0.41831348
H       -1.59548525       1.36780228       0.95233639
H       -0.09744427      -0.55200679       1.43175850
H        0.99395580      -0.59300200      -1.49268958
H        0.67837545      -2.02816500      -0.41599058
H        2.04213862       0.18682622       1.48739789
12
Frame=5 idx=003845 GeodesicLength=0.4171141976855318 rxn_smarts="[N:1]#[C:2][C:3]([C@@:4]1([H:9])[C:5]([H:10])([H:11])[N:6]1[H:12])([H:7])[H:8]>>[N:1](=[C:2]=[C:3]([H:7])[H:8])[C:5](/[C:4](=[N:6]/[H:12])[H:9])([H:10])[H:11]"
N       -1.34625580      -0.86247491      -1.32834836
C       -1.58150231       0.16478402      -0.79489625
C       -1.01546212       1.11008952       0.08145332
C        0.34686891      -0.06753416       0.55931779
C        0.50421743      -0.97272971      -0.60913388
N        1.64542541       0.28438212       0.55877561
H       -0.59943197       1.97743319      -0.42626608
H       -1.61692002       1.37955442       0.94420817
H       -0.09532271      -0.55097285       1.43685450
H        1.00615789      -0.59247649      -1.49063066
H        0.69386846      -2.02371304      -0.41035774
H        2.05835683       0.15365790       1.47902357
12
Frame=6 idx=003845 GeodesicLength=0.500462416777826 rxn_smarts="[N:1]#[C:2][C:3]([C@@:4]1([H:9])[C:5]([H:10])([H:11])[N:6]1[H:12])([H:7])[H:8]>>[N:1](=[C:2]=[C:3]([H:7])[H:8])[C:5](/[C:4](=[N:6]/[H:12])[H:9])([H:10])[H:11]"
N       -1.35371453      -0.85998878      -1.32428898
C       -1.59272016       0.16823067      -0.79315736
C       -1.03211005       1.12019124       0.07722707
C        0.35139196      -0.06618560       0.56596028
C        0.51994427      -0.96793072      -0.60310127
N        1.65439062       0.26898288       0.55673754
H       -0.61786035       1.98585485      -0.43456985
H       -1.63824002       1.39151419       0.93607972
H       -0.09285385      -0.55005798       1.44172362
H        1.01853317      -0.59193137      -1.48863804
H        0.70927995      -2.01936264      -0.40501232
H        2.07395899       0.12068327       1.47103960
12
Frame=7 idx=003845 GeodesicLength=0.5838004096675933 rxn_smarts="[N:1]#[C:2][C:3]([C@@:4]1([H:9])[C:5]([H:10])([H:11])[N:6]1[H:12])([H:7])[H:8]>>[N:1](=[C:2]=[C:3]([H:7])[H:8])[C:5](/[C:4](=[N:6]/[H:12])[H:9])([H:10])[H:11]"
N       -1.36155713      -0.85746213      -1.32004411
C       -1.60419699       0.17164011      -0.79107356
C       -1.04887056       1.13041297       0.07292924
C        0.35642808      -0.06494409       0.57247003
C        0.53585115      -0.96316176      -0.59721325
N        1.66363113       0.25343307       0.55507137
H       -0.63647598       1.99423021      -0.44323644
H       -1.65946745       1.40370561       0.92794336
H       -0.09005021      -0.54926659       1.44636839
H        1.03109985      -0.59134787      -1.48670550
H        0.72462211      -2.01511890      -0.39996975
H        2.08898599       0.08787935       1.46346021
12
Frame=8 idx=003845 GeodesicLength=0.6671043155991161 rxn_smarts="[N:1]#[C:2][C:3]([C@@:4]1([H:9])[C:5]([H:10])([H:11])[N:6]1[H:12])([H:7])[H:8]>>[N:1](=[C:2]=[C:3]([H:7])[H:8])[C:5](/[C:4](=[N:6]/[H:12])[H:9])([H:10])[H:11]"
N       -1.36978946      -0.85489233      -1.31559193
C       -1.61593131       0.17501724      -0.78863107
C       -1.06574914       1.14075924       0.06856062
C        0.36197147      -0.06383047       0.57884709
C        0.55194538      -0.95842803      -0.59147830
N        1.67314804       0.23770995       0.55375964
H       -0.65527045       2.00254698      -0.45226885
H       -1.68061021       1.41614103       0.91979661
H       -0.08693055      -0.54861212       1.45078149
H        1.04387548      -0.59071278      -1.48482954
H        0.73989560      -2.01098378      -0.39525151
H        2.10344513       0.05528506       1.45630576
12
Frame=9 idx=003845 GeodesicLength=0.7504120376377534 rxn_smarts="[N:1]#[C:2][C:3]([C@@:4]1([H:9])[C:5]([H:10])([H:11])[N:6]1[H:12])([H:7])[H:8]>>[N:1](=[C:2]=[C:3]([H:7])[H:8])[C:5](/[C:4](=[N:6]/[H:12])[H:9])([H:10])[H:11]"
N       -1.37841612      -0.85229779      -1.31091494
C       -1.62794576       0.17835064      -0.78581703
C       -1.08278339       1.15124920       0.06410673
C        0.36801961      -0.06283096       0.58510952
C        0.56824718      -0.95371502      -0.58588787
N        1.68294332       0.22184229       0.55281663
H       -0.67429181       2.01081125      -0.46170329
H       -1.70172161       1.42886584       0.91160999
H       -0.08350271      -0.54807669       1.45497770
H        1.05689017      -0.58998675      -1.48298961
H        0.75513762      -2.00694651      -0.39085787
H        2.11742351       0.02273450       1.44955005
12
Frame=10 idx=003845 GeodesicLength=0.8337305678789182 rxn_smarts="[N:1]#[C:2][C:3]([C@@:4]1([H:9])[C:5]([H:10])([H:11])[N:6]1[H:12])([H:7])[H:8]>>[N:1](=[C:2]=[C:3]([H:7])[H:8])[C:5](/[C:4](=[N:6]/[H:12])[H:9])([H:10])[H:11]"
N       -1.38744702      -0.84969378      -1.30598001
C       -1.64025206       0.18163441      -0.78261230
C       -1.09999348       1.16189623       0.05956059
C        0.37457069      -0.06194766       0.59126828
C        0.58477208      -0.94901219      -0.58044355
N        1.69302293       0.20582435       0.55224919
H       -0.69356279       2.01901848      -0.47156902
H       -1.72283607       1.44191849       0.90336000
H       -0.07978022      -0.54765974       1.45896031
H        1.07016870      -0.58913418      -1.48117548
H        0.77037453      -2.00299536      -0.38680616
H        2.13096271      -0.00984904       1.44318813
12
Frame=11 idx=003845 GeodesicLength=0.9170418511964887 rxn_smarts="[N:1]#[C:2][C:3]([C@@:4]1([H:9])[C:5]([H:10])([H:11])[N:6]1[H:12])([H:7])[H:8]>>[N:1](=[C:2]=[C:3]([H:7])[H:8])[C:5](/[C:4](=[N:6]/[H:12])[H:9])([H:10])[H:11]"
N       -1.39689121      -0.84707945      -1.30074692
C       -1.65284666       0.18488049      -0.77900500
C       -1.11739018       1.17270661       0.05491652
C        0.38162024      -0.06120164       0.59732347
C        0.60153363      -0.94432191      -0.57515010
N        1.70338705       0.18963650       0.55204430
H       -0.71307152       2.02715051      -0.48186619
H       -1.74395963       1.45531065       0.89504072
H       -0.07578348      -0.54737803       1.46271374
H        1.08373191      -0.58813886      -1.47938037
H        0.78561075      -1.99912894      -0.38311760
H        2.14405910      -0.04243593       1.43722743
12
Frame=12 idx=003845 GeodesicLength=1.0003565293021566 rxn_smarts="[N:1]#[C:2][C:3]([C@@:4]1([H:9])[C:5]([H:10])([H:11])[N:6]1[H:12])([H:7])[H:8]>>[N:1](=[C:2]=[C:3]([H:7])[H:8])[C:5](/[C:4](=[N:6]/[H:12])[H:9])([H:10])[H:11]"
N       -1.40676545      -0.84446778      -1.29519938
C       -1.66573926       0.18809198      -0.77498632
C       -1.13498971       1.18369800       0.05016949
C        0.38916965      -0.06061073       0.60328591
C        0.61854415      -0.93965015      -0.57001641
N        1.71404245       0.17326572       0.55220181
H       -0.73282539       2.03521353      -0.49260981
H       -1.76510948       1.46907369       0.88664589
H       -0.07151906      -0.54725397       1.46624291
H        1.09759824      -0.58697993      -1.47760809
H        0.80085701      -1.99536113      -0.37981694
H        2.15673686      -0.07501924       1.43169094
12
Frame=13 idx=003845 GeodesicLength=1.0836729950097395 rxn_smarts="[N:1]#[C:2][C:3]([C@@:4]1([H:9])[C:5]([H:10])([H:11])[N:6]1[H:12])([H:7])[H:8]>>[N:1](=[C:2]=[C:3]([H:7])[H:8])[C:5](/[C:4](=[N:6]/[H:12])[H:9])([H:10])[H:11]"
N       -1.41707902      -0.84186590      -1.28929826
C       -1.67893547       0.19127240      -0.77053785
C       -1.15281156       1.19488298       0.04531033
C        0.39721723      -0.06018615       0.60916373
C        0.63582073      -0.93499074      -0.56504311
N        1.72499128       0.15670191       0.55272168
H       -0.75283479       2.04319673      -0.50381849
H       -1.78630983       1.48323620       0.87815655
H       -0.06700116      -0.54729773       1.46954253
H        1.11179472      -0.58562868      -1.47584763
H        0.81612930      -1.99168423      -0.37692294
H        2.16901856      -0.10763679       1.42657349
12
Frame=14 idx=003845 GeodesicLength=1.1669920291716347 rxn_smarts="[N:1]#[C:2][C:3]([C@@:4]1([H:9])[C:5]([H:10])([H:11])[N:6]1[H:12])([H:7])[H:8]>>[N:1](=[C:2]=[C:3]([H:7])[H:8])[C:5](/[C:4](=[N:6]/[H:12])[H:9])([H:10])[H:11]"
N       -1.42784338      -0.83928266      -1.28300515
C       -1.69244116       0.19442658      -0.76564247
C       -1.17087549       1.20627633       0.04032947
C        0.40576250      -0.05994118       0.61496651
C        0.65338055      -0.93033935      -0.56023187
N        1.73623655       0.13993427       0.55360485
H       -0.77311038       2.05109295      -0.51551112
H       -1.80758457       1.49782821       0.86955451
H       -0.06224203      -0.54752414       1.47260907
H        1.12634871      -0.58405688      -1.47409055
H        0.83144306      -1.98809425      -0.37445608
H        2.18092563      -0.14031988       1.42187284
12
Frame=15 idx=003845 GeodesicLength=1.2503145750850129 rxn_smarts="[N:1]#[C:2][C:3]([C@@:4]1([H:9])[C:5]([H:10])([H:11])[N:6]1[H:12])([H:7])[H:8]>>[N:1](=[C:2]=[C:3]([H:7])[H:8])[C:5](/[C:4](=[N:6]/[H:12])[H:9])([H:10])[H:11]"
N       -1.43907093      -0.83672807      -1.27627657
C       -1.70626243       0.19755978      -0.76028077
C       -1.18920214       1.21789386       0.03521589
C        0.41480556      -0.05988965       0.62070476
C        0.67124204      -0.92569011      -0.55558406
N        1.74778143       0.12295101       0.55485407
H       -0.79366394       2.05889401      -0.52770948
H       -1.82895804       1.51288216       0.86081918
H       -0.05725377      -0.54795015       1.47543827
H        1.14128913      -0.58223343      -1.47232784
H        0.84681519      -1.98458557      -0.37243870
H        2.19247788      -0.17310384       1.41758524
12
Frame=16 idx=003845 GeodesicLength=1.3336414607407912 rxn_smarts="[N:1]#[C:2][C:3]([C@@:4]1([H:9])[C:5]([H:10])([H:11])[N:6]1[H:12])([H:7])[H:8]>>[N:1](=[C:2]=[C:3]([H:7])[H:8])[C:5](/[C:4](=[N:6]/[H:12])[H:9])([H:10])[H:11]"
N       -1.45077513      -0.83421269      -1.26906397
C       -1.72040523       0.20067851      -0.75443154
C       -1.20781265       1.22975234       0.02995730
C        0.42434712      -0.06004676       0.62638958
C        0.68942463      -0.92103635      -0.55110103
N        1.75962930       0.10573845       0.55647299
H       -0.81450769       2.06659071      -0.54043712
H       -1.85045473       1.52843219       0.85192793
H       -0.05204832      -0.54859558       1.47802458
H        1.15664654      -0.58012531      -1.47054998
H        0.86226344      -1.98115150      -0.37089517
H        2.20369273      -0.20602404       1.41370643
