13
Frame=0 idx=010423 GeodesicLength=0.0 rxn_smarts="[O:1]([C:2]([C@@:3]([C:4](=[O:5])[H:12])([C:6]#[C:7][H:13])[H:11])([H:9])[H:10])[H:8]>>[C:3]([C:4](=[O:5])[H:12])(=[C:6]=[C:7]([H:8])[H:13])[H:11].[O:1]=[C:2]([H:9])[H:10]"
O       -0.62172307      -1.38965574       1.24245944
C       -1.17445836      -0.81095715       0.25410718
C        0.18400429       0.33277576      -0.86531352
C       -0.35958685       1.69919627      -0.68052264
O       -1.09972158       2.22972641      -1.46436108
C        1.25047460      -0.06604162      -0.11537691
C        1.78299855      -0.67192686       0.83198907
H        0.61487704      -1.18625588       1.21431784
H       -1.43383912      -1.40504890      -0.62755189
H       -1.83046876       0.04182225       0.45537499
H        0.04982899      -0.08697919      -1.85689391
H       -0.06251604       2.19408861       0.26580581
H        2.70013033      -0.88074399       1.34596568
13
Frame=1 idx=010423 GeodesicLength=0.10952191512371565 rxn_smarts="[O:1]([C:2]([C@@:3]([C:4](=[O:5])[H:12])([C:6]#[C:7][H:13])[H:11])([H:9])[H:10])[H:8]>>[C:3]([C:4](=[O:5])[H:12])(=[C:6]=[C:7]([H:8])[H:13])[H:11].[O:1]=[C:2]([H:9])[H:10]"
O       -0.65513382      -1.34786736       1.27890252
C       -1.18282156      -0.82699864       0.24365656
C        0.17386638       0.32973186      -0.86743945
C       -0.34141275       1.70545872      -0.66503128
O       -1.09169950       2.26018250      -1.42165024
C        1.25390249      -0.07871964      -0.13887648
C        1.78709926      -0.66981678       0.81842949
H        0.58837712      -1.13017598       1.27399424
H       -1.38643322      -1.47671112      -0.61387882
H       -1.89186103      -0.00483453       0.38287382
H        0.03784150      -0.06753607      -1.86828817
H       -0.01069990       2.19252989       0.27440249
H        2.71897503      -0.88524285       1.30290533
13
Frame=2 idx=010423 GeodesicLength=0.21772640315060043 rxn_smarts="[O:1]([C:2]([C@@:3]([C:4](=[O:5])[H:12])([C:6]#[C:7][H:13])[H:11])([H:9])[H:10])[H:8]>>[C:3]([C:4](=[O:5])[H:12])(=[C:6]=[C:7]([H:8])[H:13])[H:11].[O:1]=[C:2]([H:9])[H:10]"
O       -0.68904551      -1.30676980       1.31028633
C       -1.19038290      -0.84245198       0.23374826
C        0.16497908       0.32773444      -0.86907699
C       -0.32414375       1.71139113      -0.65047408
O       -1.09063187       2.28506729      -1.37572327
C        1.25753151      -0.08909608      -0.16032603
C        1.78920844      -0.66659996       0.80723066
H        0.56145320      -1.07559734       1.32662498
H       -1.33852137      -1.54197048      -0.59634954
H       -1.94566026      -0.05415537       0.31234735
H        0.02741838      -0.04844899      -1.87812733
H        0.04462414       2.19444531       0.27701940
H        2.73317091      -0.89354816       1.26282025
13
Frame=3 idx=010423 GeodesicLength=0.32509631087453716 rxn_smarts="[O:1]([C:2]([C@@:3]([C:4](=[O:5])[H:12])([C:6]#[C:7][H:13])[H:11])([H:9])[H:10])[H:8]>>[C:3]([C:4](=[O:5])[H:12])(=[C:6]=[C:7]([H:8])[H:13])[H:11].[O:1]=[C:2]([H:9])[H:10]"
O       -0.72400875      -1.26635302       1.33728172
C       -1.19753769      -0.85722571       0.22430236
C        0.15695951       0.32649096      -0.87027422
C       -0.30718685       1.71721564      -0.63681275
O       -1.09523062       2.30542157      -1.32608563
C        1.26121660      -0.09791950      -0.18026608
C        1.79012438      -0.66254541       0.79760396
H        0.53423880      -1.02600882       1.37222431
H       -1.29114846      -1.60131205      -0.57525397
H       -1.99298117      -0.10565360       0.24386908
H        0.01795805      -0.02963477      -1.88668636
H        0.10392786       2.19954374       0.27332869
H        2.74366835      -0.90201903       1.22676889
13
Frame=4 idx=010423 GeodesicLength=0.43193972531237984 rxn_smarts="[O:1]([C:2]([C@@:3]([C:4](=[O:5])[H:12])([C:6]#[C:7][H:13])[H:11])([H:9])[H:10])[H:8]>>[C:3]([C:4](=[O:5])[H:12])(=[C:6]=[C:7]([H:8])[H:13])[H:11].[O:1]=[C:2]([H:9])[H:10]"
O       -0.76038033      -1.22627865       1.36045586
C       -1.20430780      -0.87155698       0.21503259
C        0.14964816       0.32599675      -0.87099703
C       -0.29052093       1.72309100      -0.62390375
O       -1.10445340       2.32200049      -1.27232278
C        1.26495104      -0.10522441      -0.19881244
C        1.79032958      -0.65744532       0.78929888
H        0.50622438      -0.98001949       1.41320802
H       -1.24395145      -1.65571345      -0.55088632
H       -2.03472465      -0.15963440       0.17661325
H        0.00941847      -0.01080235      -1.89412429
H        0.16638663       2.20744363       0.26327834
H        2.75138030      -0.91185683       1.19315966
13
Frame=5 idx=010423 GeodesicLength=0.5385375830524428 rxn_smarts="[O:1]([C:2]([C@@:3]([C:4](=[O:5])[H:12])([C:6]#[C:7][H:13])[H:11])([H:9])[H:10])[H:8]>>[C:3]([C:4](=[O:5])[H:12])(=[C:6]=[C:7]([H:8])[H:13])[H:11].[O:1]=[C:2]([H:9])[H:10]"
O       -0.79847946      -1.18636142       1.37997175
C       -1.21073153      -0.88560254       0.20562031
C        0.14297625       0.32623081      -0.87122623
C       -0.27400264       1.72912015      -0.61153155
O       -1.11814976       2.33489099      -1.21288506
C        1.26877000      -0.11117018      -0.21612569
C        1.79003826      -0.65181094       0.78185899
H        0.47690877      -0.93672886       1.45100900
H       -1.19670139      -1.70576956      -0.52351148
H       -2.07155658      -0.21653582       0.11001593
H        0.00173697       0.00836720      -1.90058092
H        0.23256811       2.21841340       0.24570444
H        2.75662301      -0.92304325       1.16168053
13
Frame=6 idx=010423 GeodesicLength=0.6448101068337837 rxn_smarts="[O:1]([C:2]([C@@:3]([C:4](=[O:5])[H:12])([C:6]#[C:7][H:13])[H:11])([H:9])[H:10])[H:8]>>[C:3]([C:4](=[O:5])[H:12])(=[C:6]=[C:7]([H:8])[H:13])[H:11].[O:1]=[C:2]([H:9])[H:10]"
O       -0.83817543      -1.14720387       1.39585380
C       -1.21690189      -0.89935476       0.19613703
C        0.13679814       0.32686796      -0.87125828
C       -0.25720116       1.73521820      -0.59993937
O       -1.13384964       2.34497642      -1.14803009
C        1.27267190      -0.11630247      -0.23281542
C        1.78954703      -0.64580945       0.77474822
H        0.44616089      -0.89568371       1.48635030
H       -1.15034638      -1.75141387      -0.49341594
H       -2.10332184      -0.27563474       0.04465512
H       -0.00556264       0.02763790      -1.90636551
H        0.30012758       2.23069829       0.22174655
H        2.76005344      -0.93399589       1.13233360
13
Frame=7 idx=010423 GeodesicLength=0.75096206775877 rxn_smarts="[O:1]([C:2]([C@@:3]([C:4](=[O:5])[H:12])([C:6]#[C:7][H:13])[H:11])([H:9])[H:10])[H:8]>>[C:3]([C:4](=[O:5])[H:12])(=[C:6]=[C:7]([H:8])[H:13])[H:11].[O:1]=[C:2]([H:9])[H:10]"
O       -0.87964387      -1.10871652       1.40816458
C       -1.22288839      -0.91284889       0.18638737
C        0.13110756       0.32783193      -0.87116516
C       -0.23994556       1.74139049      -0.58913957
O       -1.15088459       2.35217056      -1.07640965
C        1.27669666      -0.12080111      -0.24905547
C        1.78890592      -0.63991423       0.76765172
H        0.41359670      -0.85624516       1.51987735
H       -1.10496244      -1.79294840      -0.46081568
H       -2.13037952      -0.33699137      -0.01968819
H       -0.01255086       0.04711279      -1.91161295
H        0.36889051       2.24418746       0.19072092
H        2.76205788      -0.94422756       1.10508474
13
Frame=8 idx=010423 GeodesicLength=0.8570851904545613 rxn_smarts="[O:1]([C:2]([C@@:3]([C:4](=[O:5])[H:12])([C:6]#[C:7][H:13])[H:11])([H:9])[H:10])[H:8]>>[C:3]([C:4](=[O:5])[H:12])(=[C:6]=[C:7]([H:8])[H:13])[H:11].[O:1]=[C:2]([H:9])[H:10]"
O       -0.92296700      -1.07072302       1.41701233
C       -1.22874385      -0.92611864       0.17632425
C        0.12583669       0.32898942      -0.87110249
C       -0.22220203       1.74754505      -0.57919124
O       -1.16756226       2.35674532      -0.99757633
C        1.28084025      -0.12486250      -0.26513271
C        1.78819519      -0.63423236       0.76030885
H        0.37896338      -0.81790581       1.55197577
H       -1.06074784      -1.83064024      -0.42569760
H       -2.15277635      -0.40039788      -0.08312430
H       -0.01944118       0.06672519      -1.91648510
H        0.43749419       2.25808926       0.15304494
H        2.76311080      -0.95321377       1.07964362
13
Frame=9 idx=010423 GeodesicLength=0.9633333564030623 rxn_smarts="[O:1]([C:2]([C@@:3]([C:4](=[O:5])[H:12])([C:6]#[C:7][H:13])[H:11])([H:9])[H:10])[H:8]>>[C:3]([C:4](=[O:5])[H:12])(=[C:6]=[C:7]([H:8])[H:13])[H:11].[O:1]=[C:2]([H:9])[H:10]"
O       -0.96797934      -1.03296544       1.42249883
C       -1.23416566      -0.93895823       0.16596296
C        0.12122987       0.33045916      -0.87120231
C       -0.20410482       1.75388741      -0.57087446
O       -1.18317699       2.35811301      -0.91124876
C        1.28539650      -0.12786796      -0.28084609
C        1.78765951      -0.62802793       0.75303250
H        0.34202066      -0.77911601       1.58327540
H       -1.01724440      -1.86432185      -0.38807130
H       -2.17042323      -0.46584007      -0.14557513
H       -0.02577393       0.08626097      -1.92107550
H        0.50365878       2.27220823       0.10940061
H        2.76290305      -0.96383130       1.05472324
13
Frame=10 idx=010423 GeodesicLength=1.069356310093891 rxn_smarts="[O:1]([C:2]([C@@:3]([C:4](=[O:5])[H:12])([C:6]#[C:7][H:13])[H:11])([H:9])[H:10])[H:8]>>[C:3]([C:4](=[O:5])[H:12])(=[C:6]=[C:7]([H:8])[H:13])[H:11].[O:1]=[C:2]([H:9])[H:10]"
O       -1.01467114      -0.99638571       1.42456121
C       -1.24014845      -0.95142147       0.15546665
C        0.11661250       0.33117139      -0.87216133
C       -0.18489093       1.75948900      -0.56391562
O       -1.19249310       2.35819002      -0.81982380
C        1.28972198      -0.13232793      -0.29809520
C        1.78716024      -0.62359257       0.74377170
H        0.30283068      -0.74136535       1.61291210
H       -0.97734118      -1.89416244      -0.34850047
H       -2.18375060      -0.53125517      -0.20579112
H       -0.03327042       0.10502819      -1.92603806
H        0.56584170       2.28248743       0.06502230
H        2.76439873      -0.96585539       1.03259165
13
Frame=11 idx=010423 GeodesicLength=1.176276709646087 rxn_smarts="[O:1]([C:2]([C@@:3]([C:4](=[O:5])[H:12])([C:6]#[C:7][H:13])[H:11])([H:9])[H:10])[H:8]>>[C:3]([C:4](=[O:5])[H:12])(=[C:6]=[C:7]([H:8])[H:13])[H:11].[O:1]=[C:2]([H:9])[H:10]"
O       -1.06352393      -0.95947049       1.42315875
C       -1.24564148      -0.96381853       0.14440511
C        0.11256711       0.33231214      -0.87324431
C       -0.16628100       1.76518867      -0.55810902
O       -1.19875320       2.35431595      -0.71903929
C        1.29446712      -0.13540700      -0.31494300
C        1.78680946      -0.61834770       0.73463829
H        0.26042023      -0.70200222       1.64214320
H       -0.93751414      -1.92057065      -0.30619807
H       -2.19245094      -0.59937243      -0.26565326
H       -0.04024319       0.12396921      -1.93073638
H        0.62552134       2.29386096       0.01332351
H        2.76462261      -0.97065792       1.01025446
13
Frame=12 idx=010423 GeodesicLength=1.2843589031665608 rxn_smarts="[O:1]([C:2]([C@@:3]([C:4](=[O:5])[H:12])([C:6]#[C:7][H:13])[H:11])([H:9])[H:10])[H:8]>>[C:3]([C:4](=[O:5])[H:12])(=[C:6]=[C:7]([H:8])[H:13])[H:11].[O:1]=[C:2]([H:9])[H:10]"
O       -1.11427230      -0.92236619       1.41823420
C       -1.25029633      -0.97607912       0.13293103
C        0.10916450       0.33395571      -0.87461488
C       -0.14881833       1.77106516      -0.55383065
O       -1.20012376       2.34596666      -0.60944152
C        1.29981579      -0.13658142      -0.33141190
C        1.78682339      -0.61167716       0.72565223
H        0.21447682      -0.65958451       1.67108592
H       -0.89736630      -1.94308345      -0.26109599
H       -2.19602957      -0.67017406      -0.32468767
H       -0.04658937       0.14286601      -1.93530587
H        0.68033527       2.30605597      -0.04440678
H        2.76288021      -0.98036360       0.98689189
13
Frame=13 idx=010423 GeodesicLength=1.3928285068629862 rxn_smarts="[O:1]([C:2]([C@@:3]([C:4](=[O:5])[H:12])([C:6]#[C:7][H:13])[H:11])([H:9])[H:10])[H:8]>>[C:3]([C:4](=[O:5])[H:12])(=[C:6]=[C:7]([H:8])[H:13])[H:11].[O:1]=[C:2]([H:9])[H:10]"
O       -1.16690700      -0.88679292       1.40994760
C       -1.25560840      -0.98851407       0.12146061
C        0.10528117       0.33475157      -0.87684376
C       -0.13147789       1.77591313      -0.55012525
O       -1.19056784       2.33671809      -0.49791623
C        1.30466701      -0.13940502      -0.34992306
C        1.78708036      -0.60665744       0.71414890
H        0.16528349      -0.61700541       1.69858469
H       -0.86107468      -1.96228816      -0.21411538
H       -2.19561999      -0.74075255      -0.38094583
H       -0.05463766       0.16100851      -1.94027969
H        0.72933461       2.31351649      -0.09895056
H        2.76424681      -0.98049222       0.96495797
13
Frame=14 idx=010423 GeodesicLength=1.5029638367992946 rxn_smarts="[O:1]([C:2]([C@@:3]([C:4](=[O:5])[H:12])([C:6]#[C:7][H:13])[H:11])([H:9])[H:10])[H:8]>>[C:3]([C:4](=[O:5])[H:12])(=[C:6]=[C:7]([H:8])[H:13])[H:11].[O:1]=[C:2]([H:9])[H:10]"
O       -1.22093408      -0.85185327       1.39840836
C       -1.25907859      -1.00121825       0.11010845
C        0.10210127       0.33670210      -0.87896693
C       -0.11706747       1.78151407      -0.54741088
O       -1.17481005       2.32304072      -0.38181231
C        1.31063212      -0.13850532      -0.36747973
C        1.78851796      -0.59826367       0.70331259
H        0.11192570      -0.56888614       1.72618466
H       -0.82270821      -1.97723251      -0.16415814
H       -2.18926029      -0.81476422      -0.43537192
H       -0.06158785       0.17926832      -1.94476014
H        0.77088201       2.32329783      -0.15749930
H        2.76138748      -0.99309965       0.93944532
13
Frame=15 idx=010423 GeodesicLength=1.61200177308433 rxn_smarts="[O:1]([C:2]([C@@:3]([C:4](=[O:5])[H:12])([C:6]#[C:7][H:13])[H:11])([H:9])[H:10])[H:8]>>[C:3]([C:4](=[O:5])[H:12])(=[C:6]=[C:7]([H:8])[H:13])[H:11].[O:1]=[C:2]([H:9])[H:10]"
O       -1.27649155      -0.81980808       1.38385850
C       -1.26260280      -1.01504025       0.09924714
C        0.09771431       0.33834887      -0.88055784
C       -0.10371811       1.78595650      -0.54227350
O       -1.14778796       2.31163398      -0.27209532
C        1.31556944      -0.13859398      -0.38641770
C        1.79063013      -0.59138205       0.69001170
H        0.05494496      -0.52218605       1.75285809
H       -0.78769216      -1.98934776      -0.11227062
H       -2.17852053      -0.88878204      -0.48618574
H       -0.07082848       0.19798998      -1.94838181
H        0.80694223       2.32948306      -0.21126024
H        2.76184054      -0.99827219       0.91346734
13
Frame=16 idx=010423 GeodesicLength=1.7208226251358354 rxn_smarts="[O:1]([C:2]([C@@:3]([C:4](=[O:5])[H:12])([C:6]#[C:7][H:13])[H:11])([H:9])[H:10])[H:8]>>[C:3]([C:4](=[O:5])[H:12])(=[C:6]=[C:7]([H:8])[H:13])[H:11].[O:1]=[C:2]([H:9])[H:10]"
O       -1.33330272      -0.79035267       1.36678164
C       -1.26503755      -1.02961915       0.08941972
C        0.09302935       0.34046881      -0.88168089
C       -0.09169714       1.79057132      -0.53622394
O       -1.11383281       2.30092442      -0.16940024
C        1.32067687      -0.13768174      -0.40617571
C        1.79438327      -0.58396144       0.67495104
H       -0.00632625      -0.47261797       1.77911287
H       -0.75337515      -1.99788038      -0.05797727
H       -2.16262290      -0.96437280      -0.53327542
H       -0.08097889       0.21685339      -1.95111540
H        0.83675782       2.33422252      -0.25862515
H        2.76232610      -1.00655432       0.88420874
