13
Frame=0 idx=005009 GeodesicLength=0.0 rxn_smarts="[O:1]([C@@:2]1([H:8])[C:3]([H:9])([H:10])[N:4]2[C:5]([H:11])([H:12])[C@@:6]12[H:13])[H:7]>>[O:1]=[C:2]([C:3]([N:4]1[C:5]([H:11])([H:12])[C:6]1([H:7])[H:13])([H:9])[H:10])[H:8]"
O       -1.45800679      -0.70245271       1.23380324
C       -1.21241404       0.08443776       0.20401408
C       -0.22595305       1.24406916       0.29528007
N        0.76165952       0.62889358      -0.61875660
C        1.38667877      -0.51333080      -0.03134215
C        0.09854934      -0.72014299      -0.76133955
H       -0.62621469      -1.17359412       0.29657545
H       -1.98507275       0.21622511      -0.56783890
H        0.15040357       1.39612274       1.30698668
H       -0.59749624       2.18005312      -0.11849771
H        1.39572140      -0.62036725       1.05025557
H        2.27863269      -0.84615166      -0.54743789
H        0.03351222      -1.17376189      -1.74170223
13
Frame=1 idx=005009 GeodesicLength=0.08926880518482622 rxn_smarts="[O:1]([C@@:2]1([H:8])[C:3]([H:9])([H:10])[N:4]2[C:5]([H:11])([H:12])[C@@:6]12[H:13])[H:7]>>[O:1]=[C:2]([C:3]([N:4]1[C:5]([H:11])([H:12])[C:6]1([H:7])[H:13])([H:9])[H:10])[H:8]"
O       -1.48265246      -0.69099487       1.23008725
C       -1.22573148       0.09231128       0.20159648
C       -0.22539287       1.23945547       0.29674104
N        0.75497484       0.62642009      -0.62519420
C        1.39395054      -0.50907220      -0.03683048
C        0.10323354      -0.72711242      -0.75636692
H       -0.62680041      -1.19010875       0.30923872
H       -1.99188104       0.22804049      -0.57551276
H        0.15227669       1.38134706       1.30985766
H       -0.58988649       2.18218146      -0.10790216
H        1.41026062      -0.61265956       1.04499654
H        2.28708959      -0.83400618      -0.55590888
H        0.04055893      -1.18580187      -1.73480229
13
Frame=2 idx=005009 GeodesicLength=0.17849389247161268 rxn_smarts="[O:1]([C@@:2]1([H:8])[C:3]([H:9])([H:10])[N:4]2[C:5]([H:11])([H:12])[C@@:6]12[H:13])[H:7]>>[O:1]=[C:2]([C:3]([N:4]1[C:5]([H:11])([H:12])[C:6]1([H:7])[H:13])([H:9])[H:10])[H:8]"
O       -1.50772006      -0.67963183       1.22553183
C       -1.23934787       0.10061759       0.19890417
C       -0.22487850       1.23470203       0.29828942
N        0.74808162       0.62377843      -0.63160445
C        1.40136738      -0.50467170      -0.04249802
C        0.10795415      -0.73424548      -0.75096471
H       -0.62699001      -1.20684954       0.32288233
H       -1.99866079       0.24032519      -0.58366447
H        0.15384552       1.36606820       1.31285722
H       -0.58188340       2.18425729      -0.09698756
H        1.42534369      -0.60455482       1.03951628
H        2.29543851      -0.82164788      -0.56489882
H        0.04744975      -1.19814751      -1.72736321
13
Frame=3 idx=005009 GeodesicLength=0.26770715280856594 rxn_smarts="[O:1]([C@@:2]1([H:8])[C:3]([H:9])([H:10])[N:4]2[C:5]([H:11])([H:12])[C@@:6]12[H:13])[H:7]>>[O:1]=[C:2]([C:3]([N:4]1[C:5]([H:11])([H:12])[C:6]1([H:7])[H:13])([H:9])[H:10])[H:8]"
O       -1.53319862      -0.66839888       1.22006892
C       -1.25327784       0.10939379       0.19591492
C       -0.22441698       1.22980328       0.29993139
N        0.74097044       0.62095876      -0.63797771
C        1.40892513      -0.50012524      -0.04835551
C        0.11270894      -0.74154190      -0.74510284
H       -0.62674272      -1.22381954       0.33757695
H       -2.00540376       0.25311288      -0.59232400
H        0.15508272       1.35025844       1.31599199
H       -0.57346469       2.18626970      -0.08573195
H        1.44099354      -0.59602030       1.03379557
H        2.30365493      -0.80908617      -0.57443791
H        0.05416890      -1.21080483      -1.71934982
13
Frame=4 idx=005009 GeodesicLength=0.3569247496212643 rxn_smarts="[O:1]([C@@:2]1([H:8])[C:3]([H:9])([H:10])[N:4]2[C:5]([H:11])([H:12])[C@@:6]12[H:13])[H:7]>>[O:1]=[C:2]([C:3]([N:4]1[C:5]([H:11])([H:12])[C:6]1([H:7])[H:13])([H:9])[H:10])[H:8]"
O       -1.55907007      -0.65734052       1.21362014
C       -1.26753444       0.11868153       0.19260481
C       -0.22401568       1.22475200       0.30167447
N        0.73363119       0.61795038      -0.64430147
C        1.41661800      -0.49542967      -0.05441378
C        0.11749580      -0.74899868      -0.73874775
H       -0.62601741      -1.24101632       0.35340076
H       -2.01209784       0.26644037      -0.60152135
H        0.15595561       1.33388703       1.31926698
H       -0.56460719       2.18820480      -0.07411376
H        1.45723509      -0.58701872       1.02781202
H        2.31170688      -0.79633482      -0.58455917
H        0.06070007      -1.22377738      -1.71072189
13
Frame=5 idx=005009 GeodesicLength=0.4461484232308443 rxn_smarts="[O:1]([C@@:2]1([H:8])[C:3]([H:9])([H:10])[N:4]2[C:5]([H:11])([H:12])[C@@:6]12[H:13])[H:7]>>[O:1]=[C:2]([C:3]([N:4]1[C:5]([H:11])([H:12])[C:6]1([H:7])[H:13])([H:9])[H:10])[H:8]"
O       -1.58530593      -0.64650803       1.20611077
C       -1.28212905       0.12852170       0.18895250
C       -0.22368205       1.21954425       0.30352542
N        0.72605649       0.61474364      -0.65056433
C        1.42443770      -0.49058351      -0.06068185
C        0.12231203      -0.75661273      -0.73186962
H       -0.62477744      -1.25843344       0.37042310
H       -2.01873465       0.28034543      -0.61128203
H        0.15643533       1.31692662       1.32268772
H       -0.55529086       2.19004889      -0.06211212
H        1.47408500      -0.57751264       1.02154209
H        2.31956750      -0.78340983      -0.59528832
H        0.06702593      -1.23707033      -1.70144335
13
Frame=6 idx=005009 GeodesicLength=0.5353849793446718 rxn_smarts="[O:1]([C@@:2]1([H:8])[C:3]([H:9])([H:10])[N:4]2[C:5]([H:11])([H:12])[C@@:6]12[H:13])[H:7]>>[O:1]=[C:2]([C:3]([N:4]1[C:5]([H:11])([H:12])[C:6]1([H:7])[H:13])([H:9])[H:10])[H:8]"
O       -1.61186728      -0.63596628       1.19744447
C       -1.29707271       0.13896776       0.18493533
C       -0.22342538       1.21417408       0.30549126
N        0.71823676       0.61132739      -0.65675075
C        1.43237150      -0.48558632      -0.06716997
C        0.12715513      -0.76437629      -0.72443133
H       -0.62297842      -1.27606435       0.38873255
H       -2.02529543       0.29486799      -0.62163473
H        0.15648545       1.29934725       1.32625444
H       -0.54549199       2.19178211      -0.04970321
H        1.49156180      -0.56745817       1.01496042
H        2.32719303      -0.77033426      -0.60665815
H        0.07312753      -1.25068091      -1.69147031
13
Frame=7 idx=005009 GeodesicLength=0.6246476288848064 rxn_smarts="[O:1]([C@@:2]1([H:8])[C:3]([H:9])([H:10])[N:4]2[C:5]([H:11])([H:12])[C@@:6]12[H:13])[H:7]>>[O:1]=[C:2]([C:3]([N:4]1[C:5]([H:11])([H:12])[C:6]1([H:7])[H:13])([H:9])[H:10])[H:8]"
O       -1.63870743      -0.62578378       1.18753307
C       -1.31237360       0.15007250       0.18053610
C       -0.22325502       1.20863890       0.30757935
N        0.71016441       0.60769280      -0.66284722
C        1.44040581      -0.48043812      -0.07388636
C        0.13202074      -0.77228251      -0.71640065
H       -0.62057851      -1.29390928       0.40840063
H       -2.03176597       0.31004741      -0.63260165
H        0.15607718       1.28112837       1.32996688
H       -0.53519029       2.19338742      -0.03686579
H        1.50967143      -0.55681421       1.00804069
H        2.33454643      -0.75713280      -0.61869078
H        0.07898482      -1.26460670      -1.68076427
13
Frame=8 idx=005009 GeodesicLength=0.7138988742744413 rxn_smarts="[O:1]([C@@:2]1([H:8])[C:3]([H:9])([H:10])[N:4]2[C:5]([H:11])([H:12])[C@@:6]12[H:13])[H:7]>>[O:1]=[C:2]([C:3]([N:4]1[C:5]([H:11])([H:12])[C:6]1([H:7])[H:13])([H:9])[H:10])[H:8]"
O       -1.66575865      -0.61605071       1.17626590
C       -1.32803602       0.16189536       0.17574072
C       -0.22318356       1.20293378       0.30979621
N        0.70183068       0.60382913      -0.66883524
C        1.44852086      -0.47514233      -0.08083974
C        0.13690668      -0.78031865      -0.70774242
H       -0.61754190      -1.31194635       0.42951606
H       -2.03812153       0.32592721      -0.64419982
H        0.15517086       1.26224599       1.33382053
H       -0.52436330       2.19483664      -0.02358054
H        1.52841911      -0.54553239       1.00074923
H        2.34157802      -0.74384034      -0.63140935
H        0.08457875      -1.27883735      -1.66928155
13
Frame=9 idx=005009 GeodesicLength=0.8030391859459898 rxn_smarts="[O:1]([C@@:2]1([H:8])[C:3]([H:9])([H:10])[N:4]2[C:5]([H:11])([H:12])[C@@:6]12[H:13])[H:7]>>[O:1]=[C:2]([C:3]([N:4]1[C:5]([H:11])([H:12])[C:6]1([H:7])[H:13])([H:9])[H:10])[H:8]"
O       -1.69292004      -0.60685102       1.16340435
C       -1.34405902       0.17447780       0.17058361
C       -0.22322733       1.19705091       0.31215765
N        0.69321797       0.59972646      -0.67471232
C        1.45668043      -0.46970478      -0.08803731
C        0.14180162      -0.78848935      -0.69843168
H       -0.61379977      -1.33013014       0.45222612
H       -2.04430688       0.34257891      -0.65642046
H        0.15375899       1.24267255       1.33780225
H       -0.51303279       2.19611203      -0.00981229
H        1.54777824      -0.53356557       0.99304388
H        2.34823118      -0.73048936      -0.64481326
H        0.08987738      -1.29338842      -1.65699054
13
Frame=10 idx=005009 GeodesicLength=0.8921194752850611 rxn_smarts="[O:1]([C@@:2]1([H:8])[C:3]([H:9])([H:10])[N:4]2[C:5]([H:11])([H:12])[C@@:6]12[H:13])[H:7]>>[O:1]=[C:2]([C:3]([N:4]1[C:5]([H:11])([H:12])[C:6]1([H:7])[H:13])([H:9])[H:10])[H:8]"
O       -1.72012297      -0.59826749       1.14896766
C       -1.36044484       0.18788569       0.16503567
C       -0.22339363       1.19099367       0.31465799
N        0.68433052       0.59537576      -0.68044967
C        1.46487140      -0.46413190      -0.09547939
C        0.14671342      -0.79676604      -0.68844355
H       -0.60936733      -1.34847250       0.47651805
H       -2.05032784       0.36000589      -0.66926760
H        0.15179552       1.22241084       1.34190303
H       -0.50115357       2.19717827       0.00443289
H        1.56774484      -0.52087999       0.98491129
H        2.35447256      -0.71711586      -0.65892215
H        0.09488191      -1.30821635      -1.64386423
13
Frame=11 idx=005009 GeodesicLength=0.9811756262162956 rxn_smarts="[O:1]([C@@:2]1([H:8])[C:3]([H:9])([H:10])[N:4]2[C:5]([H:11])([H:12])[C@@:6]12[H:13])[H:7]>>[O:1]=[C:2]([C:3]([N:4]1[C:5]([H:11])([H:12])[C:6]1([H:7])[H:13])([H:9])[H:10])[H:8]"
O       -1.74728433      -0.59036483       1.13286808
C       -1.37718769       0.20217144       0.15911180
C       -0.22369382       1.18476056       0.31730184
N        0.67516448       0.59077039      -0.68603046
C        1.47306734      -0.45843235      -0.10316247
C        0.15164234      -0.80513442      -0.67776475
H       -0.60421466      -1.36698877       0.50243068
H       -2.05616393       0.37824209      -0.68272587
H        0.14926212       1.20145945       1.34610896
H       -0.48872241       2.19801434       0.01915920
H        1.58828883      -0.50744040       0.97632078
H        2.36026175      -0.70375357      -0.67373045
H        0.09958000      -1.32330394      -1.62988733
13
Frame=12 idx=005009 GeodesicLength=1.0701806046978604 rxn_smarts="[O:1]([C@@:2]1([H:8])[C:3]([H:9])([H:10])[N:4]2[C:5]([H:11])([H:12])[C@@:6]12[H:13])[H:7]>>[O:1]=[C:2]([C:3]([N:4]1[C:5]([H:11])([H:12])[C:6]1([H:7])[H:13])([H:9])[H:10])[H:8]"
O       -1.77428780      -0.58323454       1.11498734
C       -1.39428251       0.21739228       0.15283263
C       -0.22414292       1.17835231       0.32008949
N        0.66571310       0.58590075      -0.69144154
C        1.48123280      -0.45261450      -0.11108623
C        0.15658790      -0.81358067      -0.66637691
H       -0.59831952      -1.38566831       0.53001587
H       -2.06178180       0.39732834      -0.69676999
H        0.14613287       1.17981406       1.35039715
H       -0.47572811       2.19858666       0.03437799
H        1.60937118      -0.49320222       0.96724646
H        2.36554295      -0.69044302      -0.68923429
H        0.10396186      -1.33863114      -1.61503796
13
Frame=13 idx=005009 GeodesicLength=1.1591469176426237 rxn_smarts="[O:1]([C@@:2]1([H:8])[C:3]([H:9])([H:10])[N:4]2[C:5]([H:11])([H:12])[C@@:6]12[H:13])[H:7]>>[O:1]=[C:2]([C:3]([N:4]1[C:5]([H:11])([H:12])[C:6]1([H:7])[H:13])([H:9])[H:10])[H:8]"
O       -1.80102304      -0.57694726       1.09523939
C       -1.41171876       0.23359714       0.14623548
C       -0.22475506       1.17177121       0.32301885
N        0.65597093       0.58075909      -0.69666949
C        1.48933573      -0.44668774      -0.11924540
C        0.16155177      -0.82208905      -0.65427632
H       -0.59166688      -1.40452507       0.55928649
H       -2.06715924       0.41729583      -0.71135723
H        0.14239780       1.15749219       1.35474526
H       -0.46217132       2.19886790       0.05008132
H        1.63093545      -0.47813904       0.95766425
H        2.37028029      -0.67722165      -0.70540895
H        0.10802233      -1.35417356      -1.59931365
13
Frame=14 idx=005009 GeodesicLength=1.2480695642017545 rxn_smarts="[O:1]([C@@:2]1([H:8])[C:3]([H:9])([H:10])[N:4]2[C:5]([H:11])([H:12])[C@@:6]12[H:13])[H:7]>>[O:1]=[C:2]([C:3]([N:4]1[C:5]([H:11])([H:12])[C:6]1([H:7])[H:13])([H:9])[H:10])[H:8]"
O       -1.82735844      -0.57157102       1.07353107
C       -1.42947930       0.25083546       0.13936623
C       -0.22554537       1.16501784       0.32608712
N        0.64593459       0.57533782      -0.70169928
C        1.49733884      -0.44066692      -0.12762932
C        0.16654093      -0.83064189      -0.64146446
H       -0.58425910      -1.42356854       0.59025609
H       -2.07226324       0.43817242      -0.72643061
H        0.13804725       1.13451614       1.35912313
H       -0.44806459       2.19882159       0.06625625
H        1.65291525      -0.46222513       0.94754829
H        2.37442748      -0.66413065      -0.72222797
H        0.11176571      -1.36989712      -1.58271654
13
Frame=15 idx=005009 GeodesicLength=1.3369607630161748 rxn_smarts="[O:1]([C@@:2]1([H:8])[C:3]([H:9])([H:10])[N:4]2[C:5]([H:11])([H:12])[C@@:6]12[H:13])[H:7]>>[O:1]=[C:2]([C:3]([N:4]1[C:5]([H:11])([H:12])[C:6]1([H:7])[H:13])([H:9])[H:10])[H:8]"
O       -1.85316648      -0.56715675       1.04978120
C       -1.44754719       0.26914702       0.13228769
C       -0.22652944       1.15809551       0.32928666
N        0.63559872       0.56962778      -0.70652321
C        1.50520661      -0.43456397      -0.13622597
C        0.17156332      -0.83922760      -0.62795333
H       -0.57610489      -1.44281946       0.62291286
H       -2.07706950       0.45998592      -0.74191706
H        0.13308234       1.11092018       1.36349886
H       -0.43342324       2.19841413       0.08288414
H        1.67523413      -0.44544447       0.93688126
H        2.37795489      -0.65120170      -0.73965141
H        0.11520072      -1.38577659      -1.56526171
13
Frame=16 idx=005009 GeodesicLength=1.425818251809028 rxn_smarts="[O:1]([C@@:2]1([H:8])[C:3]([H:9])([H:10])[N:4]2[C:5]([H:11])([H:12])[C@@:6]12[H:13])[H:7]>>[O:1]=[C:2]([C:3]([N:4]1[C:5]([H:11])([H:12])[C:6]1([H:7])[H:13])([H:9])[H:10])[H:8]"
O       -1.87830459      -0.56374403       1.02390877
C       -1.46590193       0.28856374       0.12507872
C       -0.22772442       1.15100546       0.33260583
N        0.62495725       0.56361768      -0.71113575
C        1.51290334      -0.42839040      -0.14502022
C        0.17663215      -0.84783776      -0.61376171
H       -0.56723473      -1.46229746       0.65723170
H       -2.08154842       0.48276453      -0.75772217
H        0.12750834       1.08674501       1.36783365
H       -0.41827062       2.19760702       0.09993706
H        1.69780282      -0.42778496       0.92564924
H        2.38083286      -0.63846196      -0.75763306
H        0.11834794      -1.40178688      -1.54697207
