11
Frame=0 idx=001835 GeodesicLength=0.0 rxn_smarts="[N:1]([c:2]1[c:3]([H:9])[o:4][c:5]([H:10])[c:6]1[H:11])([H:7])[H:8]>>[N:1]([C@@:2]1([H:9])[C-:3]=[O+:4][C:5]([H:10])=[C:6]1[H:11])([H:7])[H:8]"
N        1.79031074      -0.00781671      -0.42457897
C        0.46572186       0.14300119       0.02244258
C       -0.13560327       1.44070502       0.28923621
O       -1.46888846       1.17663576       0.27533617
C       -1.73225505      -0.12056161      -0.08127721
C       -0.61273355      -0.81501474      -0.26430246
H        2.31593238       0.84728113      -0.31385176
H        2.27856059      -0.78624085      -0.00988417
H        0.38981678       0.35962535       1.20445384
H       -2.77537697      -0.38871261      -0.14627670
H       -0.51548502      -1.84890191      -0.55129753
11
Frame=1 idx=001835 GeodesicLength=0.05417528077194668 rxn_smarts="[N:1]([c:2]1[c:3]([H:9])[o:4][c:5]([H:10])[c:6]1[H:11])([H:7])[H:8]>>[N:1]([C@@:2]1([H:9])[C-:3]=[O+:4][C:5]([H:10])=[C:6]1[H:11])([H:7])[H:8]"
N        1.78767625      -0.01597391      -0.42626117
C        0.46649934       0.13698330       0.03241667
C       -0.13614882       1.43206972       0.29958038
O       -1.46926949       1.17589394       0.27572042
C       -1.73343219      -0.12016951      -0.08711793
C       -0.61343172      -0.81613784      -0.26294510
H        2.30985772       0.84434004      -0.34390173
H        2.28612014      -0.77795852       0.00657062
H        0.39676706       0.37359527       1.22583664
H       -2.77672487      -0.38704217      -0.15344403
H       -0.51791341      -1.84560032      -0.56645475
11
Frame=2 idx=001835 GeodesicLength=0.1083462081074974 rxn_smarts="[N:1]([c:2]1[c:3]([H:9])[o:4][c:5]([H:10])[c:6]1[H:11])([H:7])[H:8]>>[N:1]([C@@:2]1([H:9])[C-:3]=[O+:4][C:5]([H:10])=[C:6]1[H:11])([H:7])[H:8]"
N        1.78499799      -0.02424911      -0.42765713
C        0.46724776       0.13075086       0.04250987
C       -0.13669455       1.42329607       0.30982927
O       -1.46955214       1.17507060       0.27621477
C       -1.73453630      -0.11974819      -0.09312830
C       -0.61415218      -0.81729707      -0.26186885
H        2.30316672       0.84062801      -0.37357547
H        2.29383195      -0.76914230       0.02259138
H        0.40395362       0.38819416       1.24723363
H       -2.77801371      -0.38536087      -0.16050347
H       -0.52024914      -1.84214214      -0.58164569
11
Frame=3 idx=001835 GeodesicLength=0.16251140661997576 rxn_smarts="[N:1]([c:2]1[c:3]([H:9])[o:4][c:5]([H:10])[c:6]1[H:11])([H:7])[H:8]>>[N:1]([C@@:2]1([H:9])[C-:3]=[O+:4][C:5]([H:10])=[C:6]1[H:11])([H:7])[H:8]"
N        1.78223982      -0.03256789      -0.42889413
C        0.46796103       0.12431093       0.05271515
C       -0.13726025       1.41436027       0.32009371
O       -1.46975680       1.17410254       0.27703487
C       -1.73557146      -0.11934715      -0.09913035
C       -0.61488765      -0.81848446      -0.26106648
H        2.29587552       0.83623077      -0.40280648
H        2.30164427      -0.75984468       0.03789235
H        0.41148428       0.40340951       1.26863647
H       -2.77923977      -0.38351503      -0.16810152
H       -0.52248898      -1.83865482      -0.59637359
11
Frame=4 idx=001835 GeodesicLength=0.21668602512580915 rxn_smarts="[N:1]([c:2]1[c:3]([H:9])[o:4][c:5]([H:10])[c:6]1[H:11])([H:7])[H:8]>>[N:1]([C@@:2]1([H:9])[C-:3]=[O+:4][C:5]([H:10])=[C:6]1[H:11])([H:7])[H:8]"
N        1.77942633      -0.04099186      -0.42986922
C        0.46863720       0.11764266       0.06305584
C       -0.13783631       1.40526627       0.33031459
O       -1.46987966       1.17301113       0.27808113
C       -1.73653984      -0.11894917      -0.10518820
C       -0.61564306      -0.81971638      -0.26050822
H        2.28796487       0.83110491      -0.43166247
H        2.30957071      -0.75005433       0.05270060
H        0.41934673       0.41934506       1.29002484
H       -2.78041049      -0.38158913      -0.17587733
H       -0.52463648      -1.83506916      -0.61107155
11
Frame=5 idx=001835 GeodesicLength=0.2708752798553182 rxn_smarts="[N:1]([c:2]1[c:3]([H:9])[o:4][c:5]([H:10])[c:6]1[H:11])([H:7])[H:8]>>[N:1]([C@@:2]1([H:9])[C-:3]=[O+:4][C:5]([H:10])=[C:6]1[H:11])([H:7])[H:8]"
N        1.77656858      -0.04946743      -0.43062038
C        0.46926898       0.11076236       0.07346922
C       -0.13843103       1.39600803       0.34052515
O       -1.46993431       1.17179825       0.27933172
C       -1.73743953      -0.11851939      -0.11142499
C       -0.61640603      -0.82092515      -0.26039607
H        2.27952701       0.82530477      -0.45992655
H        2.31753120      -0.73986100       0.06689972
H        0.42752111       0.43596427       1.31133766
H       -2.78151724      -0.37963843      -0.18368443
H       -0.52668874      -1.83142629      -0.62551105
11
Frame=6 idx=001835 GeodesicLength=0.3250755112823911 rxn_smarts="[N:1]([c:2]1[c:3]([H:9])[o:4][c:5]([H:10])[c:6]1[H:11])([H:7])[H:8]>>[N:1]([C@@:2]1([H:9])[C-:3]=[O+:4][C:5]([H:10])=[C:6]1[H:11])([H:7])[H:8]"
N        1.77366054      -0.05803562      -0.43110566
C        0.46985067       0.10364216       0.08401159
C       -0.13904572       1.38657760       0.35071688
O       -1.46992399       1.17044599       0.28082869
C       -1.73827759      -0.11809088      -0.11774117
C       -0.61718577      -0.82216134      -0.26058306
H        2.27051804       0.81879846      -0.48771880
H        2.32555253      -0.72923206       0.08059255
H        0.43607292       0.45339268       1.33256742
H       -2.78257806      -0.37762486      -0.19162022
H       -0.52864357      -1.82771211      -0.63994821
11
Frame=7 idx=001835 GeodesicLength=0.3793011108084744 rxn_smarts="[N:1]([c:2]1[c:3]([H:9])[o:4][c:5]([H:10])[c:6]1[H:11])([H:7])[H:8]>>[N:1]([C@@:2]1([H:9])[C-:3]=[O+:4][C:5]([H:10])=[C:6]1[H:11])([H:7])[H:8]"
N        1.77068191      -0.06664778      -0.43140362
C        0.47037658       0.09628611       0.09466305
C       -0.13969385       1.37694976       0.36097515
O       -1.46987043       1.16891333       0.28269996
C       -1.73905704      -0.11767807      -0.12406726
C       -0.61796996      -0.82339843      -0.26111261
H        2.26096550       0.81165831      -0.51497101
H        2.33358392      -0.71821889       0.09361055
H        0.44507052       0.47161973       1.35368878
H       -2.78356969      -0.37548119      -0.20003439
H       -0.53051746      -1.82400287      -0.65404861
11
Frame=8 idx=001835 GeodesicLength=0.4335636221817353 rxn_smarts="[N:1]([c:2]1[c:3]([H:9])[o:4][c:5]([H:10])[c:6]1[H:11])([H:7])[H:8]>>[N:1]([C@@:2]1([H:9])[C-:3]=[O+:4][C:5]([H:10])=[C:6]1[H:11])([H:7])[H:8]"
N        1.76764501      -0.07530478      -0.43148677
C        0.47083867       0.08868713       0.10540648
C       -0.14037847       1.36711620       0.37130826
O       -1.46977922       1.16720067       0.28490234
C       -1.73977751      -0.11725987      -0.13048446
C       -0.61875394      -0.82461361      -0.26206663
H        2.25090308       0.80388636      -0.54162105
H        2.34160308      -0.70684762       0.10599359
H        0.45451189       0.49067662       1.37465718
H       -2.78449929      -0.37325652      -0.20873393
H       -0.53231330      -1.82028458      -0.66787502
11
Frame=9 idx=001835 GeodesicLength=0.4877716233410365 rxn_smarts="[N:1]([c:2]1[c:3]([H:9])[o:4][c:5]([H:10])[c:6]1[H:11])([H:7])[H:8]>>[N:1]([C@@:2]1([H:9])[C-:3]=[O+:4][C:5]([H:10])=[C:6]1[H:11])([H:7])[H:8]"
N        1.76453068      -0.08403760      -0.43133374
C        0.47122503       0.08079996       0.11632969
C       -0.14110519       1.35705128       0.38172892
O       -1.46965466       1.16525725       0.28751446
C       -1.74045212      -0.11684220      -0.13696552
C       -0.61955444      -0.82580583      -0.26339757
H        2.24033265       0.79547679      -0.56768513
H        2.34962582      -0.69510499       0.11777421
H        0.46447097       0.51072400       1.39539110
H       -2.78538109      -0.37092216      -0.21778668
H       -0.53403765      -1.81659649      -0.68156973
11
Frame=10 idx=001835 GeodesicLength=0.5420062189881492 rxn_smarts="[N:1]([c:2]1[c:3]([H:9])[o:4][c:5]([H:10])[c:6]1[H:11])([H:7])[H:8]>>[N:1]([C@@:2]1([H:9])[C-:3]=[O+:4][C:5]([H:10])=[C:6]1[H:11])([H:7])[H:8]"
N        1.76135698      -0.09283266      -0.43093818
C        0.47153268       0.07263955       0.12736739
C       -0.14187867       1.34675313       0.39225574
O       -1.46951318       1.16310783       0.29048976
C       -1.74107194      -0.11641289      -0.14356362
C       -0.62035081      -0.82698574      -0.26512123
H        2.22928116       0.78645968      -0.59310870
H        2.35758986      -0.68305326       0.12897860
H        0.47494390       0.53174697       1.41586478
H       -2.78620086      -0.36852652      -0.22706604
H       -0.53568911      -1.81289610      -0.69515850
11
Frame=11 idx=001835 GeodesicLength=0.5962659073689318 rxn_smarts="[N:1]([c:2]1[c:3]([H:9])[o:4][c:5]([H:10])[c:6]1[H:11])([H:7])[H:8]>>[N:1]([C@@:2]1([H:9])[C-:3]=[O+:4][C:5]([H:10])=[C:6]1[H:11])([H:7])[H:8]"
N        1.75811748      -0.10169186      -0.43030385
C        0.47175523       0.06419338       0.13852841
C       -0.14270512       1.33620627       0.40291139
O       -1.46936604       1.16072327       0.29386973
C       -1.74163960      -0.11597525      -0.15025786
C       -0.62114335      -0.82815873      -0.26720266
H        2.21777205       0.77686732      -0.61787509
H        2.36545996      -0.67072875       0.13960992
H        0.48597758       0.55381337       1.43602623
H       -2.78695681      -0.36606441      -0.23663214
H       -0.53727138      -1.80918461      -0.70867408
11
Frame=12 idx=001835 GeodesicLength=0.6505334135297839 rxn_smarts="[N:1]([c:2]1[c:3]([H:9])[o:4][c:5]([H:10])[c:6]1[H:11])([H:7])[H:8]>>[N:1]([C@@:2]1([H:9])[C-:3]=[O+:4][C:5]([H:10])=[C:6]1[H:11])([H:7])[H:8]"
N        1.75483250      -0.11064313      -0.42935343
C        0.47188012       0.05544333       0.14982901
C       -0.14359206       1.32540663       0.41366724
O       -1.46921323       1.15811658       0.29756919
C       -1.74215081      -0.11549964      -0.15717056
C       -0.62193823      -0.82934042      -0.26962850
H        2.20582555       0.76664365      -0.64193055
H        2.37321404      -0.65815463       0.14979558
H        0.49756306       0.57704151       1.45578272
H       -2.78766508      -0.36362469      -0.24610515
H       -0.53875586      -1.80538918      -0.72245556
11
Frame=13 idx=001835 GeodesicLength=0.704804766456624 rxn_smarts="[N:1]([c:2]1[c:3]([H:9])[o:4][c:5]([H:10])[c:6]1[H:11])([H:7])[H:8]>>[N:1]([C@@:2]1([H:9])[C-:3]=[O+:4][C:5]([H:10])=[C:6]1[H:11])([H:7])[H:8]"
N        1.75149073      -0.11967383      -0.42810440
C        0.47189745       0.04637292       0.16127681
C       -0.14455120       1.31432216       0.42459169
O       -1.46906805       1.15525298       0.30166390
C       -1.74260537      -0.11498801      -0.16428482
C       -0.62273315      -0.83052456      -0.27239893
H        2.19343796       0.75581406      -0.66526484
H        2.38083214      -0.64534870       0.15950157
H        0.50975655       0.60146752       1.47506866
H       -2.78831069      -0.36117081      -0.25563741
H       -0.54014637      -1.80152373      -0.73641223
11
Frame=14 idx=001835 GeodesicLength=0.7590773854280509 rxn_smarts="[N:1]([c:2]1[c:3]([H:9])[o:4][c:5]([H:10])[c:6]1[H:11])([H:7])[H:8]>>[N:1]([C@@:2]1([H:9])[C-:3]=[O+:4][C:5]([H:10])=[C:6]1[H:11])([H:7])[H:8]"
N        1.74807888      -0.12876810      -0.42659177
C        0.47180118       0.03697096       0.17286608
C       -0.14559066       1.30292482       0.43575321
O       -1.46894955       1.15209522       0.30622790
C       -1.74299997      -0.11443410      -0.17159318
C       -0.62352374      -0.83170494      -0.27550962
H        2.18065007       0.74446209      -0.68783970
H        2.38826932      -0.63236736       0.16867576
H        0.52260872       0.62712199       1.49381270
H       -2.78889111      -0.35867289      -0.26537826
H       -0.54145313      -1.79762768      -0.75042312
11
Frame=15 idx=001835 GeodesicLength=0.8133543447691419 rxn_smarts="[N:1]([c:2]1[c:3]([H:9])[o:4][c:5]([H:10])[c:6]1[H:11])([H:7])[H:8]>>[N:1]([C@@:2]1([H:9])[C-:3]=[O+:4][C:5]([H:10])=[C:6]1[H:11])([H:7])[H:8]"
N        1.74458044      -0.13793265      -0.42481718
C        0.47158284       0.02720521       0.18462912
C       -0.14672280       1.29116958       0.44723473
O       -1.46886930       1.14859550       0.31135072
C       -1.74332892      -0.11384150      -0.17908011
C       -0.62431736      -0.83291563      -0.27887451
H        2.16742578       0.73258351      -0.70968045
H        2.39552446      -0.61919413       0.17732224
H        0.53619209       0.65409793       1.51192009
H       -2.78939220      -0.35607166      -0.27549102
H       -0.54267504      -1.79369616      -0.76451362
11
Frame=16 idx=001835 GeodesicLength=0.8676281985713997 rxn_smarts="[N:1]([c:2]1[c:3]([H:9])[o:4][c:5]([H:10])[c:6]1[H:11])([H:7])[H:8]>>[N:1]([C@@:2]1([H:9])[C-:3]=[O+:4][C:5]([H:10])=[C:6]1[H:11])([H:7])[H:8]"
N        1.74097609      -0.14716183      -0.42280392
C        0.47123947       0.01704842       0.19659003
C       -0.14795591       1.27900836       0.45914003
O       -1.46884406       1.14470245       0.31714478
C       -1.74358271      -0.11320831      -0.18673000
C       -0.62511616      -0.83418235      -0.28241663
H        2.15373953       0.72022316      -0.73081724
H        2.40258572      -0.60582851       0.18540830
H        0.55057280       0.68244427       1.52930082
H       -2.78979729      -0.35328653      -0.28621773
H       -0.54381748      -1.78975912      -0.77859845
