13
Frame=0 idx=002026 GeodesicLength=0.0 rxn_smarts="[C:1]([C@@:2]([O:3][H:10])([C:4]([O:5][H:13])([H:11])[H:12])[H:9])([H:6])([H:7])[H:8]>>[C:1]1([H:6])([H:8])[C:2]([O:3][H:10])([H:9])[C:4]1([H:11])[H:12].[O:5]([H:7])[H:13]"
C       -1.18086399      -0.13502152       0.42555515
C       -0.31054341      -0.25904909      -0.75274389
O       -0.79129875       0.35421844      -1.95560717
C        0.85569266       0.47497062      -0.20296868
O        1.07967618       0.11080157       1.78456868
H       -1.65977152       0.83655173       0.51547747
H        0.06756687      -0.06529559       1.60120612
H       -1.80860645      -0.98460898       0.67526410
H       -0.05279914      -1.30645515      -0.94226514
H       -0.28365293       0.03015332      -2.70457330
H        1.88324796       0.15497188      -0.32900996
H        0.70804037       1.53712019      -0.05364929
H        1.49331212      -0.74835736       1.93874590
13
Frame=1 idx=002026 GeodesicLength=0.17799164983201016 rxn_smarts="[C:1]([C@@:2]([O:3][H:10])([C:4]([O:5][H:13])([H:11])[H:12])[H:9])([H:6])([H:7])[H:8]>>[C:1]1([H:6])([H:8])[C:2]([O:3][H:10])([H:9])[C:4]1([H:11])[H:12].[O:5]([H:7])[H:13]"
C       -1.16881133      -0.15169271       0.41930551
C       -0.31445388      -0.25564835      -0.77263963
O       -0.82108642       0.38837121      -1.94627988
C        0.86291085       0.44065495      -0.19965617
O        1.07521091       0.12993068       1.80359563
H       -1.66187254       0.81153421       0.52468853
H        0.04106260      -0.07014497       1.61183812
H       -1.79212676      -1.00889680       0.65563623
H       -0.07249239      -1.30024693      -0.99620303
H       -0.34198649       0.06940974      -2.71590037
H        1.92415454       0.11542420      -0.26898232
H        0.75040057       1.52942843      -0.13797855
H        1.51909032      -0.69812368       2.02257593
13
Frame=2 idx=002026 GeodesicLength=0.3547433156778394 rxn_smarts="[C:1]([C@@:2]([O:3][H:10])([C:4]([O:5][H:13])([H:11])[H:12])[H:9])([H:6])([H:7])[H:8]>>[C:1]1([H:6])([H:8])[C:2]([O:3][H:10])([H:9])[C:4]1([H:11])[H:12].[O:5]([H:7])[H:13]"
C       -1.15690893      -0.16898003       0.41263662
C       -0.31867682      -0.25112659      -0.79256005
O       -0.85091096       0.42315420      -1.93517976
C        0.86901006       0.40592171      -0.19593382
O        1.07033780       0.14809166       1.82196829
H       -1.66417348       0.78511110       0.53438475
H        0.01360179      -0.07794142       1.62209644
H       -1.77543135      -1.03383335       0.63472993
H       -0.09214794      -1.29133414      -1.05031192
H       -0.40131483       0.11058415      -2.72486129
H        1.96280139       0.07762068      -0.20694725
H        0.79922375       1.51355025      -0.22631439
H        1.54458951      -0.64081820       2.10629247
13
Frame=3 idx=002026 GeodesicLength=0.5306140586531741 rxn_smarts="[C:1]([C@@:2]([O:3][H:10])([C:4]([O:5][H:13])([H:11])[H:12])[H:9])([H:6])([H:7])[H:8]>>[C:1]1([H:6])([H:8])[C:2]([O:3][H:10])([H:9])[C:4]1([H:11])[H:12].[O:5]([H:7])[H:13]"
C       -1.14530257      -0.18694746       0.40555009
C       -0.32323280      -0.24534594      -0.81235226
O       -0.88052548       0.45902335      -1.92202633
C        0.87400774       0.37095798      -0.19185512
O        1.06508561       0.16520745       1.83968797
H       -1.66696159       0.75712246       0.54459711
H       -0.01484036      -0.08913318       1.63194073
H       -1.75866008      -1.05955333       0.61235014
H       -0.11179895      -1.27958572      -1.10456923
H       -0.46173386       0.15381898      -2.73115858
H        1.99935821       0.04167325      -0.14305844
H        0.85484018       1.48821795      -0.31852842
H        1.56976396      -0.57545578       2.18942233
13
Frame=4 idx=002026 GeodesicLength=0.7063076395036233 rxn_smarts="[C:1]([C@@:2]([O:3][H:10])([C:4]([O:5][H:13])([H:11])[H:12])[H:9])([H:6])([H:7])[H:8]>>[C:1]1([H:6])([H:8])[C:2]([O:3][H:10])([H:9])[C:4]1([H:11])[H:12].[O:5]([H:7])[H:13]"
C       -1.13425445      -0.20551358       0.39821445
C       -0.32804383      -0.23818411      -0.83168646
O       -0.90953470       0.49617724      -1.90665623
C        0.87797137       0.33649121      -0.18750974
O        1.05994541       0.18054059       1.85665517
H       -1.67081692       0.72763401       0.55525945
H       -0.04437133      -0.10327675       1.64145894
H       -1.74209366      -1.08613631       0.58868047
H       -0.13107052      -1.26502763      -1.15838983
H       -0.52296451       0.19881780      -2.73446547
H        2.03437972       0.00862144      -0.07786147
H        0.91695620       1.45249791      -0.41455706
H        1.59389722      -0.50264182       2.27085780
13
Frame=5 idx=002026 GeodesicLength=0.8805799261622311 rxn_smarts="[C:1]([C@@:2]([O:3][H:10])([C:4]([O:5][H:13])([H:11])[H:12])[H:9])([H:6])([H:7])[H:8]>>[C:1]1([H:6])([H:8])[C:2]([O:3][H:10])([H:9])[C:4]1([H:11])[H:12].[O:5]([H:7])[H:13]"
C       -1.12347561      -0.22455712       0.39070780
C       -0.33300593      -0.22949523      -0.85032822
O       -0.93737570       0.53476807      -1.88877877
C        0.88076865       0.30315697      -0.18303875
O        1.05537869       0.19327914       1.87272581
H       -1.67556919       0.69641049       0.56635591
H       -0.07483580      -0.11944832       1.65063488
H       -1.72512832      -1.11338774       0.56374461
H       -0.14977239      -1.24733521      -1.21154042
H       -0.58508507       0.24521975      -2.73440031
H        2.06797751      -0.02048992      -0.01206297
H        0.98472323       1.40482355      -0.51392594
H        1.61539994      -0.42294443       2.34990638
13
Frame=6 idx=002026 GeodesicLength=1.0544436059532336 rxn_smarts="[C:1]([C@@:2]([O:3][H:10])([C:4]([O:5][H:13])([H:11])[H:12])[H:9])([H:6])([H:7])[H:8]>>[C:1]1([H:6])([H:8])[C:2]([O:3][H:10])([H:9])[C:4]1([H:11])[H:12].[O:5]([H:7])[H:13]"
C       -1.11331336      -0.24377814       0.38317268
C       -0.33799867      -0.21918620      -0.86782158
O       -0.96355188       0.57482601      -1.86849481
C        0.88238679       0.27215456      -0.17810949
O        1.05184476       0.20250639       1.88865783
H       -1.68177497       0.66375337       0.57745723
H       -0.10669700      -0.13715532       1.65973182
H       -1.70823612      -1.14104757       0.53768256
H       -0.16730445      -1.22652821      -1.26310516
H       -0.64773610       0.29263910      -2.73079123
H        2.10089393      -0.04364097       0.05427166
H        1.05705416       1.34364188      -0.61733858
H        1.63443293      -0.33818489       2.42468707
13
Frame=7 idx=002026 GeodesicLength=1.2259920937266626 rxn_smarts="[C:1]([C@@:2]([O:3][H:10])([C:4]([O:5][H:13])([H:11])[H:12])[H:9])([H:6])([H:7])[H:8]>>[C:1]1([H:6])([H:8])[C:2]([O:3][H:10])([H:9])[C:4]1([H:11])[H:12].[O:5]([H:7])[H:13]"
C       -1.10325416      -0.26375380       0.37553161
C       -0.34320569      -0.20731198      -0.88437308
O       -0.98718106       0.61795588      -1.84452530
C        0.88278481       0.24259519      -0.17331884
O        1.04872120       0.20910916       1.90385920
H       -1.68868926       0.62870131       0.58941957
H       -0.13934958      -0.15836592       1.66824607
H       -1.69063238      -1.16950235       0.50979859
H       -0.18473451      -1.20215487      -1.31470928
H       -0.71104517       0.34328592      -2.72268641
H        2.13297295      -0.06203082       0.12058672
H        1.13374350       1.26457527      -0.72388931
H        1.64986935      -0.24310299       2.49606045
13
Frame=8 idx=002026 GeodesicLength=1.3983205772904368 rxn_smarts="[C:1]([C@@:2]([O:3][H:10])([C:4]([O:5][H:13])([H:11])[H:12])[H:9])([H:6])([H:7])[H:8]>>[C:1]1([H:6])([H:8])[C:2]([O:3][H:10])([H:9])[C:4]1([H:11])[H:12].[O:5]([H:7])[H:13]"
C       -1.09438315      -0.28242609       0.36823661
C       -0.34816742      -0.19395558      -0.89901090
O       -1.00784906       0.66122731      -1.81929857
C        0.88178547       0.21906580      -0.16766711
O        1.04818635       0.20884407       1.92037369
H       -1.69732189       0.59404256       0.60046317
H       -0.17425378      -0.17988577       1.67715585
H       -1.67437653      -1.19637857       0.48145501
H       -0.19957206      -1.17532388      -1.36232795
H       -0.77307279       0.39268317      -2.71132144
H        2.16641302      -0.06662274       0.18609614
H        1.20994649       1.16855246      -0.83364220
H        1.66266535      -0.14982274       2.55948770
13
Frame=9 idx=002026 GeodesicLength=1.5671803930826695 rxn_smarts="[C:1]([C@@:2]([O:3][H:10])([C:4]([O:5][H:13])([H:11])[H:12])[H:9])([H:6])([H:7])[H:8]>>[C:1]1([H:6])([H:8])[C:2]([O:3][H:10])([H:9])[C:4]1([H:11])[H:12].[O:5]([H:7])[H:13]"
C       -1.08547508      -0.30083202       0.36078294
C       -0.35348195      -0.17986166      -0.91235463
O       -1.02436606       0.70692583      -1.79038049
C        0.87938454       0.19790657      -0.16294807
O        1.04987421       0.20188754       1.93537317
H       -1.70547983       0.55874719       0.61174114
H       -0.20949497      -0.20571670       1.68445147
H       -1.65819764      -1.22204798       0.45142740
H       -0.21488494      -1.14620865      -1.40881107
H       -0.83267037       0.44549335      -2.69461644
H        2.20079223      -0.05991955       0.24880116
H        1.28370171       1.05034789      -0.94146113
H        1.67029815      -0.04672180       2.61799455
13
Frame=10 idx=002026 GeodesicLength=1.7383717329885378 rxn_smarts="[C:1]([C@@:2]([O:3][H:10])([C:4]([O:5][H:13])([H:11])[H:12])[H:9])([H:6])([H:7])[H:8]>>[C:1]1([H:6])([H:8])[C:2]([O:3][H:10])([H:9])[C:4]1([H:11])[H:12].[O:5]([H:7])[H:13]"
C       -1.07825965      -0.31719562       0.35381700
C       -0.35915974      -0.16556546      -0.92452579
O       -1.03707668       0.75231140      -1.76224800
C        0.87625477       0.18197878      -0.15856937
O        1.05701177       0.18148903       1.95178318
H       -1.71448937       0.52584463       0.62183264
H       -0.24654521      -0.23385265       1.69215353
H       -1.64573908      -1.24428901       0.42186083
H       -0.22977540      -1.11672997      -1.45137994
H       -0.88792463       0.49802767      -2.67671019
H        2.24011067      -0.03157743       0.30781215
H        1.35075047       0.91252956      -1.04495123
H        1.67484207       0.05702908       2.66912520
13
Frame=11 idx=002026 GeodesicLength=1.9060155795911977 rxn_smarts="[C:1]([C@@:2]([O:3][H:10])([C:4]([O:5][H:13])([H:11])[H:12])[H:9])([H:6])([H:7])[H:8]>>[C:1]1([H:6])([H:8])[C:2]([O:3][H:10])([H:9])[C:4]1([H:11])[H:12].[O:5]([H:7])[H:13]"
C       -1.07230714      -0.32808807       0.34721436
C       -0.36435635      -0.15197129      -0.93426223
O       -1.04454149       0.79236180      -1.73587427
C        0.87044396       0.17424876      -0.15290703
O        1.07099743       0.13683438       1.96885254
H       -1.72157314       0.50048823       0.62960386
H       -0.28739094      -0.25945523       1.69930534
H       -1.63760092      -1.25820072       0.39270745
H       -0.24246200      -1.08961644      -1.48627736
H       -0.93442328       0.54301673      -2.65718129
H        2.28123647       0.03404088       0.36192130
H        1.40437136       0.75711649      -1.13738187
H        1.67760604       0.14922448       2.70427921
13
Frame=12 idx=002026 GeodesicLength=2.074907489633072 rxn_smarts="[C:1]([C@@:2]([O:3][H:10])([C:4]([O:5][H:13])([H:11])[H:12])[H:9])([H:6])([H:7])[H:8]>>[C:1]1([H:6])([H:8])[C:2]([O:3][H:10])([H:9])[C:4]1([H:11])[H:12].[O:5]([H:7])[H:13]"
C       -1.06755714      -0.33414871       0.34226578
C       -0.37031455      -0.14174730      -0.94350497
O       -1.04711808       0.82813031      -1.71406550
C        0.86519705       0.16436943      -0.14950215
O        1.09820982       0.06404643       1.98316432
H       -1.72500870       0.48438058       0.63599457
H       -0.32760211      -0.28227117       1.70630887
H       -1.63618090      -1.26347633       0.36889367
H       -0.25931766      -1.06835377      -1.51520329
H       -0.97163117       0.58380776      -2.64020084
H        2.32506706       0.15084206       0.41157529
H        1.44640808       0.58654171      -1.21357170
H        1.66984829       0.22787899       2.72784597
13
Frame=13 idx=002026 GeodesicLength=2.241615452616566 rxn_smarts="[C:1]([C@@:2]([O:3][H:10])([C:4]([O:5][H:13])([H:11])[H:12])[H:9])([H:6])([H:7])[H:8]>>[C:1]1([H:6])([H:8])[C:2]([O:3][H:10])([H:9])[C:4]1([H:11])[H:12].[O:5]([H:7])[H:13]"
C       -1.06252050      -0.33508293       0.33996688
C       -0.37660676      -0.13806485      -0.95234391
O       -1.04011978       0.86011861      -1.69397059
C        0.86291751       0.13996898      -0.14933364
O        1.14192815      -0.03373809       1.99000449
H       -1.71783010       0.48172130       0.64422905
H       -0.36070946      -0.30722477       1.71197685
H       -1.64611136      -1.25612820       0.35069484
H       -0.28617229      -1.05655971      -1.54016075
H       -0.99338950       0.62267614      -2.62422139
H        2.34961871       0.35029896       0.46318929
H        1.47957357       0.39060534      -1.27202696
H        1.64942181       0.28140924       2.73199583
13
Frame=14 idx=002026 GeodesicLength=2.405270001562252 rxn_smarts="[C:1]([C@@:2]([O:3][H:10])([C:4]([O:5][H:13])([H:11])[H:12])[H:9])([H:6])([H:7])[H:8]>>[C:1]1([H:6])([H:8])[C:2]([O:3][H:10])([H:9])[C:4]1([H:11])[H:12].[O:5]([H:7])[H:13]"
C       -1.05338339      -0.33846242       0.33775310
C       -0.38150003      -0.13548151      -0.96166758
O       -1.02767335       0.89431399      -1.67018887
C        0.86135547       0.11071552      -0.15165419
O        1.19215115      -0.10157771       1.98938424
H       -1.70759182       0.47532802       0.65322203
H       -0.38497811      -0.33284801       1.71415116
H       -1.64814458      -1.25242738       0.33453461
H       -0.31562208      -1.04394474      -1.56714448
H       -1.00549181       0.67045025      -2.60416189
H        2.34636638       0.53766607       0.51081357
H        1.50309281       0.18841487      -1.30821902
H        1.62141936       0.32785304       2.72317731
13
Frame=15 idx=002026 GeodesicLength=2.5724921510900054 rxn_smarts="[C:1]([C@@:2]([O:3][H:10])([C:4]([O:5][H:13])([H:11])[H:12])[H:9])([H:6])([H:7])[H:8]>>[C:1]1([H:6])([H:8])[C:2]([O:3][H:10])([H:9])[C:4]1([H:11])[H:12].[O:5]([H:7])[H:13]"
C       -1.04278186      -0.34659077       0.33486930
C       -0.38544994      -0.13151257      -0.97189854
O       -1.01606573       0.92926676      -1.64352712
C        0.86054122       0.08308686      -0.15463975
O        1.24470416      -0.13343068       1.98936072
H       -1.70124492       0.45956142       0.66186198
H       -0.40820344      -0.36161461       1.71600879
H       -1.64375273      -1.25685036       0.31670565
H       -0.34335983      -1.02684013      -1.59821094
H       -1.01019250       0.72687156      -2.58284067
H        2.34284988       0.67719036       0.55166269
H        1.51095613      -0.00222238      -1.32967755
H        1.59199957       0.38308454       2.71032545
13
Frame=16 idx=002026 GeodesicLength=2.738909688306497 rxn_smarts="[C:1]([C@@:2]([O:3][H:10])([C:4]([O:5][H:13])([H:11])[H:12])[H:9])([H:6])([H:7])[H:8]>>[C:1]1([H:6])([H:8])[C:2]([O:3][H:10])([H:9])[C:4]1([H:11])[H:12].[O:5]([H:7])[H:13]"
C       -1.03083948      -0.35503449       0.33103382
C       -0.38788104      -0.12693549      -0.98234014
O       -1.00359586       0.96230948      -1.61695266
C        0.86003951       0.05752292      -0.15855057
O        1.30120759      -0.15049566       1.98729840
H       -1.69555071       0.44210193       0.66813701
H       -0.43284202      -0.38953863       1.71677123
H       -1.63570190      -1.26265059       0.29827581
H       -0.36877603      -1.00837976      -1.62836708
H       -1.01051026       0.78278153      -2.56073125
H        2.33692912       0.80383361       0.59056112
H        1.50383987      -0.18708519      -1.33919292
H        1.56368121       0.43157035       2.69405722
