13
Frame=0 idx=000809 GeodesicLength=0.0 rxn_smarts="[C:1]([C:2]([O:3][C:4](=[O:5])[N:6]([H:12])[H:13])([H:10])[H:11])([H:7])([H:8])[H:9]>>[C:1]([C:2]([O:3][H:13])([H:10])[H:11])([H:7])([H:8])[H:9].[C:4](=[O:5])=[N:6][H:12]"
C       -1.46942101       0.38197282       0.33144268
C       -0.80866016      -0.29681385      -0.84890267
O        0.59415498      -0.03058798      -0.93070582
C        1.49085997      -0.62117066       0.26326694
O        1.43451228      -1.77372177       0.52260898
N        1.99502562       0.54246838       0.54754821
H       -1.35098458       1.46603328       0.28114450
H       -1.05075134       0.02949455       1.27534232
H       -2.53704311       0.15685277       0.33148363
H       -0.90548621      -1.38341510      -0.78881820
H       -1.23680722       0.03506351      -1.79563237
H        2.72308655       0.60811426       1.23999468
H        1.12151418       0.88570982      -0.42877288
13
Frame=1 idx=000809 GeodesicLength=0.09377798378002442 rxn_smarts="[C:1]([C:2]([O:3][C:4](=[O:5])[N:6]([H:12])[H:13])([H:10])[H:11])([H:7])([H:8])[H:9]>>[C:1]([C:2]([O:3][H:13])([H:10])[H:11])([H:7])([H:8])[H:9].[C:4](=[O:5])=[N:6][H:12]"
C       -1.49216644       0.38483611       0.32456442
C       -0.81378021      -0.29412914      -0.84542202
O        0.58387301      -0.00737893      -0.91928936
C        1.50644277      -0.62968098       0.27149615
O        1.45713423      -1.78366603       0.52458456
N        2.01048341       0.53210957       0.56096044
H       -1.38616527       1.46981509       0.26821500
H       -1.07712140       0.04305941       1.27405856
H       -2.55722043       0.14757855       0.31801088
H       -0.90638599      -1.38098512      -0.78165742
H       -1.23881993       0.02530509      -1.79796774
H        2.77813598       0.58955073       1.20977997
H        1.13559027       0.90358566      -0.40733343
13
Frame=2 idx=000809 GeodesicLength=0.18750424955332945 rxn_smarts="[C:1]([C:2]([O:3][C:4](=[O:5])[N:6]([H:12])[H:13])([H:10])[H:11])([H:7])([H:8])[H:9]>>[C:1]([C:2]([O:3][H:13])([H:10])[H:11])([H:7])([H:8])[H:9].[C:4](=[O:5])=[N:6][H:12]"
C       -1.51540779       0.38769839       0.31759045
C       -0.81874216      -0.29107640      -0.84151737
O        0.57340971       0.01644874      -0.90652389
C        1.52249974      -0.63888550       0.27990159
O        1.48008213      -1.79420971       0.52675594
N        2.02738385       0.52083818       0.57367528
H       -1.42194725       1.47342241       0.25510890
H       -1.10450124       0.05674433       1.27277608
H       -2.57764811       0.13808511       0.30400843
H       -0.90712247      -1.37816782      -0.77424522
H       -1.23984565       0.01600480      -1.80000614
H        2.83159492       0.57176098       1.17713792
H        1.15024431       0.92133649      -0.38466196
13
Frame=3 idx=000809 GeodesicLength=0.28126617198795845 rxn_smarts="[C:1]([C:2]([O:3][C:4](=[O:5])[N:6]([H:12])[H:13])([H:10])[H:11])([H:7])([H:8])[H:9]>>[C:1]([C:2]([O:3][H:13])([H:10])[H:11])([H:7])([H:8])[H:9].[C:4](=[O:5])=[N:6][H:12]"
C       -1.53930787       0.39052014       0.31045829
C       -0.82350298      -0.28760025      -0.83713082
O        0.56277346       0.04099433      -0.89212561
C        1.53896059      -0.64874643       0.28872729
O        1.50331106      -1.80532103       0.52934331
N        2.04605505       0.50863411       0.58549847
H       -1.45853437       1.47681526       0.24179227
H       -1.13320252       0.07050119       1.27147950
H       -2.59845365       0.12827342       0.28924117
H       -0.90763266      -1.37491461      -0.76658831
H       -1.23968598       0.00725188      -1.80173684
H        2.88381622       0.55457401       1.14144168
H        1.16540365       0.93901798      -0.36040040
13
Frame=4 idx=000809 GeodesicLength=0.37510503895172354 rxn_smarts="[C:1]([C:2]([O:3][C:4](=[O:5])[N:6]([H:12])[H:13])([H:10])[H:11])([H:7])([H:8])[H:9]>>[C:1]([C:2]([O:3][H:13])([H:10])[H:11])([H:7])([H:8])[H:9].[C:4](=[O:5])=[N:6][H:12]"
C       -1.56383173       0.39332082       0.30317837
C       -0.82809362      -0.28371330      -0.83221649
O        0.55189603       0.06622963      -0.87611480
C        1.55592660      -0.65924874       0.29778287
O        1.52691303      -1.81697109       0.53228576
N        2.06672231       0.49556457       0.59584677
H       -1.49588777       1.48000739       0.22819960
H       -1.16316617       0.08439376       1.27017404
H       -2.61957803       0.11815454       0.27378064
H       -0.90794809      -1.37124331      -0.75858840
H       -1.23839265      -0.00098662      -1.80310590
H        2.93437420       0.53787167       1.10352152
H        1.18106587       0.95662067      -0.33474400
13
Frame=5 idx=000809 GeodesicLength=0.46899274415311215 rxn_smarts="[C:1]([C:2]([O:3][C:4](=[O:5])[N:6]([H:12])[H:13])([H:10])[H:11])([H:7])([H:8])[H:9]>>[C:1]([C:2]([O:3][H:13])([H:10])[H:11])([H:7])([H:8])[H:9].[C:4](=[O:5])=[N:6][H:12]"
C       -1.58911787       0.39606309       0.29568182
C       -0.83249109      -0.27937314      -0.82671465
O        0.54074414       0.09222484      -0.85824183
C        1.57334961      -0.67033033       0.30722338
O        1.55086076      -1.82908432       0.53577463
N        2.08944928       0.48170003       0.60455368
H       -1.53418648       1.48295101       0.21426703
H       -1.19466944       0.09838677       1.26882027
H       -2.64111056       0.10764478       0.25742337
H       -0.90801233      -1.36711103      -0.75022885
H       -1.23579707      -0.00864242      -1.80407776
H        2.98384300       0.52137978       1.06297426
H        1.19713805       0.97419093      -0.30745535
13
Frame=6 idx=000809 GeodesicLength=0.5629396515510815 rxn_smarts="[C:1]([C:2]([O:3][C:4](=[O:5])[N:6]([H:12])[H:13])([H:10])[H:11])([H:7])([H:8])[H:9]>>[C:1]([C:2]([O:3][H:13])([H:10])[H:11])([H:7])([H:8])[H:9].[C:4](=[O:5])=[N:6][H:12]"
C       -1.61515154       0.39874033       0.28796083
C       -0.83670730      -0.27457040      -0.82057845
O        0.52926496       0.11896860      -0.83844650
C        1.59133514      -0.68198421       0.31691392
O        1.57518089      -1.84162983       0.53987534
N        2.11424351       0.46713109       0.61125801
H       -1.57339576       1.48563149       0.19994981
H       -1.22772596       0.11247822       1.26740664
H       -2.66300719       0.09673593       0.24016850
H       -0.90784080      -1.36251476      -0.74144999
H       -1.23188026      -0.01568244      -1.80459842
H        3.03204377       0.50497088       1.02017352
H        1.21364054       0.99172509      -0.27863320
13
Frame=7 idx=000809 GeodesicLength=0.6569446367650862 rxn_smarts="[C:1]([C:2]([O:3][C:4](=[O:5])[N:6]([H:12])[H:13])([H:10])[H:11])([H:7])([H:8])[H:9]>>[C:1]([C:2]([O:3][H:13])([H:10])[H:11])([H:7])([H:8])[H:9].[C:4](=[O:5])=[N:6][H:12]"
C       -1.64207297       0.40129904       0.27993560
C       -0.84069427      -0.26923772      -0.81373229
O        0.51743799       0.14654924      -0.81638804
C        1.60985056      -0.69416560       0.32707359
O        1.59980854      -1.85455000       0.54489926
N        2.14114745       0.45190887       0.61581583
H       -1.61367537       1.48798879       0.18520228
H       -1.26266624       0.12657475       1.26588725
H       -2.68534830       0.08533410       0.22174698
H       -0.90736075      -1.35739397      -0.73225770
H       -1.22639958      -0.02196696      -1.80461998
H        3.07946534       0.48838912       0.97434772
H        1.23050758       1.00927033      -0.24791048
13
Frame=8 idx=000809 GeodesicLength=0.7509335248083157 rxn_smarts="[C:1]([C:2]([O:3][C:4](=[O:5])[N:6]([H:12])[H:13])([H:10])[H:11])([H:7])([H:8])[H:9]>>[C:1]([C:2]([O:3][H:13])([H:10])[H:11])([H:7])([H:8])[H:9].[C:4](=[O:5])=[N:6][H:12]"
C       -1.66981582       0.40373491       0.27160689
C       -0.84445377      -0.26336084      -0.80612112
O        0.50520639       0.17492528      -0.79200740
C        1.62904789      -0.70690542       0.33746272
O        1.62476502      -1.86782712       0.55093340
N        2.16995954       0.43611081       0.61793797
H       -1.65491581       1.49000509       0.16999753
H       -1.29945583       0.14065378       1.26423686
H       -2.70803009       0.07346247       0.20218202
H       -0.90658285      -1.35173559      -0.72259467
H       -1.21932552      -0.02743314      -1.80405474
H        3.12578831       0.47160099       0.92586943
H        1.24781253       1.02676878      -0.21544889
13
Frame=9 idx=000809 GeodesicLength=0.8448787506481528 rxn_smarts="[C:1]([C:2]([O:3][C:4](=[O:5])[N:6]([H:12])[H:13])([H:10])[H:11])([H:7])([H:8])[H:9]>>[C:1]([C:2]([O:3][H:13])([H:10])[H:11])([H:7])([H:8])[H:9].[C:4](=[O:5])=[N:6][H:12]"
C       -1.69849982       0.40598179       0.26288652
C       -0.84791392      -0.25685088      -0.79764980
O        0.49254759       0.20418671      -0.76488011
C        1.64890418      -0.72017300       0.34831844
O        1.64996270      -1.88140533       0.55841802
N        2.20065562       0.41976599       0.61747020
H       -1.69722864       1.49161389       0.15431564
H       -1.33845485       0.15455263       1.26239516
H       -2.73109907       0.06103719       0.18114345
H       -0.90541235      -1.34546059      -0.71248752
H       -1.21034866      -0.03187108      -1.80282175
H        3.17136159       0.45438694       0.87370171
H        1.26552563       1.04423574      -0.18080998
13
Frame=10 idx=000809 GeodesicLength=0.9386972891156751 rxn_smarts="[C:1]([C:2]([O:3][C:4](=[O:5])[N:6]([H:12])[H:13])([H:10])[H:11])([H:7])([H:8])[H:9]>>[C:1]([C:2]([O:3][H:13])([H:10])[H:11])([H:7])([H:8])[H:9].[C:4](=[O:5])=[N:6][H:12]"
C       -1.72800405       0.40803746       0.25378629
C       -0.85106944      -0.24968772      -0.78825644
O        0.47940247       0.23425899      -0.73494190
C        1.66963767      -0.73405228       0.35925838
O        1.67542459      -1.89528746       0.56751737
N        2.23286983       0.40293001       0.61417088
H       -1.74041483       1.49280509       0.13816201
H       -1.37957514       0.16820992       1.26032722
H       -2.75439394       0.04811698       0.15867070
H       -0.90386260      -1.33855215      -0.70189011
H       -1.19943849      -0.03517160      -1.80080262
H        3.21562090       0.43684335       0.81824250
H        1.28380302       1.06154942      -0.14424428
13
Frame=11 idx=000809 GeodesicLength=1.0323820619152875 rxn_smarts="[C:1]([C:2]([O:3][C:4](=[O:5])[N:6]([H:12])[H:13])([H:10])[H:11])([H:7])([H:8])[H:9]>>[C:1]([C:2]([O:3][H:13])([H:10])[H:11])([H:7])([H:8])[H:9].[C:4](=[O:5])=[N:6][H:12]"
C       -1.75842115       0.40982824       0.24421141
C       -0.85382917      -0.24176076      -0.77782014
O        0.46573888       0.26522384      -0.70168016
C        1.69126802      -0.74854716       0.37046247
O        1.70106899      -1.90941777       0.57883483
N        2.26652992       0.38560444       0.60780516
H       -1.78453059       1.49351509       0.12154394
H       -1.42318978       0.18139623       1.25795154
H       -2.77791585       0.03463558       0.13438257
H       -0.90182083      -1.33091465      -0.69084268
H       -1.18623313      -0.03704240      -1.79787135
H        3.25865138       0.41880847       0.75831942
H        1.30268331       1.07867085      -0.10529701
13
Frame=12 idx=000809 GeodesicLength=1.1258022079783023 rxn_smarts="[C:1]([C:2]([O:3][C:4](=[O:5])[N:6]([H:12])[H:13])([H:10])[H:11])([H:7])([H:8])[H:9]>>[C:1]([C:2]([O:3][H:13])([H:10])[H:11])([H:7])([H:8])[H:9].[C:4](=[O:5])=[N:6][H:12]"
C       -1.78948133       0.41141803       0.23423463
C       -0.85624151      -0.23310971      -0.76628023
O        0.45146112       0.29685627      -0.66522833
C        1.71414161      -0.76385378       0.38104074
O        1.72711482      -1.92385620       0.59225562
N        2.30086989       0.36785323       0.59829297
H       -1.82916844       1.49380520       0.10447413
H       -1.46894220       0.19414599       1.25524652
H       -2.80137991       0.02078355       0.10853962
H       -0.89938484      -1.32258493      -0.67922438
H       -1.17088109      -0.03746941      -1.79385465
H        3.29939747       0.40067462       0.69532038
H        1.32249442       1.09533714      -0.06481702
13
Frame=13 idx=000809 GeodesicLength=1.2189596465236259 rxn_smarts="[C:1]([C:2]([O:3][C:4](=[O:5])[N:6]([H:12])[H:13])([H:10])[H:11])([H:7])([H:8])[H:9]>>[C:1]([C:2]([O:3][H:13])([H:10])[H:11])([H:7])([H:8])[H:9].[C:4](=[O:5])=[N:6][H:12]"
C       -1.82145097       0.41263802       0.22364711
C       -0.85809050      -0.22350531      -0.75341587
O        0.43654078       0.32937241      -0.62448147
C        1.73803517      -0.77987312       0.39183235
O        1.75339674      -1.93840824       0.60899317
N        2.33609768       0.34962116       0.58523662
H       -1.87456324       1.49353648       0.08701812
H       -1.51770540       0.20594282       1.25205635
H       -2.82487077       0.00639542       0.08024090
H       -0.89627203      -1.31334978      -0.66718462
H       -1.15258713      -0.03586772      -1.78854952
H        3.33824028       0.38196145       0.62629127
H        1.34322939       1.11153642      -0.02168442
13
Frame=14 idx=000809 GeodesicLength=1.3117836808731618 rxn_smarts="[C:1]([C:2]([O:3][C:4](=[O:5])[N:6]([H:12])[H:13])([H:10])[H:11])([H:7])([H:8])[H:9]>>[C:1]([C:2]([O:3][H:13])([H:10])[H:11])([H:7])([H:8])[H:9].[C:4](=[O:5])=[N:6][H:12]"
C       -1.85388388       0.41378746       0.21259334
C       -0.85957267      -0.21319218      -0.73908623
O        0.42082810       0.36217788      -0.57993525
C        1.76344490      -0.79700495       0.40128021
O        1.78094812      -1.95342926       0.62749509
N        2.37082655       0.33101645       0.56910372
H       -1.91999928       1.49299775       0.06896021
H       -1.56873952       0.21730714       1.24839874
H       -2.84800763      -0.00799970       0.05016874
H       -0.89284143      -1.30343269      -0.65418514
H       -1.13186200      -0.03268047      -1.78166016
H        3.37344523       0.36364322       0.55475339
H        1.36541350       1.12680935       0.02211333
13
Frame=15 idx=000809 GeodesicLength=1.4043556802724262 rxn_smarts="[C:1]([C:2]([O:3][C:4](=[O:5])[N:6]([H:12])[H:13])([H:10])[H:11])([H:7])([H:8])[H:9]>>[C:1]([C:2]([O:3][H:13])([H:10])[H:11])([H:7])([H:8])[H:9].[C:4](=[O:5])=[N:6][H:12]"
C       -1.88692913       0.41488267       0.20090116
C       -0.86059276      -0.20210799      -0.72295919
O        0.40423066       0.39516257      -0.53065696
C        1.79024557      -0.81528370       0.40983206
O        1.81026899      -1.96895109       0.64778028
N        2.40489049       0.31202958       0.54977155
H       -1.96546063       1.49223696       0.05017188
H       -1.62270173       0.22809212       1.24411820
H       -2.87080256      -0.02229099       0.01768648
H       -0.88903862      -1.29277829      -0.64001227
H       -1.10813908      -0.02766811      -1.77282496
H        3.40486750       0.34565310       0.47943864
H        1.38916130       1.14102316       0.06675311
13
Frame=16 idx=000809 GeodesicLength=1.4965226842788988 rxn_smarts="[C:1]([C:2]([O:3][C:4](=[O:5])[N:6]([H:12])[H:13])([H:10])[H:11])([H:7])([H:8])[H:9]>>[C:1]([C:2]([O:3][H:13])([H:10])[H:11])([H:7])([H:8])[H:9].[C:4](=[O:5])=[N:6][H:12]"
C       -1.92030840       0.41618347       0.18860207
C       -0.86128838      -0.19049272      -0.70474923
O        0.38658919       0.42768507      -0.47663475
C        1.81858627      -0.83493101       0.41664011
O        1.84236993      -1.98523289       0.66820747
N        2.43725844       0.29276767       0.52769020
H       -2.01033699       1.49149253       0.03039432
H       -1.67934683       0.23873700       1.23915375
H       -2.89297442      -0.03597826      -0.01695258
H       -0.88519904      -1.28157567      -0.62407733
H       -1.08156869      -0.02125173      -1.76162186
H        3.43154462       0.32872567       0.40282877
H        1.41467430       1.15387088       0.11051906
