13
Frame=0 idx=003705 GeodesicLength=0.0 rxn_smarts="[C:1](/[C:2](=[N:3]/[O:4][H:10])[C:5]([O:6][H:13])([H:11])[H:12])([H:7])([H:8])[H:9]>>[C:1]([C+:2]([N:3]([O-:4])[H:10])[C:5]([O:6][H:13])([H:11])[H:12])([H:7])([H:8])[H:9]"
C       -0.87659294       1.47265162       0.24255002
C       -0.27064765       0.12075502       0.08902213
N       -1.00330837      -0.88339097      -0.15803711
O       -0.48171600      -2.17384046      -0.31607941
C        1.21680007      -0.11179316       0.21920419
O        1.75752714      -0.73193833      -0.91670528
H       -1.96128328       1.43025151       0.16173341
H       -0.60746761       1.89602930       1.21328884
H       -0.48533271       2.14438269      -0.52491694
H       -1.67099243      -1.73761249      -0.46482167
H        1.38538966      -0.70671919       1.12808642
H        1.72494466       0.84511993       0.34423503
H        1.27267945      -1.56389551      -1.01755962
13
Frame=1 idx=003705 GeodesicLength=0.035143873251001684 rxn_smarts="[C:1](/[C:2](=[N:3]/[O:4][H:10])[C:5]([O:6][H:13])([H:11])[H:12])([H:7])([H:8])[H:9]>>[C:1]([C+:2]([N:3]([O-:4])[H:10])[C:5]([O:6][H:13])([H:11])[H:12])([H:7])([H:8])[H:9]"
C       -0.87639472       1.47145023       0.24267305
C       -0.26948349       0.11957084       0.09325279
N       -1.00560348      -0.88710245      -0.13408907
O       -0.48469169      -2.16993859      -0.31259681
C        1.21822243      -0.11134643       0.21958518
O        1.75591632      -0.73212931      -0.91755655
H       -1.96119148       1.42800359       0.16265514
H       -0.60650233       1.89906441       1.21137837
H       -0.48662459       2.14093287      -0.52754148
H       -1.67183733      -1.73582982      -0.49125220
H        1.39145845      -0.70484491       1.12854178
H        1.72550920       0.84642133       0.34155267
H        1.27122272      -1.56425177      -1.01660286
13
Frame=2 idx=003705 GeodesicLength=0.07033958181737429 rxn_smarts="[C:1](/[C:2](=[N:3]/[O:4][H:10])[C:5]([O:6][H:13])([H:11])[H:12])([H:7])([H:8])[H:9]>>[C:1]([C+:2]([N:3]([O-:4])[H:10])[C:5]([O:6][H:13])([H:11])[H:12])([H:7])([H:8])[H:9]"
C       -0.87624681       1.47011423       0.24255682
C       -0.26832290       0.11831470       0.09693606
N       -1.00754325      -0.89061042      -0.11172582
O       -0.48774985      -2.16572472      -0.31068134
C        1.21958715      -0.11102110       0.22000533
O        1.75478467      -0.73214172      -0.91827409
H       -1.96111190       1.42559398       0.16283318
H       -0.60603514       1.90152967       1.20952461
H       -0.48763579       2.13766726      -0.52994527
H       -1.67291289      -1.73351554      -0.51355229
H        1.39699961      -0.70340103       1.12890429
H        1.72596762       0.84754928       0.33943904
H        1.27021948      -1.56435459      -1.01602051
13
Frame=3 idx=003705 GeodesicLength=0.10554927480752416 rxn_smarts="[C:1](/[C:2](=[N:3]/[O:4][H:10])[C:5]([O:6][H:13])([H:11])[H:12])([H:7])([H:8])[H:9]>>[C:1]([C+:2]([N:3]([O-:4])[H:10])[C:5]([O:6][H:13])([H:11])[H:12])([H:7])([H:8])[H:9]"
C       -0.87614093       1.46866330       0.24227748
C       -0.26715239       0.11699710       0.10023534
N       -1.00914880      -0.89395085      -0.09063083
O       -0.49088963      -2.16124124      -0.30990093
C        1.22092775      -0.11077411       0.22045052
O        1.75402976      -0.73204497      -0.91887808
H       -1.96104536       1.42301801       0.16249496
H       -0.60593378       1.90357042       1.20771901
H       -0.48846810       2.13452506      -0.53218239
H       -1.67429518      -1.73079159      -0.53283290
H        1.40217955      -0.70223930       1.12920789
H        1.72635615       0.84857077       0.33770732
H        1.26958097      -1.56430261      -1.01566740
13
Frame=4 idx=003705 GeodesicLength=0.14066646005737032 rxn_smarts="[C:1](/[C:2](=[N:3]/[O:4][H:10])[C:5]([O:6][H:13])([H:11])[H:12])([H:7])([H:8])[H:9]>>[C:1]([C+:2]([N:3]([O-:4])[H:10])[C:5]([O:6][H:13])([H:11])[H:12])([H:7])([H:8])[H:9]"
C       -0.87607788       1.46710252       0.24189078
C       -0.26597151       0.11561674       0.10329610
N       -1.01044986      -0.89715812      -0.07050749
O       -0.49411981      -2.15652000      -0.30992305
C        1.22226060      -0.11058350       0.22091391
O        1.75355184      -0.73189448      -0.91938662
H       -1.96100105       1.42026310       0.16184175
H       -0.60608602       1.90531211       1.20592969
H       -0.48922392       2.13142061      -0.53432304
H       -1.67592105      -1.72764544      -0.54999105
H        1.40712277      -0.70126142       1.12947220
H        1.72669193       0.84951963       0.33621596
H        1.26922397      -1.56417173      -1.01542915
13
Frame=5 idx=003705 GeodesicLength=0.17585706312475916 rxn_smarts="[C:1](/[C:2](=[N:3]/[O:4][H:10])[C:5]([O:6][H:13])([H:11])[H:12])([H:7])([H:8])[H:9]>>[C:1]([C+:2]([N:3]([O-:4])[H:10])[C:5]([O:6][H:13])([H:11])[H:12])([H:7])([H:8])[H:9]"
C       -0.87603725       1.46546104       0.24140003
C       -0.26475934       0.11420426       0.10608811
N       -1.01144891      -0.90023845      -0.05132622
O       -0.49741809      -2.15156246      -0.31069665
C        1.22360641      -0.11042501       0.22139224
O        1.75337391      -0.73167817      -0.91980132
H       -1.96095774       1.41736374       0.16082717
H       -0.60649575       1.90674683       1.20419520
H       -0.48984987       2.12842404      -0.53632744
H       -1.67800284      -1.72434656      -0.56510334
H        1.41184374      -0.70043632       1.12971194
H        1.72700691       0.85042400       0.33496897
H        1.26913881      -1.56393694      -1.01532868
13
Frame=6 idx=003705 GeodesicLength=0.21106244702458019 rxn_smarts="[C:1](/[C:2](=[N:3]/[O:4][H:10])[C:5]([O:6][H:13])([H:11])[H:12])([H:7])([H:8])[H:9]>>[C:1]([C+:2]([N:3]([O-:4])[H:10])[C:5]([O:6][H:13])([H:11])[H:12])([H:7])([H:8])[H:9]"
C       -0.87602271       1.46374158       0.24084116
C       -0.26351933       0.11275733       0.10870304
N       -1.01217152      -0.90321705      -0.03288539
O       -0.50079602      -2.14639341      -0.31201450
C        1.22497135      -0.11028639       0.22187723
O        1.75342276      -0.73143659      -0.92013844
H       -1.96092366       1.41431405       0.15957426
H       -0.60710022       1.90794957       1.20249894
H       -0.49040833       2.12548143      -0.53823539
H       -1.68045047      -1.72085388      -0.57873957
H        1.41642001      -0.69970278       1.12993532
H        1.72730706       0.85130451       0.33386882
H        1.26927107      -1.56365838      -1.01528549
13
Frame=7 idx=003705 GeodesicLength=0.24628860867967753 rxn_smarts="[C:1](/[C:2](=[N:3]/[O:4][H:10])[C:5]([O:6][H:13])([H:11])[H:12])([H:7])([H:8])[H:9]>>[C:1]([C+:2]([N:3]([O-:4])[H:10])[C:5]([O:6][H:13])([H:11])[H:12])([H:7])([H:8])[H:9]"
C       -0.87603454       1.46194846       0.24023816
C       -0.26225508       0.11127343       0.11121787
N       -1.01264096      -0.90611663      -0.01504218
O       -0.50426232      -2.14103267      -0.31372224
C        1.22635873      -0.11016003       0.22236806
O        1.75364215      -0.73119149      -0.92041122
H       -1.96090257       1.41111113       0.15816721
H       -0.60785019       1.90898356       1.20082529
H       -0.49094082       2.12255232      -0.54008298
H       -1.68318993      -1.71715163      -0.59130780
H        1.42090841      -0.69902460       1.13015012
H        1.72759819       0.85217474       0.33285753
H        1.26956892      -1.56336658      -1.01525781
13
Frame=8 idx=003705 GeodesicLength=0.28154706824596265 rxn_smarts="[C:1](/[C:2](=[N:3]/[O:4][H:10])[C:5]([O:6][H:13])([H:11])[H:12])([H:7])([H:8])[H:9]>>[C:1]([C+:2]([N:3]([O-:4])[H:10])[C:5]([O:6][H:13])([H:11])[H:12])([H:7])([H:8])[H:9]"
C       -0.87607425       1.46008447       0.23960938
C       -0.26096922       0.10974968       0.11369278
N       -1.01287938      -0.90895825       0.00231364
O       -0.50783418      -2.13550286      -0.31571236
C        1.22777600      -0.11003909       0.22286538
O        1.75398997      -0.73095519      -0.92063399
H       -1.96090221       1.40774957       0.15666528
H       -0.60870939       1.90989626       1.19916650
H       -0.49148063       2.11960771      -0.54190310
H       -1.68616549      -1.71321771      -0.60311265
H        1.42536039      -0.69837616       1.13036765
H        1.72789192       0.85305001       0.33189157
H        1.26999648      -1.56308844      -1.01521007
13
Frame=9 idx=003705 GeodesicLength=0.3168433859730938 rxn_smarts="[C:1](/[C:2](=[N:3]/[O:4][H:10])[C:5]([O:6][H:13])([H:11])[H:12])([H:7])([H:8])[H:9]>>[C:1]([C+:2]([N:3]([O-:4])[H:10])[C:5]([O:6][H:13])([H:11])[H:12])([H:7])([H:8])[H:9]"
C       -0.87613922       1.45815138       0.23895884
C       -0.25965875       0.10818679       0.11616972
N       -1.01289178      -0.91175594       0.01927569
O       -0.51149214      -2.12979409      -0.31792755
C        1.22921822      -0.10992736       0.22337054
O        1.75443467      -0.73073091      -0.92081246
H       -1.96091190       1.40423486       0.15507244
H       -0.60967954       1.91071493       1.19750697
H       -0.49202672       2.11661938      -0.54370406
H       -1.68934500      -1.70905024      -0.61430026
H        1.42979749      -0.69775483       1.13057470
H        1.72817638       0.85392034       0.33096540
H        1.27051830      -1.56281430      -1.01514996
13
Frame=10 idx=003705 GeodesicLength=0.35209782002209167 rxn_smarts="[C:1](/[C:2](=[N:3]/[O:4][H:10])[C:5]([O:6][H:13])([H:11])[H:12])([H:7])([H:8])[H:9]>>[C:1]([C+:2]([N:3]([O-:4])[H:10])[C:5]([O:6][H:13])([H:11])[H:12])([H:7])([H:8])[H:9]"
C       -0.87623409       1.45615910       0.23831385
C       -0.25832712       0.10660696       0.11857841
N       -1.01268407      -0.91447476       0.03577784
O       -0.51524451      -2.12392400      -0.32028798
C        1.23067676      -0.10981334       0.22385284
O        1.75497983      -0.73058000      -0.92093207
H       -1.96093819       1.40058705       0.15348164
H       -0.61071975       1.91141483       1.19587300
H       -0.49262056       2.11362976      -0.54544202
H       -1.69268143      -1.70468697      -0.62499888
H        1.43418534      -0.69709270       1.13077938
H        1.72844993       0.85479575       0.32999611
H        1.27115786      -1.56262167      -1.01499213
13
Frame=11 idx=003705 GeodesicLength=0.3873938567411541 rxn_smarts="[C:1](/[C:2](=[N:3]/[O:4][H:10])[C:5]([O:6][H:13])([H:11])[H:12])([H:7])([H:8])[H:9]>>[C:1]([C+:2]([N:3]([O-:4])[H:10])[C:5]([O:6][H:13])([H:11])[H:12])([H:7])([H:8])[H:9]"
C       -0.87635615       1.45411663       0.23768119
C       -0.25697468       0.10501175       0.12093584
N       -1.01228832      -0.91714543       0.05188357
O       -0.51910111      -2.11791700      -0.32273498
C        1.23216454      -0.10968590       0.22431246
O        1.75561219      -0.73049998      -0.92100701
H       -1.96098795       1.39680970       0.15187657
H       -0.61182349       1.91200476       1.19428756
H       -0.49324639       2.11066094      -0.54711857
H       -1.69618017      -1.70016471      -0.63534107
H        1.43855829      -0.69637479       1.13099945
H        1.72873655       0.85570013       0.32896436
H        1.27188669      -1.56251609      -1.01473937
13
Frame=12 idx=003705 GeodesicLength=0.4227067228585389 rxn_smarts="[C:1](/[C:2](=[N:3]/[O:4][H:10])[C:5]([O:6][H:13])([H:11])[H:12])([H:7])([H:8])[H:9]>>[C:1]([C+:2]([N:3]([O-:4])[H:10])[C:5]([O:6][H:13])([H:11])[H:12])([H:7])([H:8])[H:9]"
C       -0.87650747       1.45202284       0.23707064
C       -0.25560577       0.10339719       0.12329283
N       -1.01171290      -0.91976997       0.06765052
O       -0.52305856      -2.11177871      -0.32520596
C        1.23367454      -0.10954945       0.22475063
O        1.75629402      -0.73049876      -0.92104492
H       -1.96106035       1.39290330       0.15030273
H       -0.61297360       1.91252244       1.19272954
H       -0.49392907       2.10767125      -0.54875823
H       -1.69975977      -1.69543911      -0.64548975
H        1.44293514      -0.69559889       1.13122578
H        1.72902505       0.85662548       0.32785204
H        1.27267876      -1.56250760      -1.01437586
13
Frame=13 idx=003705 GeodesicLength=0.45804111758664423 rxn_smarts="[C:1](/[C:2](=[N:3]/[O:4][H:10])[C:5]([O:6][H:13])([H:11])[H:12])([H:7])([H:8])[H:9]>>[C:1]([C+:2]([N:3]([O-:4])[H:10])[C:5]([O:6][H:13])([H:11])[H:12])([H:7])([H:8])[H:9]"
C       -0.87668752       1.44987768       0.23648393
C       -0.25422202       0.10175820       0.12569601
N       -1.01096857      -0.92236108       0.08313241
O       -0.52711944      -2.10551729      -0.32767321
C        1.23520747      -0.10940659       0.22517715
O        1.75700238      -0.73056734      -0.92105346
H       -1.96115597       1.38886536       0.14877692
H       -0.61415758       1.91300132       1.19118207
H       -0.49467853       2.10463033      -0.55039089
H       -1.70338344      -1.69049120      -0.65554344
H        1.44733810      -0.69477352       1.13146044
H        1.72931601       0.85757079       0.32666230
H        1.27350910      -1.56258666      -1.01391022
13
Frame=14 idx=003705 GeodesicLength=0.49342106508230943 rxn_smarts="[C:1](/[C:2](=[N:3]/[O:4][H:10])[C:5]([O:6][H:13])([H:11])[H:12])([H:7])([H:8])[H:9]>>[C:1]([C+:2]([N:3]([O-:4])[H:10])[C:5]([O:6][H:13])([H:11])[H:12])([H:7])([H:8])[H:9]"
C       -0.87689697       1.44768093       0.23592352
C       -0.25282531       0.10008862       0.12819138
N       -1.01007098      -0.92493621       0.09837759
O       -0.53129963      -2.09914875      -0.33011922
C        1.23676978      -0.10925553       0.22560252
O        1.75771681      -0.73069242      -0.92104411
H       -1.96128216       1.38468616       0.14732256
H       -0.61535248       1.91347641       1.18963086
H       -0.49551171       2.10151249      -0.55205451
H       -1.70702656      -1.68529829      -0.66560414
H        1.45179764      -0.69390593       1.13171244
H        1.72962011       0.85854458       0.32539891
H        1.27436147      -1.56275208      -1.01333780
13
Frame=15 idx=003705 GeodesicLength=0.5287801242868493 rxn_smarts="[C:1](/[C:2](=[N:3]/[O:4][H:10])[C:5]([O:6][H:13])([H:11])[H:12])([H:7])([H:8])[H:9]>>[C:1]([C+:2]([N:3]([O-:4])[H:10])[C:5]([O:6][H:13])([H:11])[H:12])([H:7])([H:8])[H:9]"
C       -0.87713667       1.44542556       0.23538876
C       -0.25141030       0.09839639       0.13077801
N       -1.00900333      -0.92747195       0.11341511
O       -0.53556180      -2.09263141      -0.33252059
C        1.23834391      -0.10910909       0.22601472
O        1.75842454      -0.73089381      -0.92101016
H       -1.96141903       1.38037517       0.14590906
H       -0.61660365       1.91392675       1.18806681
H       -0.49641099       2.09829553      -0.55371253
H       -1.71064061      -1.67983508      -0.67565474
H        1.45629295      -0.69299698       1.13194177
H        1.72990352       0.85950999       0.32405399
H        1.27522147      -1.56299105      -1.01267021
13
Frame=16 idx=003705 GeodesicLength=0.5641681149867835 rxn_smarts="[C:1](/[C:2](=[N:3]/[O:4][H:10])[C:5]([O:6][H:13])([H:11])[H:12])([H:7])([H:8])[H:9]>>[C:1]([C+:2]([N:3]([O-:4])[H:10])[C:5]([O:6][H:13])([H:11])[H:12])([H:7])([H:8])[H:9]"
C       -0.87740178       1.44313536       0.23489175
C       -0.24998163       0.09669574       0.13340015
N       -1.00779690      -0.92997632       0.12819644
O       -0.53992861      -2.08602177      -0.33483564
C        1.23993960      -0.10894754       0.22640253
O        1.75913568      -0.73118496      -0.92095652
H       -1.96157808       1.37595459       0.14455656
H       -0.61787993       1.91433645       1.18653991
H       -0.49737470       2.09506167      -0.55534230
H       -1.71424637      -1.67420216      -0.68575065
H        1.46082031      -0.69201231       1.13218256
H        1.73019741       0.86050679       0.32259373
H        1.27609498      -1.56334554      -1.01187851
