10
Frame=0 idx=003069 GeodesicLength=0.0 rxn_smarts="[N:1]([C:2](=[O:3])[C:4]([C:5]#[N:6])([H:9])[H:10])([H:7])[H:8]>>[H:7][H:9].[N:1](=[C:2]1\[O:3][C@:4]1([C:5]#[N:6])[H:10])\[H:8]"
N       -1.36361800       0.97064703       0.20535631
C       -0.91653588      -0.16553704      -0.15141423
O       -1.20680980      -1.25298204      -0.72087599
C        0.46178876      -0.54156772       0.18310835
C        1.47454045      -0.56197002      -0.82203627
N        2.31726296      -0.54557242      -1.60120241
H        0.09806181       1.24810343       0.88983372
H       -2.32723769       1.18168798      -0.01263017
H        0.86158000       0.88781992       1.01120992
H        0.60096739      -1.22062913       1.01865078
10
Frame=1 idx=003069 GeodesicLength=0.08549018792574929 rxn_smarts="[N:1]([C:2](=[O:3])[C:4]([C:5]#[N:6])([H:9])[H:10])([H:7])[H:8]>>[H:7][H:9].[N:1](=[C:2]1\[O:3][C@:4]1([C:5]#[N:6])[H:10])\[H:8]"
N       -1.35835073       0.96993155       0.20705467
C       -0.91916748      -0.17400334      -0.13908526
O       -1.21654621      -1.28377599      -0.65839914
C        0.46215606      -0.55257029       0.18602881
C        1.46405336      -0.54841053      -0.83268304
N        2.29517774      -0.50721463      -1.62323122
H        0.08111517       1.25337020       0.91824673
H       -2.28893514       1.21945457      -0.09679715
H        0.85838353       0.86885509       1.03281607
H        0.62211370      -1.24563663       1.00604953
10
Frame=2 idx=003069 GeodesicLength=0.17123056140034507 rxn_smarts="[N:1]([C:2](=[O:3])[C:4]([C:5]#[N:6])([H:9])[H:10])([H:7])[H:8]>>[H:7][H:9].[N:1](=[C:2]1\[O:3][C@:4]1([C:5]#[N:6])[H:10])\[H:8]"
N       -1.35444868       0.96849047       0.20796585
C       -0.92242791      -0.18292107      -0.12704921
O       -1.22562765      -1.31265284      -0.59624035
C        0.46192355      -0.56369129       0.18876266
C        1.45268066      -0.53499381      -0.84294373
N        2.27201520      -0.46870340      -1.64395475
H        0.06222877       1.25944390       0.94540138
H       -2.24304307       1.25472109      -0.17817326
H        0.85395157       0.85027998       1.05336562
H        0.64274757      -1.26997303       0.99286580
10
Frame=3 idx=003069 GeodesicLength=0.25734977701611317 rxn_smarts="[N:1]([C:2](=[O:3])[C:4]([C:5]#[N:6])([H:9])[H:10])([H:7])[H:8]>>[H:7][H:9].[N:1](=[C:2]1\[O:3][C@:4]1([C:5]#[N:6])[H:10])\[H:8]"
N       -1.35113656       0.96732551       0.20682695
C       -0.92619997      -0.19200570      -0.11510338
O       -1.23393010      -1.33926889      -0.53486530
C        0.46117458      -0.57491585       0.19144800
C        1.44068700      -0.52196962      -0.85253781
N        2.24747053      -0.43012753      -1.66363402
H        0.04167533       1.26657695       0.97129199
H       -2.19089461       1.28621707      -0.25579260
H        0.84851897       0.83199269       1.07319230
H        0.66263483      -1.29382463       0.97917387
10
Frame=4 idx=003069 GeodesicLength=0.3436024720308246 rxn_smarts="[N:1]([C:2](=[O:3])[C:4]([C:5]#[N:6])([H:9])[H:10])([H:7])[H:8]>>[H:7][H:9].[N:1](=[C:2]1\[O:3][C@:4]1([C:5]#[N:6])[H:10])\[H:8]"
N       -1.34874372       0.96570590       0.20425306
C       -0.93008608      -0.20084510      -0.10500459
O       -1.24142506      -1.36369311      -0.47460485
C        0.45994125      -0.58601273       0.19353794
C        1.42865949      -0.50935512      -0.86156279
N        2.22340441      -0.39299444      -1.68128588
H        0.01939433       1.27505699       0.99492331
H       -2.13456321       1.31454146      -0.32664575
H        0.84209374       0.81427004       1.09159878
H        0.68132485      -1.31667387       0.96479076
10
Frame=5 idx=003069 GeodesicLength=0.43018520062293136 rxn_smarts="[N:1]([C:2](=[O:3])[C:4]([C:5]#[N:6])([H:9])[H:10])([H:7])[H:8]>>[H:7][H:9].[N:1](=[C:2]1\[O:3][C@:4]1([C:5]#[N:6])[H:10])\[H:8]"
N       -1.34568740       0.96528486       0.19875043
C       -0.93413369      -0.20934324      -0.09499332
O       -1.24829057      -1.38544676      -0.41509854
C        0.45835853      -0.59726666       0.19556252
C        1.41645679      -0.49756180      -0.86984588
N        2.19824454      -0.35556817      -1.69788792
H       -0.00390828       1.28484581       1.01707996
H       -2.07514049       1.33807437      -0.39306440
H        0.83518225       0.79633807       1.10967909
H        0.69891832      -1.33935647       0.94981806
10
Frame=6 idx=003069 GeodesicLength=0.5170066801574057 rxn_smarts="[N:1]([C:2](=[O:3])[C:4]([C:5]#[N:6])([H:9])[H:10])([H:7])[H:8]>>[H:7][H:9].[N:1](=[C:2]1\[O:3][C@:4]1([C:5]#[N:6])[H:10])\[H:8]"
N       -1.34302337       0.96480765       0.19200681
C       -0.93811284      -0.21738663      -0.08660176
O       -1.25444545      -1.40486405      -0.35669175
C        0.45654368      -0.60845054       0.19702713
C        1.40454746      -0.48628888      -0.87762957
N        2.17376857      -0.31967460      -1.71276812
H       -0.02852696       1.29621843       1.03716056
H       -2.01403034       1.35835723      -0.45333615
H        0.82786105       0.77870028       1.12671960
H        0.71541821      -1.36141888       0.93411326
10
Frame=7 idx=003069 GeodesicLength=0.6041230938523755 rxn_smarts="[N:1]([C:2](=[O:3])[C:4]([C:5]#[N:6])([H:9])[H:10])([H:7])[H:8]>>[H:7][H:9].[N:1](=[C:2]1\[O:3][C@:4]1([C:5]#[N:6])[H:10])\[H:8]"
N       -1.34052059       0.96440577       0.18400795
C       -0.94212351      -0.22519121      -0.07895601
O       -1.25988115      -1.42207784      -0.29903886
C        0.45456762      -0.61963587       0.19813982
C        1.39273697      -0.47534943      -0.88497913
N        2.14925415      -0.28471533      -1.72650690
H       -0.05457768       1.30901751       1.05571400
H       -1.95080955       1.37558542      -0.50910692
H        0.82025213       0.76113109       1.14309944
H        0.73110161      -1.38317010       0.91762662
10
Frame=8 idx=003069 GeodesicLength=0.6914860228310723 rxn_smarts="[N:1]([C:2](=[O:3])[C:4]([C:5]#[N:6])([H:9])[H:10])([H:7])[H:8]>>[H:7][H:9].[N:1](=[C:2]1\[O:3][C@:4]1([C:5]#[N:6])[H:10])\[H:8]"
N       -1.33784806       0.96425626       0.17461355
C       -0.94602131      -0.23260863      -0.07224778
O       -1.26468614      -1.43698841      -0.24193322
C        0.45250632      -0.63084352       0.19881777
C        1.38120296      -0.46486592      -0.89195365
N        2.12510516      -0.25072206      -1.73900636
H       -0.08196872       1.32328619       1.07273803
H       -1.88677773       1.38975202      -0.56018585
H        0.81259819       0.74344812       1.15887707
H        0.74588935      -1.40471406       0.90028043
10
Frame=9 idx=003069 GeodesicLength=0.7790685614717381 rxn_smarts="[N:1]([C:2](=[O:3])[C:4]([C:5]#[N:6])([H:9])[H:10])([H:7])[H:8]>>[H:7][H:9].[N:1](=[C:2]1\[O:3][C@:4]1([C:5]#[N:6])[H:10])\[H:8]"
N       -1.33462500       0.96456163       0.16374115
C       -0.94972560      -0.23955740      -0.06628899
O       -1.26892138      -1.44945498      -0.18514126
C        0.45042529      -0.64213386       0.19906687
C        1.37001849      -0.45490911      -0.89859090
N        2.10137078      -0.21743268      -1.75029261
H       -0.11059894       1.33907090       1.08831152
H       -1.82281710       1.40075714      -0.60701996
H        0.80512134       0.72536229       1.17425270
H        0.75975212      -1.42626393       0.88196148
10
Frame=10 idx=003069 GeodesicLength=0.866889585284637 rxn_smarts="[N:1]([C:2](=[O:3])[C:4]([C:5]#[N:6])([H:9])[H:10])([H:7])[H:8]>>[H:7][H:9].[N:1](=[C:2]1\[O:3][C@:4]1([C:5]#[N:6])[H:10])\[H:8]"
N       -1.33122464       0.96491045       0.15189322
C       -0.95326295      -0.24622692      -0.06102487
O       -1.27245944      -1.45970096      -0.12859623
C        0.44838104      -0.65347040       0.19889117
C        1.35916339      -0.44523746      -0.90496087
N        2.07804739      -0.18512212      -1.76061086
H       -0.14091070       1.35635893       1.10260957
H       -1.75847300       1.40932078      -0.64999005
H        0.79790097       0.70698000       1.18914810
H        0.77283793      -1.44781229       0.86264083
10
Frame=11 idx=003069 GeodesicLength=0.9549755014197284 rxn_smarts="[N:1]([C:2](=[O:3])[C:4]([C:5]#[N:6])([H:9])[H:10])([H:7])[H:8]>>[H:7][H:9].[N:1](=[C:2]1\[O:3][C@:4]1([C:5]#[N:6])[H:10])\[H:8]"
N       -1.32761645       0.96525871       0.13914937
C       -0.95662293      -0.25267587      -0.05622456
O       -1.27523074      -1.46775390      -0.07219875
C        0.44642141      -0.66487178       0.19833886
C        1.34863372      -0.43577726      -0.91106856
N        2.05499178      -0.15370100      -1.77014159
H       -0.17316025       1.37520615       1.11572956
H       -1.69366887       1.41561533      -0.68948612
H        0.79108085       0.68818951       1.20366419
H        0.78517147      -1.46948990       0.84223760
10
Frame=12 idx=003069 GeodesicLength=1.043336442195625 rxn_smarts="[N:1]([C:2](=[O:3])[C:4]([C:5]#[N:6])([H:9])[H:10])([H:7])[H:8]>>[H:7][H:9].[N:1](=[C:2]1\[O:3][C@:4]1([C:5]#[N:6])[H:10])\[H:8]"
N       -1.32363874       0.96566155       0.12550870
C       -0.95975044      -0.25888333      -0.05175396
O       -1.27720821      -1.47355551      -0.01582922
C        0.44459818      -0.67638401       0.19741996
C        1.33847805      -0.42655344      -0.91692451
N        2.03222846      -0.12303922      -1.77891641
H       -0.20751088       1.39574513       1.12766681
H       -1.62878248       1.41967922      -0.72573006
H        0.78488404       0.66879714       1.21791338
H        0.79670201      -1.49146753       0.82064532
10
Frame=13 idx=003069 GeodesicLength=1.131961056251826 rxn_smarts="[N:1]([C:2](=[O:3])[C:4]([C:5]#[N:6])([H:9])[H:10])([H:7])[H:8]>>[H:7][H:9].[N:1](=[C:2]1\[O:3][C@:4]1([C:5]#[N:6])[H:10])\[H:8]"
N       -1.31916242       0.96613812       0.11103352
C       -0.96257648      -0.26482410      -0.04749605
O       -1.27833503      -1.47703954       0.04058634
C        0.44296712      -0.68805179       0.19614038
C        1.32876356      -0.41757610      -0.92252363
N        2.00983198      -0.09307542      -1.78693724
H       -0.24415544       1.41817520       1.13833827
H       -1.56424466       1.42158417      -0.75888171
H        0.77955384       0.64859241       1.23200823
H        0.80735753      -1.51392295       0.79773188
10
Frame=14 idx=003069 GeodesicLength=1.2209282502936887 rxn_smarts="[N:1]([C:2](=[O:3])[C:4]([C:5]#[N:6])([H:9])[H:10])([H:7])[H:8]>>[H:7][H:9].[N:1](=[C:2]1\[O:3][C@:4]1([C:5]#[N:6])[H:10])\[H:8]"
N       -1.31423398       0.96659749       0.09582198
C       -0.96508423      -0.27055102      -0.04322499
O       -1.27848171      -1.47825309       0.09715365
C        0.44157776      -0.69988554       0.19453948
C        1.31946106      -0.40875656      -0.92787937
N        1.98761547      -0.06380359      -1.79440557
H       -0.28368496       1.44258707       1.14786882
H       -1.49960427       1.42153505      -0.78922894
H        0.77530558       0.62749337       1.24597857
H        0.81712929      -1.53696318       0.77337635
10
Frame=15 idx=003069 GeodesicLength=1.3102913564629814 rxn_smarts="[N:1]([C:2](=[O:3])[C:4]([C:5]#[N:6])([H:9])[H:10])([H:7])[H:8]>>[H:7][H:9].[N:1](=[C:2]1\[O:3][C@:4]1([C:5]#[N:6])[H:10])\[H:8]"
N       -1.30879934       0.96701986       0.07993730
C       -0.96720993      -0.27605162      -0.03874426
O       -1.27752209      -1.47717555       0.15393214
C        0.44049088      -0.71191752       0.19264454
C        1.31059646      -0.40006812      -0.93298247
N        1.96550722      -0.03521698      -1.80142312
H       -0.32665173       1.46918892       1.15621843
H       -1.43477897       1.41963652      -0.81689380
H        0.77242988       0.60532939       1.25989449
H        0.82593761      -1.56074489       0.74741674
10
Frame=16 idx=003069 GeodesicLength=1.4001093118584995 rxn_smarts="[N:1]([C:2](=[O:3])[C:4]([C:5]#[N:6])([H:9])[H:10])([H:7])[H:8]>>[H:7][H:9].[N:1](=[C:2]1\[O:3][C@:4]1([C:5]#[N:6])[H:10])\[H:8]"
N       -1.30276670       0.96740681       0.06344230
C       -0.96886519      -0.28128525      -0.03384268
O       -1.27531457      -1.47376878       0.21098570
C        0.43977650      -0.72419323       0.19047813
C        1.30220734      -0.39151316      -0.93782510
N        1.94345462      -0.00730705      -1.80806791
H       -0.37372244       1.49823696       1.16328841
H       -1.36972157       1.41597975      -0.84194436
H        0.77128500       0.58188685       1.27382657
H        0.83366701      -1.58544289       0.71965894
