11
Frame=0 idx=007327 GeodesicLength=0.0 rxn_smarts="[N:1]([c:2]1[c:3]([H:10])[o:4][c:5](=[O:6])[n:7]1[H:11])([H:8])[H:9]>>[N:1]([C@@:3]1([H:10])[C-:2]=[N+:7]([H:11])[C:5](=[O:6])[O:4]1)([H:8])[H:9]"
N       -1.50184508       0.07356725      -0.33743173
C       -0.56244995      -0.21479861       0.82444622
C       -0.14188586       1.06076704       0.36844583
O        1.01791195       1.06077994      -0.27722445
C        1.53056388      -0.27763801      -0.20665039
O        2.61613228      -0.54539262      -0.60705016
N        0.55102313      -1.00340824       0.37641957
H       -1.20482380      -0.21803898      -1.25714394
H       -2.48332157      -0.04036680      -0.14865296
H       -0.58054748       2.03008441       0.55116299
H        0.75924253      -1.92555541       0.71367899
11
Frame=1 idx=007327 GeodesicLength=0.0633778029846353 rxn_smarts="[N:1]([c:2]1[c:3]([H:10])[o:4][c:5](=[O:6])[n:7]1[H:11])([H:8])[H:9]>>[N:1]([C@@:3]1([H:10])[C-:2]=[N+:7]([H:11])[C:5](=[O:6])[O:4]1)([H:8])[H:9]"
N       -1.51127597       0.06716468      -0.34474860
C       -0.55447453      -0.22086425       0.81971804
C       -0.14910953       1.05500280       0.35278003
O        1.02206116       1.05615666      -0.28403821
C        1.54006591      -0.27290736      -0.20265385
O        2.63182801      -0.54231848      -0.58556070
N        0.55912579      -1.00328972       0.38036415
H       -1.23607315      -0.21050380      -1.27493834
H       -2.48920931      -0.02477004      -0.12954102
H       -0.57751379       2.02449197       0.55649810
H        0.76457541      -1.92816245       0.71212040
11
Frame=2 idx=007327 GeodesicLength=0.12667084252967756 rxn_smarts="[N:1]([c:2]1[c:3]([H:10])[o:4][c:5](=[O:6])[n:7]1[H:11])([H:8])[H:9]>>[N:1]([C@@:3]1([H:10])[C-:2]=[N+:7]([H:11])[C:5](=[O:6])[O:4]1)([H:8])[H:9]"
N       -1.52080762       0.06033309      -0.35226134
C       -0.54653791      -0.22693002       0.81495437
C       -0.15643245       1.04895732       0.33691330
O        1.02613083       1.05141672      -0.29087633
C        1.54986016      -0.26795767      -0.19774945
O        2.64685868      -0.53920740      -0.56491317
N        0.56745574      -1.00307632       0.38492557
H       -1.26823289      -0.20194038      -1.29274036
H       -2.49412867      -0.00911953      -0.11102170
H       -0.57426221       2.01821299       0.56177436
H        0.77009634      -1.93068879       0.71099474
11
Frame=3 idx=007327 GeodesicLength=0.18993955299359158 rxn_smarts="[N:1]([c:2]1[c:3]([H:10])[o:4][c:5](=[O:6])[n:7]1[H:11])([H:8])[H:9]>>[N:1]([C@@:3]1([H:10])[C-:2]=[N+:7]([H:11])[C:5](=[O:6])[O:4]1)([H:8])[H:9]"
N       -1.53052323       0.05311984      -0.35990158
C       -0.53860178      -0.23301179       0.81014222
C       -0.16380874       1.04260980       0.32080672
O        1.03009568       1.04650049      -0.29795102
C        1.55989926      -0.26283554      -0.19215957
O        2.66158309      -0.53593126      -0.54451122
N        0.57600169      -1.00280245       0.38998888
H       -1.30155348      -0.19218191      -1.31043979
H       -2.49813066       0.00649109      -0.09292834
H       -0.57073748       2.01124906       0.56684331
H        0.77577564      -1.93320733       0.71011039
11
Frame=4 idx=007327 GeodesicLength=0.25317108703925933 rxn_smarts="[N:1]([c:2]1[c:3]([H:10])[o:4][c:5](=[O:6])[n:7]1[H:11])([H:8])[H:9]>>[N:1]([C@@:3]1([H:10])[C-:2]=[N+:7]([H:11])[C:5](=[O:6])[O:4]1)([H:8])[H:9]"
N       -1.54040196       0.04552128      -0.36767518
C       -0.53066430      -0.23912168       0.80529518
C       -0.17121960       1.03594226       0.30450411
O        1.03395341       1.04138361      -0.30526210
C        1.57018668      -0.25751201      -0.18581288
O        2.67599762      -0.53250776      -0.52439972
N        0.58477221      -1.00245591       0.39559835
H       -1.33608752      -0.18109293      -1.32794504
H       -2.50118763       0.02197096      -0.07532225
H       -0.56695479       2.00359879       0.57158622
H        0.78160589      -1.93572660       0.70943332
11
Frame=5 idx=007327 GeodesicLength=0.31636444471369085 rxn_smarts="[N:1]([c:2]1[c:3]([H:10])[o:4][c:5](=[O:6])[n:7]1[H:11])([H:8])[H:9]>>[N:1]([C@@:3]1([H:10])[C-:2]=[N+:7]([H:11])[C:5](=[O:6])[O:4]1)([H:8])[H:9]"
N       -1.55042955       0.03755254      -0.37559594
C       -0.52272458      -0.24527326       0.80042040
C       -0.17864125       1.02893803       0.28804401
O        1.03770878       1.03603759      -0.31282220
C        1.58072409      -0.25196325      -0.17866047
O        2.69012648      -0.52894879      -0.50457357
N        0.59377506      -1.00202723       0.40178960
H       -1.37189836      -0.16853782      -1.34514492
H       -2.50328249       0.03720905      -0.05824216
H       -0.56293317       1.99527536       0.57587517
H        0.78757498      -1.93826222       0.70891009
11
Frame=6 idx=007327 GeodesicLength=0.3795178823743559 rxn_smarts="[N:1]([c:2]1[c:3]([H:10])[o:4][c:5](=[O:6])[n:7]1[H:11])([H:8])[H:9]>>[N:1]([C@@:3]1([H:10])[C-:2]=[N+:7]([H:11])[C:5](=[O:6])[O:4]1)([H:8])[H:9]"
N       -1.56058656       0.02923803      -0.38369089
C       -0.51478484      -0.25147740       0.79552285
C       -0.18604834       1.02158400       0.27146382
O        1.04137453       1.03043430      -0.32063604
C        1.59151910      -0.24615796      -0.17063373
O        2.70398119      -0.52527822      -0.48504995
N        0.60301935      -1.00150120       0.40860945
H       -1.40903583      -0.15439483      -1.36190834
H       -2.50440175       0.05207718      -0.04173110
H       -0.55869975       1.98630677       0.57958046
H        0.79366289      -1.94083068       0.70847347
11
Frame=7 idx=007327 GeodesicLength=0.4426233770457339 rxn_smarts="[N:1]([c:2]1[c:3]([H:10])[o:4][c:5](=[O:6])[n:7]1[H:11])([H:8])[H:9]>>[N:1]([C@@:3]1([H:10])[C-:2]=[N+:7]([H:11])[C:5](=[O:6])[O:4]1)([H:8])[H:9]"
N       -1.57081558       0.02059525      -0.39203222
C       -0.50687034      -0.25773881       0.79062361
C       -0.19342664       1.01388033       0.25483080
O        1.04498780       1.02457459      -0.32860873
C        1.60260986      -0.24002088      -0.16152446
O        2.71744507      -0.52161940      -0.46615564
N        0.61252273      -1.00083896       0.41618504
H       -1.44745489      -0.13856013      -1.37811513
H       -2.50452387       0.06641393      -0.02592227
H       -0.55432793       1.97674063       0.58259649
H        0.79985378      -1.94342655       0.70812252
11
Frame=8 idx=007327 GeodesicLength=0.5056715914036138 rxn_smarts="[N:1]([c:2]1[c:3]([H:10])[o:4][c:5](=[O:6])[n:7]1[H:11])([H:8])[H:9]>>[N:1]([C@@:3]1([H:10])[C-:2]=[N+:7]([H:11])[C:5](=[O:6])[O:4]1)([H:8])[H:9]"
N       -1.58108164       0.01168210      -0.40068859
C       -0.49898718      -0.26405834       0.78571625
C       -0.20074542       1.00581941       0.23817687
O        1.04857481       1.01843161      -0.33670997
C        1.61400019      -0.23349829      -0.15122148
O        2.73048234      -0.51803780      -0.44798013
N        0.62228963      -1.00000256       0.42458553
H       -1.48714660      -0.12096833      -1.39360485
H       -2.50363849       0.08005490      -0.01085740
H       -0.54985850       1.96661783       0.58481041
H        0.80611086      -1.94604054       0.70777336
11
Frame=9 idx=007327 GeodesicLength=0.5686459718338248 rxn_smarts="[N:1]([c:2]1[c:3]([H:10])[o:4][c:5](=[O:6])[n:7]1[H:11])([H:8])[H:9]>>[N:1]([C@@:3]1([H:10])[C-:2]=[N+:7]([H:11])[C:5](=[O:6])[O:4]1)([H:8])[H:9]"
N       -1.59125337       0.00251965      -0.40982377
C       -0.49120397      -0.27041950       0.78085801
C       -0.20800781       0.99743907       0.22162566
O        1.05222625       1.01207996      -0.34463686
C        1.62578833      -0.22640972      -0.13923501
O        2.74273017      -0.51488620      -0.43147455
N        0.63235231      -0.99889245       0.43410117
H       -1.52785799      -0.10160829      -1.40829260
H       -2.50172844       0.09276626       0.00317024
H       -0.54545834       1.95603029       0.58618168
H        0.81241286      -1.94861908       0.70752603
11
Frame=10 idx=007327 GeodesicLength=0.6315189061405424 rxn_smarts="[N:1]([c:2]1[c:3]([H:10])[o:4][c:5](=[O:6])[n:7]1[H:11])([H:8])[H:9]>>[N:1]([C@@:3]1([H:10])[C-:2]=[N+:7]([H:11])[C:5](=[O:6])[O:4]1)([H:8])[H:9]"
N       -1.60114683      -0.00685277      -0.41966381
C       -0.48359878      -0.27678967       0.77611938
C       -0.21521785       0.98879083       0.20533390
O        1.05605376       1.00563555      -0.35194970
C        1.63808365      -0.21851000      -0.12494236
O        2.75363991      -0.51266270      -0.41793509
N        0.64274948      -0.99735307       0.44511048
H       -1.56918786      -0.08055996      -1.42213906
H       -2.49876782       0.10428250       0.01580484
H       -0.54134262       1.94506295       0.58672695
H        0.81873497      -1.95104365       0.70753447
11
Frame=11 idx=007327 GeodesicLength=0.6943210719523552 rxn_smarts="[N:1]([c:2]1[c:3]([H:10])[o:4][c:5](=[O:6])[n:7]1[H:11])([H:8])[H:9]>>[N:1]([C@@:3]1([H:10])[C-:2]=[N+:7]([H:11])[C:5](=[O:6])[O:4]1)([H:8])[H:9]"
N       -1.61098758      -0.01627219      -0.43002723
C       -0.47603044      -0.28318146       0.77135596
C       -0.22225335       0.97981695       0.18904256
O        1.05999824       0.99886158      -0.35930866
C        1.65068548      -0.21003548      -0.10923578
O        2.76402592      -0.51075286      -0.40518267
N        0.65342426      -0.99547719       0.45717395
H       -1.61169694      -0.05789512      -1.43471775
H       -2.49489348       0.11462959       0.02761249
H       -0.53721047       1.93376123       0.58623436
H        0.82493836      -1.95345507       0.70705278
11
Frame=12 idx=007327 GeodesicLength=0.7570989458543114 rxn_smarts="[N:1]([c:2]1[c:3]([H:10])[o:4][c:5](=[O:6])[n:7]1[H:11])([H:8])[H:9]>>[N:1]([C@@:3]1([H:10])[C-:2]=[N+:7]([H:11])[C:5](=[O:6])[O:4]1)([H:8])[H:9]"
N       -1.62112755      -0.02552641      -0.44064821
C       -0.46834247      -0.28963941       0.76634559
C       -0.22898775       0.97042317       0.17240106
O        1.06396464       0.99141670      -0.36761568
C        1.66331112      -0.20136905      -0.09333674
O        2.77505140      -0.50822106      -0.39029438
N        0.66427073      -0.99346476       0.46963460
H       -1.65613986      -0.03367995      -1.44548264
H       -2.49026602       0.12395909       0.03933056
H       -0.53262830       1.92214356       0.58444380
H        0.83089406      -1.95604187       0.70522202
11
Frame=13 idx=007327 GeodesicLength=0.8198760194910967 rxn_smarts="[N:1]([c:2]1[c:3]([H:10])[o:4][c:5](=[O:6])[n:7]1[H:11])([H:8])[H:9]>>[N:1]([C@@:3]1([H:10])[C-:2]=[N+:7]([H:11])[C:5](=[O:6])[O:4]1)([H:8])[H:9]"
N       -1.63167890      -0.03445358      -0.45151250
C       -0.46052818      -0.29617948       0.76099485
C       -0.23537721       0.96059070       0.15531837
O        1.06798648       0.98318452      -0.37705500
C        1.67587502      -0.19259370      -0.07750470
O        2.78698688      -0.50481671      -0.37256790
N        0.67522628      -0.99137029       0.48233461
H       -1.70261057      -0.00808693      -1.45413069
H       -2.48495976       0.13227876       0.05110390
H       -0.52746760       1.91025148       0.58127060
H        0.83654756      -1.95880476       0.70174845
11
Frame=14 idx=007327 GeodesicLength=0.8826269892554752 rxn_smarts="[N:1]([c:2]1[c:3]([H:10])[o:4][c:5](=[O:6])[n:7]1[H:11])([H:8])[H:9]>>[N:1]([C@@:3]1([H:10])[C-:2]=[N+:7]([H:11])[C:5](=[O:6])[O:4]1)([H:8])[H:9]"
N       -1.64264678      -0.04289783      -0.46274864
C       -0.45264771      -0.30285939       0.75522743
C       -0.24143530       0.95031935       0.13784007
O        1.07212141       0.97416200      -0.38743850
C        1.68835060      -0.18368386      -0.06163021
O        2.79963900      -0.50063146      -0.35241813
N        0.68623669      -0.98922993       0.49525583
H       -1.75083745       0.01875566      -1.46053341
H       -2.47901374       0.13957889       0.06278988
H       -0.52178409       1.89809304       0.57678086
H        0.84201736      -1.96160646       0.69687483
11
Frame=15 idx=007327 GeodesicLength=0.9452775484313044 rxn_smarts="[N:1]([c:2]1[c:3]([H:10])[o:4][c:5](=[O:6])[n:7]1[H:11])([H:8])[H:9]>>[N:1]([C@@:3]1([H:10])[C-:2]=[N+:7]([H:11])[C:5](=[O:6])[O:4]1)([H:8])[H:9]"
N       -1.65404797      -0.05076634      -0.47439854
C       -0.44474579      -0.30971981       0.74896279
C       -0.24716975       0.93959044       0.11993682
O        1.07640380       0.96426745      -0.39877146
C        1.70069559      -0.17464601      -0.04570766
O        2.81296887      -0.49561085      -0.32981506
N        0.69722215      -0.98710841       0.50826397
H       -1.80064399       0.04677790      -1.46450307
H       -2.47245211       0.14588873       0.07439107
H       -0.51560194       1.88569404       0.57097346
H        0.84737113      -1.96436713       0.69066769
11
Frame=16 idx=007327 GeodesicLength=1.007944970962213 rxn_smarts="[N:1]([c:2]1[c:3]([H:10])[o:4][c:5](=[O:6])[n:7]1[H:11])([H:8])[H:9]>>[N:1]([C@@:3]1([H:10])[C-:2]=[N+:7]([H:11])[C:5](=[O:6])[O:4]1)([H:8])[H:9]"
N       -1.66598208      -0.05778350      -0.48658179
C       -0.43683293      -0.31684684       0.74204034
C       -0.25255061       0.92835476       0.10166104
O        1.08088590       0.95347850      -0.41083647
C        1.71282727      -0.16547889      -0.02977489
O        2.82674332      -0.48976988      -0.30502707
N        0.70808471      -0.98504127       0.52111972
H       -1.85182692       0.07578498      -1.46598908
H       -2.46534677       0.15123951       0.08576518
H       -0.50882539       1.87288637       0.56402108
H        0.85282352      -1.96682373       0.68360193
