15
Frame=0 idx=011186 GeodesicLength=0.0 rxn_smarts="[C:1]([C@@:2]1([H:11])[O:3][C@@:4]2([H:12])[C:5]([H:13])([H:14])[C@@:6]12[O:7][H:15])([H:8])([H:9])[H:10]>>[C:1]([C@@:2]1([H:11])[O:3][C@:4]1([C:5]([C:6][O:7][H:15])([H:13])[H:14])[H:12])([H:8])([H:9])[H:10]"
C       -1.90194154      -0.14589313      -0.12937524
C       -0.67717530       0.62415615       0.27366213
O       -0.36534560       0.42401876       1.65005527
C        0.81010250       0.28936639       0.94271348
C        1.31843049      -0.97270758       0.40119910
C        0.67022476      -0.35718162      -0.82056474
O        1.57415272       0.47016014      -1.44295057
H       -1.76205571      -1.21058665       0.04575703
H       -2.75465929       0.20397076       0.46177304
H       -2.09985184       0.00589355      -1.18914815
H       -0.69304380       1.68099992       0.00521379
H        1.46937284       1.15117111       0.93937259
H        2.40110596      -1.03613000       0.36611894
H        0.84002435      -1.87731570       0.76169899
H        1.17065948       0.75007789      -2.26552565
15
Frame=1 idx=011186 GeodesicLength=0.061216184819575845 rxn_smarts="[C:1]([C@@:2]1([H:11])[O:3][C@@:4]2([H:12])[C:5]([H:13])([H:14])[C@@:6]12[O:7][H:15])([H:8])([H:9])[H:10]>>[C:1]([C@@:2]1([H:11])[O:3][C@:4]1([C:5]([C:6][O:7][H:15])([H:13])[H:14])[H:12])([H:8])([H:9])[H:10]"
C       -1.90592502      -0.14957378      -0.12090682
C       -0.68486687       0.62749304       0.28165589
O       -0.36658635       0.41990034       1.65651296
C        0.80954725       0.29768623       0.94495546
C        1.31253372      -0.96445691       0.39375126
C        0.67871869      -0.32952568      -0.82374805
O        1.59434432       0.47217301      -1.45649579
H       -1.75726794      -1.21429494       0.04758815
H       -2.76087536       0.18972488       0.47276215
H       -2.11105140       0.00795707      -1.17868214
H       -0.71539500       1.68666265       0.02318674
H        1.47216831       1.15656842       0.96393169
H        2.39503575      -1.03602452       0.36645392
H        0.82046194      -1.86915368       0.73592524
H        1.21915795       0.70486387      -2.30689066
15
Frame=2 idx=011186 GeodesicLength=0.12076671160013236 rxn_smarts="[C:1]([C@@:2]1([H:11])[O:3][C@@:4]2([H:12])[C:5]([H:13])([H:14])[C@@:6]12[O:7][H:15])([H:8])([H:9])[H:10]>>[C:1]([C@@:2]1([H:11])[O:3][C@:4]1([C:5]([C:6][O:7][H:15])([H:13])[H:14])[H:12])([H:8])([H:9])[H:10]"
C       -1.90975629      -0.15314259      -0.11274105
C       -0.69252718       0.63093867       0.28956558
O       -0.36769052       0.41573764       1.66276855
C        0.80907422       0.30633040       0.94704791
C        1.30668655      -0.95573615       0.38592277
C        0.68733509      -0.30118374      -0.82680530
O        1.61436902       0.47310125      -1.47113067
H       -1.75233694      -1.21779877       0.04898134
H       -2.76689364       0.17542579       0.48340077
H       -2.12204580       0.01013586      -1.16844491
H       -0.73795099       1.69222167       0.04147679
H        1.47509660       1.16163640       0.98878806
H        2.38888664      -1.03560314       0.36626786
H        0.80131062      -1.86020871       0.70958191
H        1.26644262       0.65814542      -2.34467962
15
Frame=3 idx=011186 GeodesicLength=0.1787959212343929 rxn_smarts="[C:1]([C@@:2]1([H:11])[O:3][C@@:4]2([H:12])[C:5]([H:13])([H:14])[C@@:6]12[O:7][H:15])([H:8])([H:9])[H:10]>>[C:1]([C@@:2]1([H:11])[O:3][C@:4]1([C:5]([C:6][O:7][H:15])([H:13])[H:14])[H:12])([H:8])([H:9])[H:10]"
C       -1.91336402      -0.15658457      -0.10496231
C       -0.70008907       0.63448295       0.29736497
O       -0.36866420       0.41152489       1.66880950
C        0.80870942       0.31527853       0.94905025
C        1.30093363      -0.94656745       0.37780488
C        0.69618116      -0.27220090      -0.82966849
O        1.63421581       0.47275452      -1.48685806
H       -1.74722380      -1.22108162       0.04987963
H       -2.77266510       0.16112389       0.49354628
H       -2.13270313       0.01243624      -1.15853540
H       -0.76060479       1.69764608       0.06004487
H        1.47818791       1.16630683       1.01401661
H        2.38270319      -1.03488691       0.36567044
H        0.78260569      -1.85049484       0.68277945
H        1.31177730       0.61026234      -2.37894262
15
Frame=4 idx=011186 GeodesicLength=0.23531238516158598 rxn_smarts="[C:1]([C@@:2]1([H:11])[O:3][C@@:4]2([H:12])[C:5]([H:13])([H:14])[C@@:6]12[O:7][H:15])([H:8])([H:9])[H:10]>>[C:1]([C@@:2]1([H:11])[O:3][C@:4]1([C:5]([C:6][O:7][H:15])([H:13])[H:14])[H:12])([H:8])([H:9])[H:10]"
C       -1.91663628      -0.15990608      -0.09769622
C       -0.70742601       0.63809646       0.30493416
O       -0.36949289       0.40736129       1.67456297
C        0.80851496       0.32449934       0.95099783
C        1.29532710      -0.93705679       0.36959470
C        0.70542200      -0.24280077      -0.83224163
O        1.65395889       0.47064387      -1.50370211
H       -1.74188900      -1.22414093       0.05030352
H       -2.77810696       0.14694213       0.50296009
H       -2.14281893       0.01473981      -1.14912092
H       -0.78314450       1.70286664       0.07863904
H        1.48153388       1.17048414       1.03960062
H        2.37653435      -1.03401543       0.36490140
H        0.76435004      -1.84006511       0.65580760
H        1.35387335       0.56235143      -2.40954105
15
Frame=5 idx=011186 GeodesicLength=0.29072627279327545 rxn_smarts="[C:1]([C@@:2]1([H:11])[O:3][C@@:4]2([H:12])[C:5]([H:13])([H:14])[C@@:6]12[O:7][H:15])([H:8])([H:9])[H:10]>>[C:1]([C@@:2]1([H:11])[O:3][C@:4]1([C:5]([C:6][O:7][H:15])([H:13])[H:14])[H:12])([H:8])([H:9])[H:10]"
C       -1.91959011      -0.16308161      -0.09090508
C       -0.71460119       0.64181419       0.31242564
O       -0.37024986       0.40308650       1.68015068
C        0.80842919       0.33399431       0.95302768
C        1.28986786      -0.92706887       0.36119679
C        0.71508772      -0.21263852      -0.83450078
O        1.67342905       0.46715148      -1.52151070
H       -1.73629598      -1.22696145       0.05017160
H       -2.78325746       0.13278964       0.51170905
H       -2.15240321       0.01717611      -1.14015180
H       -0.80567816       1.70793372       0.09756565
H        1.48502757       1.17413132       1.06587248
H        2.37038171      -1.03281327       0.36387832
H        0.74658147      -1.82886764       0.62838268
H        1.39327140       0.51335410      -2.43731222
15
Frame=6 idx=011186 GeodesicLength=0.34497449412187114 rxn_smarts="[C:1]([C@@:2]1([H:11])[O:3][C@@:4]2([H:12])[C:5]([H:13])([H:14])[C@@:6]12[O:7][H:15])([H:8])([H:9])[H:10]>>[C:1]([C@@:2]1([H:11])[O:3][C@:4]1([C:5]([C:6][O:7][H:15])([H:13])[H:14])[H:12])([H:8])([H:9])[H:10]"
C       -1.92206148      -0.16608330      -0.08480561
C       -0.72145355       0.64560334       0.31974057
O       -0.37094169       0.39874660       1.68552391
C        0.80852961       0.34372759       0.95524420
C        1.28467474      -0.91671182       0.35291078
C        0.72540037      -0.18200127      -0.83625064
O        1.69262033       0.46164752      -1.54037137
H       -1.73035192      -1.22951835       0.04932205
H       -2.78801439       0.11877258       0.51944677
H       -2.16115836       0.01977805      -1.13187785
H       -0.82796410       1.71278399       0.11662998
H        1.48873019       1.17717284       1.09283218
H        2.36436262      -1.03137608       0.36291755
H        0.72939087      -1.81695602       0.60092007
H        1.42823676       0.46441434      -2.46218258
15
Frame=7 idx=011186 GeodesicLength=0.39834246584723065 rxn_smarts="[C:1]([C@@:2]1([H:11])[O:3][C@@:4]2([H:12])[C:5]([H:13])([H:14])[C@@:6]12[O:7][H:15])([H:8])([H:9])[H:10]>>[C:1]([C@@:2]1([H:11])[O:3][C@:4]1([C:5]([C:6][O:7][H:15])([H:13])[H:14])[H:12])([H:8])([H:9])[H:10]"
C       -1.92408130      -0.16890771      -0.07932170
C       -0.72805604       0.64950442       0.32698380
O       -0.37162254       0.39424539       1.69075598
C        0.80875269       0.35371736       0.95772456
C        1.27972033      -0.90584343       0.34459116
C        0.73637915      -0.15052478      -0.83750848
O        1.71131598       0.45453681      -1.56012322
H       -1.72402600      -1.23180583       0.04778493
H       -2.79240941       0.10480339       0.52628551
H       -2.16913856       0.02256928      -1.12421516
H       -0.85013210       1.71745785       0.13604607
H        1.49254931       1.17953517       1.12079003
H        2.35844551      -1.02955668       0.36189153
H        0.71277447      -1.80425199       0.57306593
H        1.45952853       0.41452076      -2.48475095
15
Frame=8 idx=011186 GeodesicLength=0.4508355924421455 rxn_smarts="[C:1]([C@@:2]1([H:11])[O:3][C@@:4]2([H:12])[C:5]([H:13])([H:14])[C@@:6]12[O:7][H:15])([H:8])([H:9])[H:10]>>[C:1]([C@@:2]1([H:11])[O:3][C@:4]1([C:5]([C:6][O:7][H:15])([H:13])[H:14])[H:12])([H:8])([H:9])[H:10]"
C       -1.92550365      -0.17153651      -0.07465443
C       -0.73426901       0.65349679       0.33408291
O       -0.37231283       0.38961306       1.69583435
C        0.80916718       0.36393889       0.96060534
C        1.27511932      -0.89454111       0.33651908
C        0.74825323      -0.11840726      -0.83807979
O        1.72944579       0.44524654      -1.58083844
H       -1.71722783      -1.23381245       0.04541355
H       -2.79636558       0.09095417       0.53190072
H       -2.17606804       0.02557429      -1.11740955
H       -0.87197678       1.72191318       0.15565734
H        1.49652554       1.18115206       1.14981396
H        2.35274898      -1.02741141       0.36110170
H        0.69681819      -1.79079664       0.54517180
H        1.48564547       0.36461640      -2.50511852
15
Frame=9 idx=011186 GeodesicLength=0.5025912236110454 rxn_smarts="[C:1]([C@@:2]1([H:11])[O:3][C@@:4]2([H:12])[C:5]([H:13])([H:14])[C@@:6]12[O:7][H:15])([H:8])([H:9])[H:10]>>[C:1]([C@@:2]1([H:11])[O:3][C@:4]1([C:5]([C:6][O:7][H:15])([H:13])[H:14])[H:12])([H:8])([H:9])[H:10]"
C       -1.92625453      -0.17393944      -0.07088448
C       -0.74006838       0.65760243       0.34108689
O       -0.37306274       0.38476627       1.70080295
C        0.80976503       0.37439949       0.96401755
C        1.27093605      -0.88272777       0.32874517
C        0.76115636      -0.08549375      -0.83784879
O        1.74674320       0.43373279      -1.60249874
H       -1.70985036      -1.23551087       0.04204822
H       -2.79984793       0.07716672       0.53618574
H       -2.18182791       0.02891915      -1.11153714
H       -0.89350256       1.72616362       0.17558782
H        1.50058397       1.18196296       1.18013400
H        2.34733782      -1.02482567       0.36059638
H        0.68161063      -1.77653776       0.51717844
H        1.50628133       0.31432183      -2.52361402
15
Frame=10 idx=011186 GeodesicLength=0.5537787111609405 rxn_smarts="[C:1]([C@@:2]1([H:11])[O:3][C@@:4]2([H:12])[C:5]([H:13])([H:14])[C@@:6]12[O:7][H:15])([H:8])([H:9])[H:10]>>[C:1]([C@@:2]1([H:11])[O:3][C@:4]1([C:5]([C:6][O:7][H:15])([H:13])[H:14])[H:12])([H:8])([H:9])[H:10]"
C       -1.92626452      -0.17606922      -0.06810158
C       -0.74545133       0.66185794       0.34809206
O       -0.37392277       0.37955612       1.70573232
C        0.81053170       0.38511959       0.96811412
C        1.26725001      -0.87026025       0.32126079
C        0.77521285      -0.05149533      -0.83669708
O        1.76279818       0.42010423      -1.62514407
H       -1.70176316      -1.23685592       0.03744212
H       -2.80282588       0.06332858       0.53904664
H       -2.18631741       0.03281146      -1.10666819
H       -0.91476000       1.73023689       0.19607013
H        1.50463042       1.18190277       1.21203866
H        2.34229992      -1.02159673       0.36033387
H        0.66727381      -1.76137412       0.48890852
H        1.52130816       0.26273398      -2.54042832
15
Frame=11 idx=011186 GeodesicLength=0.6043890650675595 rxn_smarts="[C:1]([C@@:2]1([H:11])[O:3][C@@:4]2([H:12])[C:5]([H:13])([H:14])[C@@:6]12[O:7][H:15])([H:8])([H:9])[H:10]>>[C:1]([C@@:2]1([H:11])[O:3][C@:4]1([C:5]([C:6][O:7][H:15])([H:13])[H:14])[H:12])([H:8])([H:9])[H:10]"
C       -1.92538132      -0.17791035      -0.06647886
C       -0.75029885       0.66625814       0.35502553
O       -0.37491847       0.37400837       1.71059104
C        0.81151492       0.39608206       0.97301729
C        1.26416973      -0.85716765       0.31426567
C        0.79066518      -0.01649448      -0.83445339
O        1.77726477       0.40399565      -1.64876985
H       -1.69284074      -1.23782665       0.03150174
H       -2.80520539       0.04950263       0.54018687
H       -2.18926907       0.03723497      -1.10301441
H       -0.93560604       1.73409629       0.21695994
H        1.50864827       1.18087083       1.24566302
H        2.33774874      -1.01772763       0.36051209
H        0.65391672      -1.74530709       0.46056650
H        1.52959156       0.21038491      -2.55557318
15
Frame=12 idx=011186 GeodesicLength=0.6544750653680393 rxn_smarts="[C:1]([C@@:2]1([H:11])[O:3][C@@:4]2([H:12])[C:5]([H:13])([H:14])[C@@:6]12[O:7][H:15])([H:8])([H:9])[H:10]>>[C:1]([C@@:2]1([H:11])[O:3][C@:4]1([C:5]([C:6][O:7][H:15])([H:13])[H:14])[H:12])([H:8])([H:9])[H:10]"
C       -1.92345854      -0.17943260      -0.06618252
C       -0.75451942       0.67081267       0.36186238
O       -0.37608041       0.36808292       1.71537192
C        0.81274796       0.40727807       0.97886457
C        1.26181230      -0.84341670       0.30788888
C        0.80774353       0.01955865      -0.83095507
O        1.78961773       0.38524853      -1.67336843
H       -1.68293029      -1.23838841       0.02406267
H       -2.80689549       0.03569473       0.53934603
H       -2.19044214       0.04225844      -1.10076115
H       -0.95595661       1.73772389       0.23822225
H        1.51257858       1.17876824       1.28119721
H        2.33381309      -1.01313550       0.36122831
H        0.64168296      -1.72829876       0.43222884
H        1.53028675       0.15724584      -2.56900589
15
Frame=13 idx=011186 GeodesicLength=0.7041113898808442 rxn_smarts="[C:1]([C@@:2]1([H:11])[O:3][C@@:4]2([H:12])[C:5]([H:13])([H:14])[C@@:6]12[O:7][H:15])([H:8])([H:9])[H:10]>>[C:1]([C@@:2]1([H:11])[O:3][C@:4]1([C:5]([C:6][O:7][H:15])([H:13])[H:14])[H:12])([H:8])([H:9])[H:10]"
C       -1.92025644      -0.18061343      -0.06748083
C       -0.75794577       0.67551841       0.36851109
O       -0.37744932       0.36180698       1.72004134
C        0.81429721       0.41868302       0.98583933
C        1.26034844      -0.82905038       0.30242381
C        0.82680195       0.05655829      -0.82594518
O        1.79926097       0.36331393      -1.69895042
H       -1.67181701      -1.23851548       0.01494776
H       -2.80775367       0.02197390       0.53607003
H       -2.18941336       0.04788138      -1.10023266
H       -0.97562213       1.74108588       0.25966458
H        1.51638634       1.17549163       1.31881790
H        2.33067813      -1.00781011       0.36275774
H        0.63075259      -1.71036137       0.40421162
H        1.52173207       0.10403735      -2.58067612
15
Frame=14 idx=011186 GeodesicLength=0.7534288928867844 rxn_smarts="[C:1]([C@@:2]1([H:11])[O:3][C@@:4]2([H:12])[C:5]([H:13])([H:14])[C@@:6]12[O:7][H:15])([H:8])([H:9])[H:10]>>[C:1]([C@@:2]1([H:11])[O:3][C@:4]1([C:5]([C:6][O:7][H:15])([H:13])[H:14])[H:12])([H:8])([H:9])[H:10]"
C       -1.91562397      -0.18141477      -0.07052483
C       -0.76049668       0.68039479       0.37494705
O       -0.37902481       0.35509651       1.72455828
C        0.81619364       0.43029327       0.99402528
C        1.25989276      -0.81398478       0.29787757
C        0.84805453       0.09464761      -0.81932572
O        1.80527567       0.33843741      -1.72540858
H       -1.65931675      -1.23816167       0.00396170
H       -2.80765466       0.00830463       0.53015251
H       -2.18598194       0.05422397      -1.10157001
H       -0.99455880       1.74417086       0.28128510
H        1.51996971       1.17092125       1.35870832
H        2.32847891      -1.00160041       0.36501018
H        0.62129784      -1.69142520       0.37643055
H        1.50349456       0.05009654      -2.59012740
15
Frame=15 idx=011186 GeodesicLength=0.8027351861370802 rxn_smarts="[C:1]([C@@:2]1([H:11])[O:3][C@@:4]2([H:12])[C:5]([H:13])([H:14])[C@@:6]12[O:7][H:15])([H:8])([H:9])[H:10]>>[C:1]([C@@:2]1([H:11])[O:3][C@:4]1([C:5]([C:6][O:7][H:15])([H:13])[H:14])[H:12])([H:8])([H:9])[H:10]"
C       -1.90919523      -0.18183153      -0.07570377
C       -0.76191515       0.68543100       0.38096915
O       -0.38085096       0.34806993       1.72883333
C        0.81854569       0.44207428       1.00361922
C        1.26069031      -0.79835153       0.29469309
C        0.87203087       0.13354817      -0.81078056
O        1.80672555       0.30977128      -1.75269096
H       -1.64510573      -1.23732395      -0.00908319
H       -2.80637253      -0.00519122       0.52092993
H       -2.17950875       0.06118917      -1.10526356
H       -1.01248403       1.74693894       0.30266986
H        1.52330777       1.16493932       1.40102167
H        2.32748891      -0.99457497       0.36841112
H        0.61356410      -1.67157354       0.34945325
H        1.47307918      -0.00311533      -2.59707859
15
Frame=16 idx=011186 GeodesicLength=0.8523789435975035 rxn_smarts="[C:1]([C@@:2]1([H:11])[O:3][C@@:4]2([H:12])[C:5]([H:13])([H:14])[C@@:6]12[O:7][H:15])([H:8])([H:9])[H:10]>>[C:1]([C@@:2]1([H:11])[O:3][C@:4]1([C:5]([C:6][O:7][H:15])([H:13])[H:14])[H:12])([H:8])([H:9])[H:10]"
C       -1.90067615      -0.18184151      -0.08332247
C       -0.76197530       0.69059621       0.38638369
O       -0.38286909       0.34075537       1.73270706
C        0.82146636       0.45396055       1.01465525
C        1.26294320      -0.78226728       0.29309009
C        0.89906549       0.17292529      -0.80017531
O        1.80219361       0.27746687      -1.78049484
H       -1.62892943      -1.23597349      -0.02437092
H       -2.80366459      -0.01839624       0.50791284
H       -2.16954392       0.06877181      -1.11165263
H       -1.02917775       1.74932217       0.32350619
H        1.52631602       1.15748375       1.44569419
H        2.32794680      -0.98673567       0.37302834
H        0.60779770      -1.65090802       0.32366681
H        1.42910705      -0.05515980      -2.60062829
