12
Frame=0 idx=001045 GeodesicLength=0.0 rxn_smarts="[C:1]([C@@:2]1([H:10])[O:3][C@:4]1([C:5](=[O:6])[H:12])[H:11])([H:7])([H:8])[H:9]>>[C:1]([C:2]1=[O+:3][C@:4]1([C-:5]([O:6][H:10])[H:12])[H:11])([H:7])([H:8])[H:9]"
C       -1.26822111       0.72367390       0.20996822
C       -0.44009420      -0.48075412      -0.16494921
O       -0.26743926      -0.63907989      -1.59250353
C        0.89635098      -0.82869285      -0.87101753
C        1.27794139       0.17264633       0.06856970
O        1.38348374      -0.34704838       1.25586053
H       -1.01688023       1.04624055       1.22026756
H       -1.16806873       1.55285366      -0.49206182
H       -2.31070837       0.39914847       0.21551865
H        0.28460004      -0.98122668       1.02625572
H        1.23987674      -1.85199736      -0.74976623
H        1.38915896       1.23423633      -0.12614211
12
Frame=1 idx=001045 GeodesicLength=0.09384669773247682 rxn_smarts="[C:1]([C@@:2]1([H:10])[O:3][C@:4]1([C:5](=[O:6])[H:12])[H:11])([H:7])([H:8])[H:9]>>[C:1]([C:2]1=[O+:3][C@:4]1([C-:5]([O:6][H:10])[H:12])[H:11])([H:7])([H:8])[H:9]"
C       -1.27413159       0.72027426       0.20837313
C       -0.44953579      -0.48728954      -0.16518577
O       -0.27338756      -0.63303207      -1.59030835
C        0.88976840      -0.82756867      -0.86566154
C        1.29688219       0.17188004       0.06599919
O        1.40673409      -0.33750537       1.25609528
H       -1.03782431       1.03402058       1.22506455
H       -1.15393517       1.55643171      -0.48236020
H       -2.31995485       0.40691855       0.19561130
H        0.28966260      -0.98683948       1.04061006
H        1.23468224      -1.85123883      -0.75137565
H        1.39103976       1.23394881      -0.13686199
12
Frame=2 idx=001045 GeodesicLength=0.1876352293155051 rxn_smarts="[C:1]([C@@:2]1([H:10])[O:3][C@:4]1([C:5](=[O:6])[H:12])[H:11])([H:7])([H:8])[H:9]>>[C:1]([C:2]1=[O+:3][C@:4]1([C-:5]([O:6][H:10])[H:12])[H:11])([H:7])([H:8])[H:9]"
C       -1.28017588       0.71682420       0.20678339
C       -0.45937225      -0.49398270      -0.16562473
O       -0.27913322      -0.62682701      -1.58816935
C        0.88310157      -0.82637751      -0.85993319
C        1.31623229       0.17105193       0.06301772
O        1.43031733      -0.32761579       1.25601545
H       -1.05921157       1.02146870       1.22968339
H       -1.13975963       1.55975921      -0.47201433
H       -2.32901643       0.41510170       0.17546066
H        0.29467269      -0.99239726       1.05518102
H        1.22938190      -1.85039807      -0.75278699
H        1.39296321       1.23339261      -0.14761302
12
Frame=3 idx=001045 GeodesicLength=0.281386520931772 rxn_smarts="[C:1]([C@@:2]1([H:10])[O:3][C@:4]1([C:5](=[O:6])[H:12])[H:11])([H:7])([H:8])[H:9]>>[C:1]([C:2]1=[O+:3][C@:4]1([C-:5]([O:6][H:10])[H:12])[H:11])([H:7])([H:8])[H:9]"
C       -1.28636178       0.71331678       0.20519957
C       -0.46962490      -0.50084325      -0.16628042
O       -0.28466643      -0.62046058      -1.58608388
C        0.87634488      -0.82510803      -0.85380639
C        1.33600556       0.17015296       0.05960367
O        1.45426102      -0.31736435       1.25559635
H       -1.08106238       1.00857806       1.23411027
H       -1.12554217       1.56281390      -0.46100289
H       -2.33788117       0.42371609       0.15506518
H        0.29961236      -0.99789422       1.06998332
H        1.22397481      -1.84946119      -0.75399761
H        1.39494021       1.23255382      -0.15838718
12
Frame=4 idx=001045 GeodesicLength=0.37512035101909025 rxn_smarts="[C:1]([C@@:2]1([H:10])[O:3][C@:4]1([C:5](=[O:6])[H:12])[H:11])([H:7])([H:8])[H:9]>>[C:1]([C:2]1=[O+:3][C@:4]1([C-:5]([O:6][H:10])[H:12])[H:11])([H:7])([H:8])[H:9]"
C       -1.29269790       0.70974465       0.20362069
C       -0.48031703      -0.50788111      -0.16717024
O       -0.28997709      -0.61393115      -1.58404539
C        0.86949048      -0.82374763      -0.84725250
C        1.35621671       0.16917304       0.05573202
O        1.47859364      -0.30673515       1.25481023
H       -1.10340208       0.99533581       1.23832783
H       -1.11127951       1.56557246      -0.44929400
H       -2.34653601       0.43278312       0.13442078
H        0.30446228      -1.00332084       1.08503388
H        1.21846187      -1.84841143      -0.75500319
H        1.39698463       1.23141824      -0.16918009
12
Frame=5 idx=001045 GeodesicLength=0.46883302048162234 rxn_smarts="[C:1]([C@@:2]1([H:10])[O:3][C@:4]1([C:5](=[O:6])[H:12])[H:11])([H:7])([H:8])[H:9]>>[C:1]([C:2]1=[O+:3][C@:4]1([C-:5]([O:6][H:10])[H:12])[H:11])([H:7])([H:8])[H:9]"
C       -1.29919237       0.70610106       0.20204415
C       -0.49146878      -0.51510585      -0.16830954
O       -0.29505390      -0.60723467      -1.58205013
C        0.86253281      -0.82228210      -0.84024320
C        1.37687981       0.16810022       0.05137865
O        1.50333860      -0.29571703       1.25363125
H       -1.12625106       0.98173708       1.24232291
H       -1.09697204       1.56801228      -0.43686718
H       -2.35497167       0.44231517       0.11352896
H        0.30920560      -1.00866664       1.10035223
H        1.21284082      -1.84723197      -0.75580368
H        1.39911218       1.22997245      -0.17998442
12
Frame=6 idx=001045 GeodesicLength=0.5625576111307078 rxn_smarts="[C:1]([C@@:2]1([H:10])[O:3][C@:4]1([C:5](=[O:6])[H:12])[H:11])([H:7])([H:8])[H:9]>>[C:1]([C:2]1=[O+:3][C@:4]1([C-:5]([O:6][H:10])[H:12])[H:11])([H:7])([H:8])[H:9]"
C       -1.30585556       0.70237571       0.20047027
C       -0.50310628      -0.52252731      -0.16972042
O       -0.29988249      -0.60036900      -1.58008977
C        0.85546458      -0.82069632      -0.83274001
C        1.39800779       0.16692321       0.04651351
O        1.52853713      -0.28428931       1.25202113
H       -1.14964605       0.96776001       1.24607285
H       -1.08262059       1.57009997      -0.42367261
H       -2.36316443       0.45234642       0.09237692
H        0.31381647      -1.01392120       1.11596054
H        1.20710839      -1.84590374      -0.75639047
H        1.40134104       1.22820155      -0.19080194
12
Frame=7 idx=001045 GeodesicLength=0.6562958415061348 rxn_smarts="[C:1]([C@@:2]1([H:10])[O:3][C@:4]1([C:5](=[O:6])[H:12])[H:11])([H:7])([H:8])[H:9]>>[C:1]([C:2]1=[O+:3][C@:4]1([C-:5]([O:6][H:10])[H:12])[H:11])([H:7])([H:8])[H:9]"
C       -1.31269701       0.69855853       0.19889716
C       -0.51525090      -0.53015415      -0.17142509
O       -0.30444798      -0.59333044      -1.57815705
C        0.84827692      -0.81897329      -0.82470519
C        1.41961311       0.16562895       0.04110881
O        1.55422430      -0.27244330       1.24994380
H       -1.17361731       0.95339474       1.24955673
H       -1.06822778       1.57180759      -0.40967207
H       -2.37110134       0.46289442       0.07096068
H        0.31827085      -1.01906899       1.13188341
H        1.20126269      -1.84440557      -0.75675885
H        1.40369444       1.22609151      -0.20163235
12
Frame=8 idx=001045 GeodesicLength=0.7500529355716171 rxn_smarts="[C:1]([C@@:2]1([H:10])[O:3][C@:4]1([C:5](=[O:6])[H:12])[H:11])([H:7])([H:8])[H:9]>>[C:1]([C:2]1=[O+:3][C@:4]1([C-:5]([O:6][H:10])[H:12])[H:11])([H:7])([H:8])[H:9]"
C       -1.31972877       0.69463895       0.19732258
C       -0.52792891      -0.53799888      -0.17344624
O       -0.30873352      -0.58612282      -1.57623538
C        0.84096085      -0.81708968      -0.81609535
C        1.44170710       0.16420008       0.03512810
O        1.58044134      -0.26016566       1.24735215
H       -1.19821100       0.93861677       1.25274832
H       -1.05379918       1.57309468      -0.39480763
H       -2.37875150       0.47399937       0.04926378
H        0.32254482      -1.02408764       1.14815213
H        1.19530133      -1.84270970      -0.75690509
H        1.40619745       1.22362452      -0.21247737
12
Frame=9 idx=001045 GeodesicLength=0.8438423124350978 rxn_smarts="[C:1]([C@@:2]1([H:10])[O:3][C@:4]1([C:5](=[O:6])[H:12])[H:11])([H:7])([H:8])[H:9]>>[C:1]([C:2]1=[O+:3][C@:4]1([C-:5]([O:6][H:10])[H:12])[H:11])([H:7])([H:8])[H:9]"
C       -1.32696079       0.69060230       0.19574437
C       -0.54116038      -0.54605258      -0.17583770
O       -0.31270906      -0.57872691      -1.57430746
C        0.83348188      -0.81502429      -0.80683347
C        1.46430853       0.16261379       0.02852935
O        1.60723024      -0.24745874       1.24419764
H       -1.22348647       0.92336504       1.25563942
H       -1.03932305       1.57391525      -0.37901983
H       -2.38609866       0.48567894       0.02726308
H        0.32661481      -1.02892266       1.16482621
H        1.18920426      -1.84077688      -0.75682306
H        1.40889869       1.22078674      -0.22337855
12
Frame=10 idx=001045 GeodesicLength=0.9376414699957005 rxn_smarts="[C:1]([C@@:2]1([H:10])[O:3][C@:4]1([C:5](=[O:6])[H:12])[H:11])([H:7])([H:8])[H:9]>>[C:1]([C:2]1=[O+:3][C@:4]1([C-:5]([O:6][H:10])[H:12])[H:11])([H:7])([H:8])[H:9]"
C       -1.33441251       0.68643723       0.19415836
C       -0.55497002      -0.55433529      -0.17860476
O       -0.31636372      -0.57115387      -1.57236802
C        0.82585176      -0.81275259      -0.79689320
C        1.48740737       0.16085259       0.02128243
O        1.63464741      -0.23430353       1.24042956
H       -1.24948543       0.90765138       1.25818130
H       -1.02481599       1.57422950      -0.36224890
H       -2.39310140       0.49797049       0.00495991
H        0.33045084      -1.03356494       1.18192165
H        1.18297575      -1.83858607      -0.75650919
H        1.41181594       1.21755509      -0.23430915
12
Frame=11 idx=001045 GeodesicLength=1.031440423564216 rxn_smarts="[C:1]([C@@:2]1([H:10])[O:3][C@:4]1([C:5](=[O:6])[H:12])[H:11])([H:7])([H:8])[H:9]>>[C:1]([C:2]1=[O+:3][C@:4]1([C-:5]([O:6][H:10])[H:12])[H:11])([H:7])([H:8])[H:9]"
C       -1.34209443       0.68213585       0.19256053
C       -0.56937517      -0.56284838      -0.18177679
O       -0.31967623      -0.56339654      -1.57040397
C        0.81805859      -0.81025383      -0.78621951
C        1.51099983       0.15890092       0.01335093
O        1.66274982      -0.22069576       1.23598909
H       -1.27625527       0.89144579       1.26035339
H       -1.01028310       1.57399886      -0.34444522
H       -2.39973831       0.51089287      -0.01766024
H        0.33402228      -1.03798856       1.19948056
H        1.17660464      -1.83610565      -0.75595318
H        1.41498737       1.21391443      -0.24527558
12
Frame=12 idx=001045 GeodesicLength=1.1252448732306994 rxn_smarts="[C:1]([C@@:2]1([H:10])[O:3][C@:4]1([C:5](=[O:6])[H:12])[H:11])([H:7])([H:8])[H:9]>>[C:1]([C:2]1=[O+:3][C@:4]1([C-:5]([O:6][H:10])[H:12])[H:11])([H:7])([H:8])[H:9]"
C       -1.35002726       0.67768088       0.19094855
C       -0.58439827      -0.57159357      -0.18539063
O       -0.32262056      -0.55545064      -1.56839890
C        0.81008755      -0.80749873      -0.77474832
C        1.53508090       0.15673623       0.00469192
O        1.69160859      -0.20663185       1.23080728
H       -1.30386455       0.87471166       1.26211735
H       -0.99572666       1.57316807      -0.32552423
H       -2.40596544       0.52448251      -0.04062037
H        0.33729669      -1.04215420       1.21755391
H        1.17007751      -1.83329855      -0.75514165
H        1.41845151       1.20984820      -0.25629490
12
Frame=13 idx=001045 GeodesicLength=1.2190279849078467 rxn_smarts="[C:1]([C@@:2]1([H:10])[O:3][C@:4]1([C:5](=[O:6])[H:12])[H:11])([H:7])([H:8])[H:9]>>[C:1]([C:2]1=[O+:3][C@:4]1([C-:5]([O:6][H:10])[H:12])[H:11])([H:7])([H:8])[H:9]"
C       -1.35822686       0.67305967       0.18931971
C       -0.60005167      -0.58056836      -0.18948124
O       -0.32516984      -0.54730728      -1.56633678
C        0.80192462      -0.80445924      -0.76241500
C        1.55963829       0.15433384      -0.00473581
O        1.72129251      -0.19211966       1.22481326
H       -1.33237553       0.85741806       1.26344032
H       -0.98116279       1.57168546      -0.30541612
H       -2.41174318       0.53876056      -0.06394121
H        0.34024371      -1.04601642       1.23619615
H        1.16337800      -1.83012512      -0.75406474
H        1.42225274       1.20533849      -0.26737856
12
Frame=14 idx=001045 GeodesicLength=1.3127757646471256 rxn_smarts="[C:1]([C@@:2]1([H:10])[O:3][C@:4]1([C:5](=[O:6])[H:12])[H:11])([H:7])([H:8])[H:9]>>[C:1]([C:2]1=[O+:3][C@:4]1([C-:5]([O:6][H:10])[H:12])[H:11])([H:7])([H:8])[H:9]"
C       -1.36670957       0.66826225       0.18766148
C       -0.61634366      -0.58976582      -0.19409064
O       -0.32728679      -0.53895618      -1.56420179
C        0.79355756      -0.80110486      -0.74914675
C        1.58464864       0.15166913      -0.01497139
O        1.75189010      -0.17718077       1.21792238
H       -1.36185502       0.83953510       1.26427447
H       -0.96661572       1.56948998      -0.28404757
H       -2.41703164       0.55374971      -0.08762588
H        0.34282349      -1.04953295       1.25546869
H        1.15648682      -1.82654324      -0.75270507
H        1.42643580       1.20037764      -0.27853791
12
Frame=15 idx=001045 GeodesicLength=1.4064781014884702 rxn_smarts="[C:1]([C@@:2]1([H:10])[O:3][C@:4]1([C:5](=[O:6])[H:12])[H:11])([H:7])([H:8])[H:9]>>[C:1]([C:2]1=[O+:3][C@:4]1([C-:5]([O:6][H:10])[H:12])[H:11])([H:7])([H:8])[H:9]"
C       -1.37549640       0.66327106       0.18596745
C       -0.63328180      -0.59917707      -0.19926541
O       -0.32893707      -0.53039286      -1.56196873
C        0.78496986      -0.79739899      -0.73486499
C        1.61008697       0.14871043      -0.02606796
O        1.78349772      -0.16183392       1.21004194
H       -1.39240247       0.82101160       1.26455634
H       -0.95210738       1.56650486      -0.26130237
H       -2.42176410       0.56949760      -0.11169896
H        0.34500364      -1.05264135       1.27544345
H        1.14938274      -1.82250390      -0.75104137
H        1.43104830       1.19495254      -0.28979941
12
Frame=16 idx=001045 GeodesicLength=1.5001184230713884 rxn_smarts="[C:1]([C@@:2]1([H:10])[O:3][C@:4]1([C:5](=[O:6])[H:12])[H:11])([H:7])([H:8])[H:9]>>[C:1]([C:2]1=[O+:3][C@:4]1([C-:5]([O:6][H:10])[H:12])[H:11])([H:7])([H:8])[H:9]"
C       -1.38460745       0.65807195       0.18422890
C       -0.65086229      -0.60878459      -0.20505219
O       -0.33008099      -0.52161107      -1.55961149
C        0.77614478      -0.79330416      -0.71948786
C        1.63591313       0.14542605      -0.03807476
O        1.81623131      -0.14611964       1.20106754
H       -1.42411367       0.80180599       1.26421939
H       -0.93768101       1.56264637      -0.23707203
H       -2.42586957       0.58604556      -0.13618475
H        0.34674973      -1.05528057       1.29619919
H        1.14204103      -1.81795525      -0.74904844
H        1.43613501       1.18905936      -0.30118350
