10
Frame=0 idx=006041 GeodesicLength=0.0 rxn_smarts="[O:1]=[C:2]1[O:3][C:4]([H:7])([H:8])[C:5]([H:9])([H:10])[O:6]1>>[O:1]=[C:2]1[C:5]([H:9])([H:10])[O:6]1.[O:3]=[C:4]([H:7])[H:8]"
O        1.86121737       0.27385223       0.93924105
C        1.12900295      -0.15844062       0.12284543
O        0.49279802       1.11228656      -0.97096191
C       -0.53564587       1.13971642      -0.24485021
C       -0.32640214      -1.02047657       0.14328865
O        0.92998114      -1.23178270      -0.58796328
H       -0.47976344       1.41613429       0.81275143
H       -1.52359206       1.21783369      -0.71520399
H       -0.37656139      -1.64046027       1.03256721
H       -1.17103459      -1.10866304      -0.53171438
10
Frame=1 idx=006041 GeodesicLength=0.05296633812465765 rxn_smarts="[O:1]=[C:2]1[O:3][C:4]([H:7])([H:8])[C:5]([H:9])([H:10])[O:6]1>>[O:1]=[C:2]1[C:5]([H:9])([H:10])[O:6]1.[O:3]=[C:4]([H:7])[H:8]"
O        1.88129133       0.26792977       0.93271951
C        1.13805830      -0.16233212       0.12474605
O        0.48639932       1.11198097      -0.96519935
C       -0.54681997       1.14315487      -0.24144032
C       -0.32517438      -1.02245615       0.14302300
O        0.93375039      -1.23908578      -0.58177015
H       -0.49078058       1.43021384       0.81327391
H       -1.52922351       1.23720065      -0.72038892
H       -0.38341981      -1.64204620       1.03236827
H       -1.16408109      -1.12455986      -0.53733201
10
Frame=2 idx=006041 GeodesicLength=0.10593384172904388 rxn_smarts="[O:1]=[C:2]1[O:3][C:4]([H:7])([H:8])[C:5]([H:9])([H:10])[O:6]1>>[O:1]=[C:2]1[C:5]([H:9])([H:10])[O:6]1.[O:3]=[C:4]([H:7])[H:8]"
O        1.90172649       0.26176400       0.92580724
C        1.14723185      -0.16634677       0.12665974
O        0.47995694       1.11173579      -0.95897332
C       -0.55833217       1.14649430      -0.23799173
C       -0.32390145      -1.02449908       0.14276972
O        0.93752566      -1.24646115      -0.57554099
H       -0.50245708       1.44444295       0.81367832
H       -1.53458135       1.25720376      -0.72588900
H       -0.39019755      -1.64363415       1.03216143
H       -1.15697134      -1.14069964      -0.54268142
10
Frame=3 idx=006041 GeodesicLength=0.1588892094831576 rxn_smarts="[O:1]=[C:2]1[O:3][C:4]([H:7])([H:8])[C:5]([H:9])([H:10])[O:6]1>>[O:1]=[C:2]1[C:5]([H:9])([H:10])[O:6]1.[O:3]=[C:4]([H:7])[H:8]"
O        1.92252149       0.25534855       0.91848674
C        1.15652575      -0.17048644       0.12858676
O        0.47347414       1.11155784      -0.95226336
C       -0.57019691       1.14973026      -0.23451211
C       -0.32258224      -1.02660654       0.14253014
O        0.94130371      -1.25390444      -0.56928173
H       -0.51482520       1.45881005       0.81395418
H       -1.53962657       1.27785101      -0.73170470
H       -0.39688384      -1.64522482       1.03194991
H       -1.14971034      -1.15707548      -0.54774584
10
Frame=4 idx=006041 GeodesicLength=0.21181453015721297 rxn_smarts="[O:1]=[C:2]1[O:3][C:4]([H:7])([H:8])[C:5]([H:9])([H:10])[O:6]1>>[O:1]=[C:2]1[C:5]([H:9])([H:10])[O:6]1.[O:3]=[C:4]([H:7])[H:8]"
O        1.94367044       0.24867982       0.91074142
C        1.16594104      -0.17475261       0.13052739
O        0.46695235       1.11144998      -0.94504942
C       -0.58242823       1.15285969      -0.23100816
C       -0.32121530      -1.02877870       0.14230347
O        0.94508341      -1.26141233      -0.56299855
H       -0.52791400       1.47330487       0.81408765
H       -1.54431665       1.29914501      -0.73782776
H       -0.40347031      -1.64681550       1.03173495
H       -1.14230275      -1.17368025      -0.55251098
10
Frame=5 idx=006041 GeodesicLength=0.26465741381315877 rxn_smarts="[O:1]=[C:2]1[O:3][C:4]([H:7])([H:8])[C:5]([H:9])([H:10])[O:6]1>>[O:1]=[C:2]1[C:5]([H:9])([H:10])[O:6]1.[O:3]=[C:4]([H:7])[H:8]"
O        1.96514311       0.24174190       0.90255736
C        1.17546594      -0.17915020       0.13248121
O        0.46039372       1.11140885      -0.93731952
C       -0.59503306       1.15588498      -0.22748723
C       -0.31979534      -1.03101272       0.14208547
O        0.94886012      -1.26897056      -0.55669997
H       -0.54174805       1.48794179       0.81406907
H       -1.54859942       1.32105669      -0.74423476
H       -0.40993870      -1.64839903       1.03151534
H       -1.13474833      -1.19050171      -0.55696698
10
Frame=6 idx=006041 GeodesicLength=0.3176426539778978 rxn_smarts="[O:1]=[C:2]1[O:3][C:4]([H:7])([H:8])[C:5]([H:9])([H:10])[O:6]1>>[O:1]=[C:2]1[C:5]([H:9])([H:10])[O:6]1.[O:3]=[C:4]([H:7])[H:8]"
O        1.98698765       0.23453477       0.89393195
C        1.18512849      -0.18369371       0.13445620
O        0.45380925       1.11145065      -0.92905430
C       -0.60805083       1.15886830      -0.22396464
C       -0.31832849      -1.03334506       0.14186735
O        0.95266355      -1.27659584      -0.55038697
H       -0.55637495       1.50281058       0.81386802
H       -1.55245196       1.34359543      -0.75089626
H       -0.41628954      -1.65004360       1.03129673
H       -1.12709316      -1.20758152      -0.56111809
10
Frame=7 idx=006041 GeodesicLength=0.3702442817059675 rxn_smarts="[O:1]=[C:2]1[O:3][C:4]([H:7])([H:8])[C:5]([H:9])([H:10])[O:6]1>>[O:1]=[C:2]1[C:5]([H:9])([H:10])[O:6]1.[O:3]=[C:4]([H:7])[H:8]"
O        2.00918002       0.22699782       0.88475390
C        1.19494971      -0.18835005       0.13641036
O        0.44723197       1.11163624      -0.92007045
C       -0.62143755       1.16166416      -0.22047787
C       -0.31681074      -1.03564623       0.14172485
O        0.95637280      -1.28423499      -0.54411104
H       -0.57190369       1.51750575       0.81347604
H       -1.55580941       1.36671194      -0.75797389
H       -0.42249317      -1.65157129       1.03111214
H       -1.11927995      -1.22471333      -0.56484405
10
Frame=8 idx=006041 GeodesicLength=0.4230600691324386 rxn_smarts="[O:1]=[C:2]1[O:3][C:4]([H:7])([H:8])[C:5]([H:9])([H:10])[O:6]1>>[O:1]=[C:2]1[C:5]([H:9])([H:10])[O:6]1.[O:3]=[C:4]([H:7])[H:8]"
O        2.03182325       0.21917426       0.87512073
C        1.20494399      -0.19315538       0.13840539
O        0.44056968       1.11194965      -0.91044683
C       -0.63528788       1.16442863      -0.21704424
C       -0.31524496      -1.03804638       0.14158929
O        0.96010985      -1.29195077      -0.53784483
H       -0.58831058       1.53238876       0.81279335
H       -1.55862243       1.39046689      -0.76527070
H       -0.42856587      -1.65316459       1.03093470
H       -1.11141503      -1.24209107      -0.56823687
10
Frame=9 idx=006041 GeodesicLength=0.475650046888958 rxn_smarts="[O:1]=[C:2]1[O:3][C:4]([H:7])([H:8])[C:5]([H:9])([H:10])[O:6]1>>[O:1]=[C:2]1[C:5]([H:9])([H:10])[O:6]1.[O:3]=[C:4]([H:7])[H:8]"
O        2.05466967       0.21104871       0.86488292
C        1.21500646      -0.19811668       0.14039411
O        0.43398828       1.11228733      -0.90021889
C       -0.64953892       1.16712907      -0.21360812
C       -0.31362000      -1.04048976       0.14145394
O        0.96382506      -1.29966231      -0.53157159
H       -0.60562531       1.54745198       0.81199457
H       -1.56085583       1.41474027      -0.77280665
H       -0.43448252      -1.65473253       1.03077350
H       -1.10336687      -1.25965607      -0.57129380
10
Frame=10 idx=006041 GeodesicLength=0.5281195577490564 rxn_smarts="[O:1]=[C:2]1[O:3][C:4]([H:7])([H:8])[C:5]([H:9])([H:10])[O:6]1>>[O:1]=[C:2]1[C:5]([H:9])([H:10])[O:6]1.[O:3]=[C:4]([H:7])[H:8]"
O        2.07796548       0.20257717       0.85408408
C        1.22526842      -0.20319061       0.14239886
O        0.42733541       1.11286061      -0.88921440
C       -0.66425077       1.16969090      -0.21029135
C       -0.31195362      -1.04293577       0.14137744
O        0.96749492      -1.30740695      -0.52533390
H       -0.62391665       1.56233277       0.81088182
H       -1.56242406       1.43958008      -0.78063851
H       -0.44027400      -1.65621273       1.03066045
H       -1.09524512      -1.27729547      -0.57392449
10
Frame=11 idx=006041 GeodesicLength=0.5806932327088652 rxn_smarts="[O:1]=[C:2]1[O:3][C:4]([H:7])([H:8])[C:5]([H:9])([H:10])[O:6]1>>[O:1]=[C:2]1[C:5]([H:9])([H:10])[O:6]1.[O:3]=[C:4]([H:7])[H:8]"
O        2.10169420       0.19379540       0.84267876
C        1.23572141      -0.20842198       0.14442782
O        0.42068590       1.11354042      -0.87741744
C       -0.67943395       1.17224340      -0.20704746
C       -0.31024684      -1.04542677       0.14131637
O        0.97116824      -1.31519793      -0.51913762
H       -0.64324894       1.57731156       0.80949970
H       -1.56333718       1.46495214      -0.78870889
H       -0.44593635      -1.65767803       1.03058384
H       -1.08706647      -1.29511822      -0.57619507
10
Frame=12 idx=006041 GeodesicLength=0.6330850981285993 rxn_smarts="[O:1]=[C:2]1[O:3][C:4]([H:7])([H:8])[C:5]([H:9])([H:10])[O:6]1>>[O:1]=[C:2]1[C:5]([H:9])([H:10])[O:6]1.[O:3]=[C:4]([H:7])[H:8]"
O        2.12571145       0.18463704       0.83053293
C        1.24627574      -0.21381596       0.14646629
O        0.41414404       1.11438750      -0.86484199
C       -0.69508474       1.17475254      -0.20391775
C       -0.30848361      -1.04791707       0.14129027
O        0.97476576      -1.32297898      -0.51292563
H       -0.66366276       1.59227599       0.80795515
H       -1.56351842       1.49075079      -0.79704752
H       -0.45143149      -1.65907115       1.03054602
H       -1.07871595      -1.31302071      -0.57805776
10
Frame=13 idx=006041 GeodesicLength=0.6854106855356302 rxn_smarts="[O:1]=[C:2]1[O:3][C:4]([H:7])([H:8])[C:5]([H:9])([H:10])[O:6]1>>[O:1]=[C:2]1[C:5]([H:9])([H:10])[O:6]1.[O:3]=[C:4]([H:7])[H:8]"
O        2.15017768       0.17510513       0.81772781
C        1.25704640      -0.21934763       0.14852727
O        0.40755506       1.11544960      -0.85131778
C       -0.71119791       1.17723887      -0.20095821
C       -0.30668252      -1.05039507       0.14130281
O        0.97832343      -1.33076550      -0.50679054
H       -0.68521007       1.60711133       0.80601228
H       -1.56288857       1.51698293      -0.80558620
H       -0.45678413      -1.66037162       1.03057289
H       -1.07033938      -1.33100804      -0.57949034
10
Frame=14 idx=006041 GeodesicLength=0.7376992295931271 rxn_smarts="[O:1]=[C:2]1[O:3][C:4]([H:7])([H:8])[C:5]([H:9])([H:10])[O:6]1>>[O:1]=[C:2]1[C:5]([H:9])([H:10])[O:6]1.[O:3]=[C:4]([H:7])[H:8]"
O        2.17504941       0.16517707       0.80415475
C        1.26800802      -0.22504131       0.15061249
O        0.40103387       1.11673064      -0.83682836
C       -0.72779230       1.17973158      -0.19818683
C       -0.30484143      -1.05284679       0.14135169
O        0.98182490      -1.33855315      -0.50070952
H       -0.70796630       1.62185721       0.80378909
H       -1.56142794       1.54355895      -0.81435231
H       -0.46198923      -1.66155546       1.03066714
H       -1.06189900      -1.34905874      -0.58049815
10
Frame=15 idx=006041 GeodesicLength=0.789953203607155 rxn_smarts="[O:1]=[C:2]1[O:3][C:4]([H:7])([H:8])[C:5]([H:9])([H:10])[O:6]1>>[O:1]=[C:2]1[C:5]([H:9])([H:10])[O:6]1.[O:3]=[C:4]([H:7])[H:8]"
O        2.20036327       0.15482206       0.78972724
C        1.27917813      -0.23090092       0.15272638
O        0.39461542       1.11825820      -0.82125735
C       -0.74487731       1.18225814      -0.19563045
C       -0.30296566      -1.05524254       0.14144961
O        0.98525411      -1.34631561      -0.49469497
H       -0.73202390       1.63642662       0.80127751
H       -1.55908090       1.57041852      -0.82339356
H       -0.46704858      -1.66259732       1.03084130
H       -1.05341458      -1.36712715      -0.58104571
10
Frame=16 idx=006041 GeodesicLength=0.8421560274807074 rxn_smarts="[O:1]=[C:2]1[O:3][C:4]([H:7])([H:8])[C:5]([H:9])([H:10])[O:6]1>>[O:1]=[C:2]1[C:5]([H:9])([H:10])[O:6]1.[O:3]=[C:4]([H:7])[H:8]"
O        2.22613668       0.14401039       0.77436279
C        1.29056508      -0.23693916       0.15488162
O        0.38830242       1.12007146      -0.80448828
C       -0.76244748       1.18483177      -0.19334992
C       -0.30105222      -1.05756169       0.14160864
O        0.98859381      -1.35404678      -0.48875920
H       -0.75748892       1.65075830       0.79844403
H       -1.55576930       1.59753540      -0.83270131
H       -0.47194913      -1.66346919       1.03111573
H       -1.04489094      -1.38519050      -0.58111409
