14
Frame=0 idx=009150 GeodesicLength=0.0 rxn_smarts="[C:1]([n:2]1[c:3]([H:11])[c:4]([H:12])[c:5]([H:13])[c:6]1[O:7][H:14])([H:8])([H:9])[H:10]>>[C:1]([N:2]1[C:3]([H:11])([H:12])[C-:4]=[C:5]([H:13])[C+:6]1[O:7][H:14])([H:8])([H:9])[H:10]"
C       -1.75483613       0.02137433       0.50344904
N       -0.36186837      -0.19239386       0.18470933
C        0.28563604      -1.39813054      -0.07439230
C        1.67116241      -1.20106080      -0.36933237
C        1.76048162       0.23117426      -0.40225100
C        0.56211781       0.77742324      -0.02060447
O        0.15208689       2.04448339       0.14715507
H       -2.26974009       0.54531535      -0.30370779
H       -1.85343594       0.60366952       1.41966633
H       -2.22603827      -0.94880649       0.65028151
H       -0.19970103      -2.32588546       0.20093142
H        0.70326683      -1.59310606      -1.24785477
H        2.64499425       0.80139105      -0.65034959
H        0.88587393       2.63455208      -0.03770046
14
Frame=1 idx=009150 GeodesicLength=0.041258032884655085 rxn_smarts="[C:1]([n:2]1[c:3]([H:11])[c:4]([H:12])[c:5]([H:13])[c:6]1[O:7][H:14])([H:8])([H:9])[H:10]>>[C:1]([N:2]1[C:3]([H:11])([H:12])[C-:4]=[C:5]([H:13])[C+:6]1[O:7][H:14])([H:8])([H:9])[H:10]"
C       -1.75620589       0.02267957       0.50182309
N       -0.36493060      -0.19037404       0.17660572
C        0.28445345      -1.39849645      -0.07526159
C        1.66942921      -1.19703897      -0.36721478
C        1.75990360       0.23276569      -0.40264866
C        0.55884638       0.77889562      -0.02454952
O        0.15169902       2.04625405       0.14733803
H       -2.26664926       0.57264758      -0.29058401
H       -1.85140528       0.57995217       1.43395954
H       -2.23634458      -0.94689658       0.62128228
H       -0.19039353      -2.32346552       0.22623653
H        0.71317339      -1.61590758      -1.25227387
H        2.64177750       0.80378039      -0.65823316
H        0.88664658       2.63520408      -0.03647959
14
Frame=2 idx=009150 GeodesicLength=0.08248822025274767 rxn_smarts="[C:1]([n:2]1[c:3]([H:11])[c:4]([H:12])[c:5]([H:13])[c:6]1[O:7][H:14])([H:8])([H:9])[H:10]>>[C:1]([N:2]1[C:3]([H:11])([H:12])[C-:4]=[C:5]([H:13])[C+:6]1[O:7][H:14])([H:8])([H:9])[H:10]"
C       -1.75760094       0.02394675       0.50012959
N       -0.36804044      -0.18830738       0.16834874
C        0.28316642      -1.39885912      -0.07618256
C        1.66754488      -1.19299814      -0.36533571
C        1.75926959       0.23437785      -0.40311378
C        0.55551210       0.78041296      -0.02864527
O        0.15112994       2.04807555       0.14691559
H       -2.26354804       0.59925698      -0.27687816
H       -1.84951530       0.55594800       1.44736982
H       -2.24641653      -0.94427450       0.59254334
H       -0.18111820      -2.32022953       0.25151209
H        0.72343365      -1.63925807      -1.25622458
H        2.63838320       0.80610729      -0.66653651
H        0.88779966       2.63580136      -0.03390260
14
Frame=3 idx=009150 GeodesicLength=0.12367901322488624 rxn_smarts="[C:1]([n:2]1[c:3]([H:11])[c:4]([H:12])[c:5]([H:13])[c:6]1[O:7][H:14])([H:8])([H:9])[H:10]>>[C:1]([N:2]1[C:3]([H:11])([H:12])[C-:4]=[C:5]([H:13])[C+:6]1[O:7][H:14])([H:8])([H:9])[H:10]"
C       -1.75898287       0.02516241       0.49849601
N       -0.37113677      -0.18622645       0.16016729
C        0.28173566      -1.39922546      -0.07728179
C        1.66546335      -1.18895470      -0.36386478
C        1.75863214       0.23598850      -0.40347036
C        0.55218163       0.78194502      -0.03267028
O        0.15034593       2.04995088       0.14570647
H       -2.26038317       0.62495902      -0.26264422
H       -1.84778133       0.53186114       1.45993655
H       -2.25618660      -0.94099589       0.56440760
H       -0.17198660      -2.31623438       0.27635280
H        0.73393515      -1.66291875      -1.25989327
H        2.63498855       0.80834363      -0.67467364
H        0.88917494       2.63634505      -0.03056838
14
Frame=4 idx=009150 GeodesicLength=0.16483569990415914 rxn_smarts="[C:1]([n:2]1[c:3]([H:11])[c:4]([H:12])[c:5]([H:13])[c:6]1[O:7][H:14])([H:8])([H:9])[H:10]>>[C:1]([N:2]1[C:3]([H:11])([H:12])[C-:4]=[C:5]([H:13])[C+:6]1[O:7][H:14])([H:8])([H:9])[H:10]"
C       -1.76035711       0.02635097       0.49688567
N       -0.37419686      -0.18412036       0.15212041
C        0.28017694      -1.39959688      -0.07852423
C        1.66322716      -1.18494539      -0.36264514
C        1.75807365       0.23757453      -0.40343201
C        0.54896046       0.78346703      -0.03624356
O        0.14961944       2.05180899       0.14473326
H       -2.25700865       0.65015650      -0.24773857
H       -1.84628440       0.50732113       1.47183135
H       -2.26578461      -0.93701156       0.53636502
H       -0.16305606      -2.31154686       0.30063581
H        0.74478982      -1.68681559      -1.26320231
H        2.63146865       0.81046812      -0.68298827
H        0.89037155       2.63688938      -0.02779744
14
Frame=5 idx=009150 GeodesicLength=0.205936118920997 rxn_smarts="[C:1]([n:2]1[c:3]([H:11])[c:4]([H:12])[c:5]([H:13])[c:6]1[O:7][H:14])([H:8])([H:9])[H:10]>>[C:1]([N:2]1[C:3]([H:11])([H:12])[C-:4]=[C:5]([H:13])[C+:6]1[O:7][H:14])([H:8])([H:9])[H:10]"
C       -1.76167705       0.02749720       0.49545633
N       -0.37723131      -0.18200614       0.14424669
C        0.27845662      -1.39997856      -0.08003274
C        1.66076438      -1.18095576      -0.36197082
C        1.75750666       0.23914639      -0.40322905
C        0.54572385       0.78499956      -0.03976080
O        0.14860976       2.05374650       0.14271685
H       -2.25358045       0.67437411      -0.23228440
H       -1.84484318       0.48286278       1.48297105
H       -2.27504869      -0.93242028       0.50920996
H       -0.15431306      -2.30622391       0.32413129
H        0.75582366      -1.71092489      -1.26633129
H        2.62813898       0.81248848      -0.69045506
H        0.89166983       2.63739452      -0.02466801
14
Frame=6 idx=009150 GeodesicLength=0.2470150259150673 rxn_smarts="[C:1]([n:2]1[c:3]([H:11])[c:4]([H:12])[c:5]([H:13])[c:6]1[O:7][H:14])([H:8])([H:9])[H:10]>>[C:1]([N:2]1[C:3]([H:11])([H:12])[C-:4]=[C:5]([H:13])[C+:6]1[O:7][H:14])([H:8])([H:9])[H:10]"
C       -1.76295121       0.02860915       0.49417791
N       -0.38014239      -0.17990071       0.13683270
C        0.27658277      -1.40038859      -0.08178749
C        1.65810973      -1.17703579      -0.36172854
C        1.75709609       0.24066353      -0.40236627
C        0.54272476       0.78648451      -0.04236900
O        0.14774476       2.05566607       0.14122086
H       -2.24979867       0.69809008      -0.21616001
H       -1.84373018       0.45800286       1.49358129
H       -2.28413371      -0.92717338       0.48225206
H       -0.14588702      -2.30039725       0.34661994
H        0.76707218      -1.73500254      -1.26931959
H        2.62485801       0.81438577      -0.69749477
H        0.89245488       2.63799630      -0.02345908
14
Frame=7 idx=009150 GeodesicLength=0.28809943322953885 rxn_smarts="[C:1]([n:2]1[c:3]([H:11])[c:4]([H:12])[c:5]([H:13])[c:6]1[O:7][H:14])([H:8])([H:9])[H:10]>>[C:1]([N:2]1[C:3]([H:11])([H:12])[C-:4]=[C:5]([H:13])[C+:6]1[O:7][H:14])([H:8])([H:9])[H:10]"
C       -1.76421417       0.02970621       0.49293816
N       -0.38300163      -0.17776549       0.12965350
C        0.27460002      -1.40080457      -0.08363881
C        1.65530525      -1.17314009      -0.36178176
C        1.75676316       0.24216668      -0.40108951
C        0.53987552       0.78795191      -0.04435612
O        0.14701602       2.05756554       0.14019968
H       -2.24572157       0.72140716      -0.19934137
H       -1.84290915       0.43263551       1.50357552
H       -2.29310654      -0.92121718       0.45525488
H       -0.13765835      -2.29403631       0.36844218
H        0.77866159      -1.75933590      -1.27189711
H        2.62143155       0.81619323      -0.70469014
H        0.89295830       2.63867328      -0.02326910
14
Frame=8 idx=009150 GeodesicLength=0.3292105949561898 rxn_smarts="[C:1]([n:2]1[c:3]([H:11])[c:4]([H:12])[c:5]([H:13])[c:6]1[O:7][H:14])([H:8])([H:9])[H:10]>>[C:1]([N:2]1[C:3]([H:11])([H:12])[C-:4]=[C:5]([H:13])[C+:6]1[O:7][H:14])([H:8])([H:9])[H:10]"
C       -1.76552673       0.03080166       0.49148112
N       -0.38586085      -0.17557059       0.12245931
C        0.27262725      -1.40120922      -0.08525583
C        1.65238223      -1.16917564      -0.36216546
C        1.75629938       0.24374303      -0.40021702
C        0.53698520       0.78948220      -0.04642651
O        0.14615827       2.05955368       0.13873163
H       -2.24150959       0.74411432      -0.18226350
H       -1.84244785       0.40705421       1.51259807
H       -2.30192061      -0.91461196       0.42822927
H       -0.12929398      -2.28694168       0.39050041
H        0.79059215      -1.78449356      -1.27358238
H        2.61749671       0.81800859      -0.71320665
H        0.89401842       2.63924497      -0.02088245
14
Frame=9 idx=009150 GeodesicLength=0.3703789558962534 rxn_smarts="[C:1]([n:2]1[c:3]([H:11])[c:4]([H:12])[c:5]([H:13])[c:6]1[O:7][H:14])([H:8])([H:9])[H:10]>>[C:1]([N:2]1[C:3]([H:11])([H:12])[C-:4]=[C:5]([H:13])[C+:6]1[O:7][H:14])([H:8])([H:9])[H:10]"
C       -1.76685358       0.03188532       0.48998762
N       -0.38868246      -0.17334258       0.11542807
C        0.27060395      -1.40163471      -0.08684439
C        1.64929004      -1.16520120      -0.36305491
C        1.75576726       0.24535434      -0.39949397
C        0.53411078       0.79106750      -0.04832946
O        0.14517740       2.06168048       0.13695582
H       -2.23714307       0.76619491      -0.16482156
H       -1.84231071       0.38130689       1.52086413
H       -2.31053891      -0.90741839       0.40141632
H       -0.12091640      -2.27926854       0.41229269
H        0.80277763      -1.81022883      -1.27465735
H        2.61336447       0.81980341      -0.72203245
H        0.89535358       2.63980141      -0.01771056
14
Frame=10 idx=009150 GeodesicLength=0.4114750314683818 rxn_smarts="[C:1]([n:2]1[c:3]([H:11])[c:4]([H:12])[c:5]([H:13])[c:6]1[O:7][H:14])([H:8])([H:9])[H:10]>>[C:1]([N:2]1[C:3]([H:11])([H:12])[C-:4]=[C:5]([H:13])[C+:6]1[O:7][H:14])([H:8])([H:9])[H:10]"
C       -1.76816813       0.03296718       0.48849649
N       -0.39145076      -0.17106083       0.10860022
C        0.26849281      -1.40200936      -0.08844932
C        1.64603265      -1.16118725      -0.36433044
C        1.75526340       0.24697374      -0.39860363
C        0.53138371       0.79261124      -0.04968876
O        0.14436563       2.06368852       0.13554903
H       -2.23245403       0.78788095      -0.14662304
H       -1.84248948       0.35499605       1.52841240
H       -2.31905194      -0.89942401       0.37446973
H       -0.11267866      -2.27102603       0.43353182
H        0.81531246      -1.83632844      -1.27507542
H        2.60903401       0.82152972      -0.73109633
H        0.89640834       2.64038851      -0.01519276
14
Frame=11 idx=009150 GeodesicLength=0.45263419730094157 rxn_smarts="[C:1]([n:2]1[c:3]([H:11])[c:4]([H:12])[c:5]([H:13])[c:6]1[O:7][H:14])([H:8])([H:9])[H:10]>>[C:1]([N:2]1[C:3]([H:11])([H:12])[C-:4]=[C:5]([H:13])[C+:6]1[O:7][H:14])([H:8])([H:9])[H:10]"
C       -1.76949496       0.03405765       0.48695876
N       -0.39415507      -0.16873659       0.10201083
C        0.26634490      -1.40239504      -0.08999700
C        1.64261207      -1.15716634      -0.36612276
C        1.75471792       0.24861945      -0.39781403
C        0.52874316       0.79418344      -0.05064152
O        0.14354376       2.06578501       0.13415219
H       -2.22751917       0.80906428      -0.12796888
H       -1.84308115       0.32839399       1.53520263
H       -2.32739335      -0.89075114       0.34752517
H       -0.10443409      -2.26227577       0.45443306
H        0.82815060      -1.86299802      -1.27478045
H        2.60442512       0.82323233      -0.74062037
H        0.89754026       2.64098676      -0.01233763
14
Frame=12 idx=009150 GeodesicLength=0.49382147061519266 rxn_smarts="[C:1]([n:2]1[c:3]([H:11])[c:4]([H:12])[c:5]([H:13])[c:6]1[O:7][H:14])([H:8])([H:9])[H:10]>>[C:1]([N:2]1[C:3]([H:11])([H:12])[C-:4]=[C:5]([H:13])[C+:6]1[O:7][H:14])([H:8])([H:9])[H:10]"
C       -1.77084050       0.03515357       0.48535870
N       -0.39680577      -0.16636282       0.09563411
C        0.26416105      -1.40277097      -0.09146279
C        1.63901340      -1.15310784      -0.36847665
C        1.75410074       0.25030742      -0.39724118
C        0.52616815       0.79578553      -0.05128112
O        0.14268132       2.06795349       0.13258334
H       -2.22236681       0.82968640      -0.10889138
H       -1.84408316       0.30155065       1.54117923
H       -2.33555904      -0.88140209       0.32062600
H       -0.09614381      -2.25299397       0.47505826
H        0.84129937      -1.89029339      -1.27366514
H        2.59951049       0.82493310      -0.75066782
H        0.89886458       2.64156092      -0.00875355
14
Frame=13 idx=009150 GeodesicLength=0.5350314197751181 rxn_smarts="[C:1]([n:2]1[c:3]([H:11])[c:4]([H:12])[c:5]([H:13])[c:6]1[O:7][H:14])([H:8])([H:9])[H:10]>>[C:1]([N:2]1[C:3]([H:11])([H:12])[C-:4]=[C:5]([H:13])[C+:6]1[O:7][H:14])([H:8])([H:9])[H:10]"
C       -1.77218161       0.03625720       0.48381163
N       -0.39939337      -0.16394277       0.08953468
C        0.26189268      -1.40313944      -0.09298705
C        1.63520304      -1.14903818      -0.37146583
C        1.75346395       0.25200413      -0.39667320
C        0.52369920       0.79739402      -0.05144970
O        0.14182118       2.07017073       0.13096924
H       -2.21697257       0.84979180      -0.08920617
H       -1.84544693       0.27440310       1.54646737
H       -2.34355222      -0.87133945       0.29384369
H       -0.08789705      -2.24329090       0.49509584
H        0.85475926      -1.91806075      -1.27187192
H        2.59448749       0.82661508      -0.76062522
H        0.90011695       2.64217543      -0.00544336
14
Frame=14 idx=009150 GeodesicLength=0.5762635702215695 rxn_smarts="[C:1]([n:2]1[c:3]([H:11])[c:4]([H:12])[c:5]([H:13])[c:6]1[O:7][H:14])([H:8])([H:9])[H:10]>>[C:1]([N:2]1[C:3]([H:11])([H:12])[C-:4]=[C:5]([H:13])[C+:6]1[O:7][H:14])([H:8])([H:9])[H:10]"
C       -1.77351689       0.03737276       0.48234268
N       -0.40191769      -0.16147380       0.08373094
C        0.25952799      -1.40349962      -0.09460097
C        1.63116194      -1.14495834      -0.37514416
C        1.75281148       0.25370195      -0.39608782
C        0.52134056       0.79900461      -0.05112316
O        0.14095843       2.07243491       0.12928081
H       -2.21133543       0.86937757      -0.06887809
H       -1.84717438       0.24695834       1.55107977
H       -2.35137236      -0.86054515       0.26720560
H       -0.07969090      -2.23321387       0.51448940
H        0.86854374      -1.94629025      -1.26939033
H        2.58939497       0.82828771      -0.77037047
H        0.90126853       2.64284319      -0.00253418
14
Frame=15 idx=009150 GeodesicLength=0.6175189719421094 rxn_smarts="[C:1]([n:2]1[c:3]([H:11])[c:4]([H:12])[c:5]([H:13])[c:6]1[O:7][H:14])([H:8])([H:9])[H:10]>>[C:1]([N:2]1[C:3]([H:11])([H:12])[C-:4]=[C:5]([H:13])[C+:6]1[O:7][H:14])([H:8])([H:9])[H:10]"
C       -1.77484606       0.03850542       0.48097735
N       -0.40438649      -0.15895241       0.07821713
C        0.25705378      -1.40385100      -0.09633835
C        1.62686832      -1.14086737      -0.37956906
C        1.75214147       0.25539374      -0.39547774
C        0.51908285       0.80061663      -0.05032529
O        0.14007336       2.07474960       0.12743466
H       -2.20546812       0.88843602      -0.04786954
H       -1.84924883       0.21923318       1.55502935
H       -2.35902172      -0.84900244       0.24075547
H       -0.07151629      -2.22280367       0.53319688
H        0.88267686      -1.97498962      -1.26619633
H        2.58428118       0.82996233      -0.77977348
H        0.90230969       2.64356956      -0.00006103
14
Frame=16 idx=009150 GeodesicLength=0.6587914376125179 rxn_smarts="[C:1]([n:2]1[c:3]([H:11])[c:4]([H:12])[c:5]([H:13])[c:6]1[O:7][H:14])([H:8])([H:9])[H:10]>>[C:1]([N:2]1[C:3]([H:11])([H:12])[C-:4]=[C:5]([H:13])[C+:6]1[O:7][H:14])([H:8])([H:9])[H:10]"
C       -1.77617687       0.03966036       0.47969705
N       -0.40680568      -0.15637587       0.07298463
C        0.25447462      -1.40418806      -0.09817791
C        1.62230039      -1.13674743      -0.38481039
C        1.75142925       0.25708445      -0.39493547
C        0.51690737       0.80223255      -0.04912855
O        0.13912896       2.07711881       0.12525351
H       -2.19938463       0.90692174      -0.02624310
H       -1.85168682       0.19130103       1.55826976
H       -2.36649507      -0.83671439       0.21453396
H       -0.06331471      -2.21205469       0.55129529
H        0.89717580      -2.00421699      -1.26218847
H        2.57911389       0.83166024      -0.78894141
H        0.90333349       2.64431826       0.00239110
