8
Frame=0 idx=004647 GeodesicLength=0.0 rxn_smarts="[O:1]=[C:2]([C:3](=[O:4])[C:5]#[C:6][H:8])[H:7]>>[O:1]1[C@@:2]2([H:7])[C:3](=[O:4])[C:5]2=[C:6]1[H:8]"
O        0.00755982      -1.29998189      -0.09838555
C       -0.85048077      -0.32127291       0.28592730
C       -0.36221999       1.06755863       0.33236470
O       -1.01777119       2.05343388       0.54657532
C        0.90339510       0.72883706      -0.26097981
C        1.14345296      -0.57996282      -0.34295918
H       -1.88231133      -0.51004541      -0.00194870
H        2.05837540      -1.13856654      -0.46059408
8
Frame=1 idx=004647 GeodesicLength=0.09013058929199722 rxn_smarts="[O:1]=[C:2]([C:3](=[O:4])[C:5]#[C:6][H:8])[H:7]>>[O:1]1[C@@:2]2([H:7])[C:3](=[O:4])[C:5]2=[C:6]1[H:8]"
O       -0.00142504      -1.31041921      -0.07771461
C       -0.85806405      -0.32220990       0.27107645
C       -0.35856022       1.06583633       0.34262017
O       -1.00332176       2.05398535       0.57209918
C        0.87796432       0.72180127      -0.30652907
C        1.15675939      -0.57893426      -0.33940600
H       -1.89197268      -0.50231372      -0.01559418
H        2.07862005      -1.12774587      -0.44655194
8
Frame=2 idx=004647 GeodesicLength=0.18038138613409688 rxn_smarts="[O:1]=[C:2]([C:3](=[O:4])[C:5]#[C:6][H:8])[H:7]>>[O:1]1[C@@:2]2([H:7])[C:3](=[O:4])[C:5]2=[C:6]1[H:8]"
O       -0.01124286      -1.32034046      -0.05744056
C       -0.86544056      -0.32335548       0.25706350
C       -0.35528216       1.06399269       0.35132129
O       -0.98950229       2.05473632       0.59251689
C        0.85524619       0.71347973      -0.34214167
C        1.16986026      -0.57705118      -0.33765448
H       -1.90166827      -0.49518245      -0.02712939
H        2.09802969      -1.11627918      -0.43653559
8
Frame=3 idx=004647 GeodesicLength=0.27026896910433235 rxn_smarts="[O:1]=[C:2]([C:3](=[O:4])[C:5]#[C:6][H:8])[H:7]>>[O:1]1[C@@:2]2([H:7])[C:3](=[O:4])[C:5]2=[C:6]1[H:8]"
O       -0.02155142      -1.32976334      -0.03615209
C       -0.87269941      -0.32452322       0.24345386
C       -0.35256972       1.06196499       0.35895519
O       -0.97657069       2.05549136       0.60925074
C        0.83489377       0.70422542      -0.36998866
C        1.18281579      -0.57475332      -0.33766482
H       -1.91117666      -0.48812209      -0.03770954
H        2.11685834      -1.10451980      -0.43014468
8
Frame=4 idx=004647 GeodesicLength=0.3602726268090045 rxn_smarts="[O:1]=[C:2]([C:3](=[O:4])[C:5]#[C:6][H:8])[H:7]>>[O:1]1[C@@:2]2([H:7])[C:3](=[O:4])[C:5]2=[C:6]1[H:8]"
O       -0.03309710      -1.33879609      -0.01698139
C       -0.87981564      -0.32589607       0.23008314
C       -0.34992441       1.05963791       0.36561626
O       -0.96352788       2.05603515       0.62422004
C        0.81546306       0.69428728      -0.39481196
C        1.19607857      -0.57190066      -0.33818472
H       -1.92109919      -0.48122070      -0.04613423
H        2.13592260      -1.09214682      -0.42380714
8
Frame=5 idx=004647 GeodesicLength=0.4503740910213116 rxn_smarts="[O:1]=[C:2]([C:3](=[O:4])[C:5]#[C:6][H:8])[H:7]>>[O:1]1[C@@:2]2([H:7])[C:3](=[O:4])[C:5]2=[C:6]1[H:8]"
O       -0.04558737      -1.34772919       0.00166432
C       -0.88689650      -0.32745323       0.21678500
C       -0.34746416       1.05714629       0.37158882
O       -0.95057003       2.05656312       0.63764494
C        0.79712792       0.68392355      -0.41647555
C        1.20952077      -0.56870566      -0.33955916
H       -1.93122722      -0.47443798      -0.05340640
H        2.15509660      -1.07930690      -0.41824197
8
Frame=6 idx=004647 GeodesicLength=0.540505326455698 rxn_smarts="[O:1]=[C:2]([C:3](=[O:4])[C:5]#[C:6][H:8])[H:7]>>[O:1]1[C@@:2]2([H:7])[C:3](=[O:4])[C:5]2=[C:6]1[H:8]"
O       -0.05905209      -1.35649776       0.02013502
C       -0.89398063      -0.32919934       0.20346688
C       -0.34511723       1.05431833       0.37700736
O       -0.93757641       2.05681473       0.64978991
C        0.77975179       0.67307632      -0.43557523
C        1.22312658      -0.56519809      -0.34179042
H       -1.94154709      -0.46753631      -0.05978430
H        2.17439508      -1.06577789      -0.41324922
8
Frame=7 idx=004647 GeodesicLength=0.6306421209121547 rxn_smarts="[O:1]=[C:2]([C:3](=[O:4])[C:5]#[C:6][H:8])[H:7]>>[O:1]1[C@@:2]2([H:7])[C:3](=[O:4])[C:5]2=[C:6]1[H:8]"
O       -0.07352604      -1.36527678       0.03824076
C       -0.90109277      -0.33112981       0.19009180
C       -0.34287461       1.05121698       0.38190300
O       -0.92443838       2.05688376       0.66109708
C        0.76303743       0.66184654      -0.45290716
C        1.23696585      -0.56144188      -0.34483532
H       -1.95210534      -0.46050938      -0.06526590
H        2.19403387      -1.05158942      -0.40832426
8
Frame=8 idx=004647 GeodesicLength=0.7208554341904928 rxn_smarts="[O:1]=[C:2]([C:3](=[O:4])[C:5]#[C:6][H:8])[H:7]>>[O:1]1[C@@:2]2([H:7])[C:3](=[O:4])[C:5]2=[C:6]1[H:8]"
O       -0.08913122      -1.37400033       0.05598454
C       -0.90831857      -0.33325186       0.17655311
C       -0.34069334       1.04779090       0.38627914
O       -0.91100961       2.05673064       0.67170516
C        0.74691897       0.65003874      -0.46872270
C        1.25103584      -0.55735527      -0.34862757
H       -1.96281162      -0.45338592      -0.06984451
H        2.21400953      -1.03656690      -0.40332717
8
Frame=9 idx=004647 GeodesicLength=0.8110128222971194 rxn_smarts="[O:1]=[C:2]([C:3](=[O:4])[C:5]#[C:6][H:8])[H:7]>>[O:1]1[C@@:2]2([H:7])[C:3](=[O:4])[C:5]2=[C:6]1[H:8]"
O       -0.10585251      -1.38265403       0.07368007
C       -0.91563600      -0.33549641       0.16287392
C       -0.33858544       1.04398099       0.39024396
O       -0.89734292       2.05620609       0.68165317
C        0.73136140       0.63771605      -0.48321666
C        1.26544454      -0.55296115      -0.35290566
H       -1.97373033      -0.44603677      -0.07378884
H        2.23434125      -1.02075477      -0.39853997
8
Frame=10 idx=004647 GeodesicLength=0.9012057668625981 rxn_smarts="[O:1]=[C:2]([C:3](=[O:4])[C:5]#[C:6][H:8])[H:7]>>[O:1]1[C@@:2]2([H:7])[C:3](=[O:4])[C:5]2=[C:6]1[H:8]"
O       -0.12373284      -1.39138189       0.09146514
C       -0.92306540      -0.33795117       0.14904910
C       -0.33655335       1.03985172       0.39388605
O       -0.88345413       2.05546716       0.69100386
C        0.71631860       0.62492374      -0.49647851
C        1.28023997      -0.54827752      -0.35759262
H       -1.98480153      -0.43846485      -0.07725789
H        2.25504868      -1.00416719      -0.39407514
8
Frame=11 idx=004647 GeodesicLength=0.9914053338715569 rxn_smarts="[O:1]=[C:2]([C:3](=[O:4])[C:5]#[C:6][H:8])[H:7]>>[O:1]1[C@@:2]2([H:7])[C:3](=[O:4])[C:5]2=[C:6]1[H:8]"
O       -0.14286360      -1.40012579       0.10950845
C       -0.93064721      -0.34065481       0.13513309
C       -0.33455328       1.03526775       0.39724735
O       -0.86925956       2.05432708       0.69981375
C        0.70172920       0.61158732      -0.50867885
C        1.29538080      -0.54331013      -0.36290260
H       -1.99594300      -0.43048771      -0.08036988
H        2.27615665      -0.98660372      -0.38975132
8
Frame=12 idx=004647 GeodesicLength=1.0816308815157119 rxn_smarts="[O:1]=[C:2]([C:3](=[O:4])[C:5]#[C:6][H:8])[H:7]>>[O:1]1[C@@:2]2([H:7])[C:3](=[O:4])[C:5]2=[C:6]1[H:8]"
O       -0.16331931      -1.40890382       0.12789670
C       -0.93835603      -0.34360598       0.12116833
C       -0.33260261       1.03028833       0.40040019
O       -0.85480955       2.05288220       0.70805712
C        0.68760351       0.59767142      -0.51979588
C        1.31098143      -0.53798261      -0.36849585
H       -2.00714270      -0.42218958      -0.08330165
H        2.29764526      -0.96815997      -0.38592895
8
Frame=13 idx=004647 GeodesicLength=1.171842325753105 rxn_smarts="[O:1]=[C:2]([C:3](=[O:4])[C:5]#[C:6][H:8])[H:7]>>[O:1]1[C@@:2]2([H:7])[C:3](=[O:4])[C:5]2=[C:6]1[H:8]"
O       -0.18515747      -1.41779328       0.14662702
C       -0.94618653      -0.34683685       0.10719902
C       -0.33069935       1.02490833       0.40338222
O       -0.84009941       2.05117514       0.71582049
C        0.67384495       0.58312791      -0.52999038
C        1.32708536      -0.53231559      -0.37447224
H       -2.01839584      -0.41348529      -0.08609189
H        2.31960829      -0.94878036      -0.38247426
8
Frame=14 idx=004647 GeodesicLength=1.262048333894647 rxn_smarts="[O:1]=[C:2]([C:3](=[O:4])[C:5]#[C:6][H:8])[H:7]>>[O:1]1[C@@:2]2([H:7])[C:3](=[O:4])[C:5]2=[C:6]1[H:8]"
O       -0.20856075      -1.42659922       0.16606686
C       -0.95421842      -0.35030787       0.09342978
C       -0.32881177       1.01900282       0.40624083
O       -0.82503035       2.04893085       0.72300510
C        0.66049340       0.56784671      -0.53915760
C        1.34368313      -0.52614064      -0.38061082
H       -2.02949197      -0.40436530      -0.08917027
H        2.34193673      -0.92836736      -0.37980389
8
Frame=15 idx=004647 GeodesicLength=1.352258611586777 rxn_smarts="[O:1]=[C:2]([C:3](=[O:4])[C:5]#[C:6][H:8])[H:7]>>[O:1]1[C@@:2]2([H:7])[C:3](=[O:4])[C:5]2=[C:6]1[H:8]"
O       -0.23354940      -1.43550982       0.18626029
C       -0.96242439      -0.35413520       0.07996989
C       -0.32693923       1.01264883       0.40907598
O       -0.80965206       2.04639543       0.72974665
C        0.64741883       0.55177039      -0.54744568
C        1.36083968      -0.51955140      -0.38710948
H       -2.04049042      -0.39473893      -0.09269699
H        2.36479699      -0.90687929      -0.37780066
8
Frame=16 idx=004647 GeodesicLength=1.4424764838191289 rxn_smarts="[O:1]=[C:2]([C:3](=[O:4])[C:5]#[C:6][H:8])[H:7]>>[O:1]1[C@@:2]2([H:7])[C:3](=[O:4])[C:5]2=[C:6]1[H:8]"
O       -0.26029219      -1.44447102       0.20734527
C       -0.97082434      -0.35834107       0.06695260
C       -0.32502541       1.00576387       0.41192350
O       -0.79385530       2.04345002       0.73603340
C        0.63459486       0.53477754      -0.55485976
C        1.37855591      -0.51248051      -0.39402293
H       -2.05133380      -0.38456430      -0.09687691
H        2.38818028      -0.88413453      -0.37649518
