14
Frame=0 idx=008266 GeodesicLength=0.0 rxn_smarts="[C:1]([C@@:2]1([H:11])[C:3]([H:12])([H:13])[N:4]([H:14])[C:5](=[O:6])[O:7]1)([H:8])([H:9])[H:10]>>[C:1]([C:2]([O:7][C:5]([N+:4](=[C-:3][H:13])[H:14])=[O:6])([H:11])[H:12])([H:8])([H:9])[H:10]"
C       -1.52811162      -0.99523998       0.17855476
C       -0.53894731      -0.18384497      -0.62275268
C        0.35348387       1.72276132      -0.06268572
N        1.37713590       1.05304498       0.57199185
C        1.71005063      -0.24673276       0.18363797
O        2.66612488      -0.87236929       0.50955174
O        0.73050006      -0.77553246      -0.60301757
H       -1.23017646      -1.03806739       1.22783019
H       -1.56541873      -2.01470693      -0.20867726
H       -2.52376219      -0.55529334       0.11292337
H       -0.83637183      -0.00919294      -1.65445545
H       -0.68574228       0.94082570      -0.05120615
H        0.55325240       1.75722971      -1.13896858
H        1.51798269       1.21711834       1.55727357
14
Frame=1 idx=008266 GeodesicLength=0.05076920803430711 rxn_smarts="[C:1]([C@@:2]1([H:11])[C:3]([H:12])([H:13])[N:4]([H:14])[C:5](=[O:6])[O:7]1)([H:8])([H:9])[H:10]>>[C:1]([C:2]([O:7][C:5]([N+:4](=[C-:3][H:13])[H:14])=[O:6])([H:11])[H:12])([H:8])([H:9])[H:10]"
C       -1.53175094      -1.00195904       0.17300595
C       -0.54081837      -0.17863109      -0.61468962
C        0.35750965       1.72174283      -0.06805723
N        1.38101087       1.05448358       0.56734449
C        1.70609340      -0.25084708       0.19035279
O        2.66116838      -0.87557499       0.52177454
O        0.72810146      -0.77805791      -0.59675949
H       -1.23840494      -1.05411390       1.22312596
H       -1.56679990      -2.01733001      -0.22481348
H       -2.52822836      -0.56375699       0.10685003
H       -0.83545627      -0.00568174      -1.64783745
H       -0.70100560       0.94872476      -0.02838188
H        0.55447161       1.75854946      -1.14468987
H        1.55410901       1.24245212       1.54277527
14
Frame=2 idx=008266 GeodesicLength=0.10134456604660849 rxn_smarts="[C:1]([C@@:2]1([H:11])[C:3]([H:12])([H:13])[N:4]([H:14])[C:5](=[O:6])[O:7]1)([H:8])([H:9])[H:10]>>[C:1]([C:2]([O:7][C:5]([N+:4](=[C-:3][H:13])[H:14])=[O:6])([H:11])[H:12])([H:8])([H:9])[H:10]"
C       -1.53542115      -1.00852400       0.16735404
C       -0.54265081      -0.17361807      -0.60660875
C        0.36103761       1.72040320      -0.07302358
N        1.38443711       1.05571630       0.56318221
C        1.70206021      -0.25485061       0.19731194
O        2.65643124      -0.87833020       0.53391696
O        0.72576252      -0.78070558      -0.59028688
H       -1.24676305      -1.06989383       1.21824032
H       -1.56822051      -2.01973449      -0.24086263
H       -2.53263676      -0.57191365       0.10051033
H       -0.83429401      -0.00239294      -1.64124775
H       -0.71609614       0.95635773      -0.00539670
H        0.55566048       1.75996651      -1.14990189
H        1.59069326       1.26751962       1.52681235
14
Frame=3 idx=008266 GeodesicLength=0.15174343689783554 rxn_smarts="[C:1]([C@@:2]1([H:11])[C:3]([H:12])([H:13])[N:4]([H:14])[C:5](=[O:6])[O:7]1)([H:8])([H:9])[H:10]>>[C:1]([C:2]([O:7][C:5]([N+:4](=[C-:3][H:13])[H:14])=[O:6])([H:11])[H:12])([H:8])([H:9])[H:10]"
C       -1.53908432      -1.01491617       0.16162809
C       -0.54444565      -0.16879786      -0.59855757
C        0.36408833       1.71878752      -0.07757956
N        1.38736267       1.05672805       0.55960613
C        1.69798028      -0.25873848       0.20446457
O        2.65192279      -0.88067049       0.54596459
O        0.72349886      -0.78346671      -0.58365322
H       -1.25518876      -1.08530857       1.21322108
H       -1.56960932      -2.02194916      -0.25673176
H       -2.53697091      -0.57976652       0.09392218
H       -0.83290954       0.00067286      -1.63474281
H       -0.73106555       0.96377365       0.01766754
H        0.55685356       1.76149695      -1.15461256
H        1.62756754       1.29215492       1.50940330
14
Frame=4 idx=008266 GeodesicLength=0.20193530335324933 rxn_smarts="[C:1]([C@@:2]1([H:11])[C:3]([H:12])([H:13])[N:4]([H:14])[C:5](=[O:6])[O:7]1)([H:8])([H:9])[H:10]>>[C:1]([C:2]([O:7][C:5]([N+:4](=[C-:3][H:13])[H:14])=[O:6])([H:11])[H:12])([H:8])([H:9])[H:10]"
C       -1.54272672      -1.02112374       0.15584432
C       -0.54619511      -0.16417059      -0.59055152
C        0.36669938       1.71690558      -0.08173297
N        1.38973942       1.05750464       0.55670347
C        1.69385356      -0.26250842       0.21181312
O        2.64768922      -0.88257502       0.55784628
O        0.72131757      -0.78632892      -0.57686171
H       -1.26365166      -1.10034401       1.20807555
H       -1.57096828      -2.02396054      -0.27240388
H       -2.54121300      -0.58729851       0.08713295
H       -0.83129448       0.00350909      -1.62832927
H       -0.74594485       0.97098187       0.04075821
H        0.55811649       1.76311541      -1.15881493
H        1.66457844       1.31629317       1.49052040
14
Frame=5 idx=008266 GeodesicLength=0.25185046901551167 rxn_smarts="[C:1]([C@@:2]1([H:11])[C:3]([H:12])([H:13])[N:4]([H:14])[C:5](=[O:6])[O:7]1)([H:8])([H:9])[H:10]>>[C:1]([C:2]([O:7][C:5]([N+:4](=[C-:3][H:13])[H:14])=[O:6])([H:11])[H:12])([H:8])([H:9])[H:10]"
C       -1.54629731      -1.02710791       0.15005353
C       -0.54788691      -0.15972089      -0.58263418
C        0.36893434       1.71476878      -0.08550229
N        1.39150230       1.05801254       0.55458494
C        1.68970755      -0.26612066       0.21924855
O        2.64373922      -0.88399179       0.56942928
O        0.71922376      -0.78925460      -0.56996967
H       -1.27208837      -1.11482186       1.20285430
H       -1.57220844      -2.02578367      -0.28769812
H       -2.54532366      -0.59453441       0.08015954
H       -0.82945592       0.00610629      -1.62202931
H       -0.76077391       0.97803405       0.06374041
H        0.55956144       1.76479896      -1.16250881
H        1.70136590       1.33961518       1.47027183
14
Frame=6 idx=008266 GeodesicLength=0.30153900899654906 rxn_smarts="[C:1]([C@@:2]1([H:11])[C:3]([H:12])([H:13])[N:4]([H:14])[C:5](=[O:6])[O:7]1)([H:8])([H:9])[H:10]>>[C:1]([C:2]([O:7][C:5]([N+:4](=[C-:3][H:13])[H:14])=[O:6])([H:11])[H:12])([H:8])([H:9])[H:10]"
C       -1.54978770      -1.03285162       0.14427969
C       -0.54952233      -0.15545043      -0.57483958
C        0.37081830       1.71241217      -0.08890725
N        1.39260336       1.05824531       0.55336943
C        1.68556668      -0.26960635       0.22677851
O        2.64022114      -0.88492123       0.58057210
O        0.71723155      -0.79227236      -0.56298946
H       -1.28046676      -1.12869315       1.19761041
H       -1.57332412      -2.02743985      -0.30257869
H       -2.54930721      -0.60143517       0.07303261
H       -0.82741058       0.00844817      -1.61589817
H       -0.77561076       0.98498532       0.08653670
H        0.56124645       1.76652912      -1.16572338
H        1.73774197       1.36205009       1.44875707
14
Frame=7 idx=008266 GeodesicLength=0.350990854350432 rxn_smarts="[C:1]([C@@:2]1([H:11])[C:3]([H:12])([H:13])[N:4]([H:14])[C:5](=[O:6])[O:7]1)([H:8])([H:9])[H:10]>>[C:1]([C:2]([O:7][C:5]([N+:4](=[C-:3][H:13])[H:14])=[O:6])([H:11])[H:12])([H:8])([H:9])[H:10]"
C       -1.55320168      -1.03836276       0.13852394
C       -0.55109804      -0.15135165      -0.56716513
C        0.37238996       1.70983582      -0.09194192
N        1.39302363       1.05820614       0.55313182
C        1.68141792      -0.27296117       0.23441937
O        2.63713939      -0.88534805       0.59121810
O        0.71533483      -0.79536202      -0.55590510
H       -1.28880483      -1.14196866       1.19234505
H       -1.57431714      -2.02893590      -0.31704494
H       -2.55316295      -0.60802518       0.06575030
H       -0.82514079       0.01054663      -1.60992285
H       -0.79049112       0.99184068       0.10912970
H        0.56323165       1.76828467      -1.16843884
H        1.77367917       1.38360144       1.42590049
14
Frame=8 idx=008266 GeodesicLength=0.4002511108432113 rxn_smarts="[C:1]([C@@:2]1([H:11])[C:3]([H:12])([H:13])[N:4]([H:14])[C:5](=[O:6])[O:7]1)([H:8])([H:9])[H:10]>>[C:1]([C:2]([O:7][C:5]([N+:4](=[C-:3][H:13])[H:14])=[O:6])([H:11])[H:12])([H:8])([H:9])[H:10]"
C       -1.55656736      -1.04366613       0.13277305
C       -0.55262173      -0.14742650      -0.55960755
C        0.37367747       1.70706087      -0.09457827
N        1.39272622       1.05790806       0.55399899
C        1.67723247      -0.27620491       0.24224632
O        2.63455810      -0.88525611       0.60127945
O        0.71351593      -0.79853584      -0.54867350
H       -1.29715629      -1.15468368       1.18706533
H       -1.57521529      -2.03031231      -0.33112532
H       -2.55691324      -0.61432653       0.05827674
H       -0.82262929       0.01240475      -1.60411169
H       -0.80546308       0.99862085       0.13150829
H        0.56557612       1.77006132      -1.17062369
H        1.80927998       1.40435615       1.40157184
14
Frame=9 idx=008266 GeodesicLength=0.44921401695384794 rxn_smarts="[C:1]([C@@:2]1([H:11])[C:3]([H:12])([H:13])[N:4]([H:14])[C:5](=[O:6])[O:7]1)([H:8])([H:9])[H:10]>>[C:1]([C:2]([O:7][C:5]([N+:4](=[C-:3][H:13])[H:14])=[O:6])([H:11])[H:12])([H:8])([H:9])[H:10]"
C       -1.55980211      -1.04864295       0.12713114
C       -0.55405165      -0.14365187      -0.55220284
C        0.37476462       1.70405423      -0.09694771
N        1.39170331       1.05732238       0.55597205
C        1.67310042      -0.27930624       0.25008795
O        2.63270797      -0.88451311       0.61034918
O        0.71182239      -0.80177796      -0.54134897
H       -1.30540785      -1.16655419       1.18186985
H       -1.57591372      -2.03150555      -0.34456683
H       -2.56049451      -0.62025237       0.05070018
H       -0.81987369       0.01396469      -1.59847024
H       -0.82055662       1.00541872       0.15347918
H        0.56841342       1.77173025      -1.17237826
H        1.84358803       1.42371397       1.37632532
14
Frame=10 idx=008266 GeodesicLength=0.49795998085500986 rxn_smarts="[C:1]([C@@:2]1([H:11])[C:3]([H:12])([H:13])[N:4]([H:14])[C:5](=[O:6])[O:7]1)([H:8])([H:9])[H:10]>>[C:1]([C:2]([O:7][C:5]([N+:4](=[C-:3][H:13])[H:14])=[O:6])([H:11])[H:12])([H:8])([H:9])[H:10]"
C       -1.56291811      -1.05334449       0.12159844
C       -0.55539101      -0.14001761      -0.54494581
C        0.37571461       1.70087353      -0.09908165
N        1.39005504       1.05652965       0.55900976
C        1.66902252      -0.28227715       0.25796396
O        2.63152884      -0.88320508       0.61850013
O        0.71023316      -0.80509629      -0.53393195
H       -1.31354946      -1.17771462       1.17677688
H       -1.57647572      -2.03256581      -0.35744831
H       -2.56390410      -0.62582594       0.04306154
H       -0.81689584       0.01525939      -1.59301073
H       -0.83575042       1.01225912       0.17508992
H        0.57175047       1.77334616      -1.17375765
H        1.87658002       1.44177913       1.35017548
14
Frame=11 idx=008266 GeodesicLength=0.5465480793115867 rxn_smarts="[C:1]([C@@:2]1([H:11])[C:3]([H:12])([H:13])[N:4]([H:14])[C:5](=[O:6])[O:7]1)([H:8])([H:9])[H:10]>>[C:1]([C:2]([O:7][C:5]([N+:4](=[C-:3][H:13])[H:14])=[O:6])([H:11])[H:12])([H:8])([H:9])[H:10]"
C       -1.56596890      -1.05781236       0.11611835
C       -0.55665080      -0.13652386      -0.53779149
C        0.37651852       1.69750080      -0.10090369
N        1.38779124       1.05555668       0.56318095
C        1.66494874      -0.28513872       0.26601729
O        2.63101112      -0.88133471       0.62576784
O        0.70873804      -0.80848662      -0.52633503
H       -1.32169910      -1.18827946       1.17173728
H       -1.57693302      -2.03350580      -0.36989804
H       -2.56719256      -0.63108905       0.03527191
H       -0.81365336       0.01631406      -1.58768935
H       -0.85109439       1.01911128       0.19643499
H        0.57557350       1.77489397      -1.17467690
H        1.90861096       1.45879379       1.32276590
14
Frame=12 idx=008266 GeodesicLength=0.5950053567025331 rxn_smarts="[C:1]([C@@:2]1([H:11])[C:3]([H:12])([H:13])[N:4]([H:14])[C:5](=[O:6])[O:7]1)([H:8])([H:9])[H:10]>>[C:1]([C:2]([O:7][C:5]([N+:4](=[C-:3][H:13])[H:14])=[O:6])([H:11])[H:12])([H:8])([H:9])[H:10]"
C       -1.56892032      -1.06205049       0.11069892
C       -0.55782055      -0.13314056      -0.53072544
C        0.37721292       1.69394980      -0.10244966
N        1.38504230       1.05446935       0.56835304
C        1.66091891      -0.28787197       0.27418379
O        2.63102290      -0.87899315       0.63232187
O        0.70735330      -0.81191806      -0.51859396
H       -1.32979997      -1.19829869       1.16675156
H       -1.57725427      -2.03431407      -0.38195584
H       -2.57033439      -0.63605188       0.02737683
H       -0.81017093       0.01716882      -1.58247585
H       -0.86656461       1.02598921       0.21758575
H        0.57982986       1.77638713      -1.17517925
H        1.93948484       1.47467455       1.29410825
14
Frame=13 idx=008266 GeodesicLength=0.6433536416934664 rxn_smarts="[C:1]([C@@:2]1([H:11])[C:3]([H:12])([H:13])[N:4]([H:14])[C:5](=[O:6])[O:7]1)([H:8])([H:9])[H:10]>>[C:1]([C:2]([O:7][C:5]([N+:4](=[C-:3][H:13])[H:14])=[O:6])([H:11])[H:12])([H:8])([H:9])[H:10]"
C       -1.57171892      -1.06606379       0.10537330
C       -0.55887859      -0.12983502      -0.52374314
C        0.37786635       1.69026079      -0.10381882
N        1.38202509       1.05337820       0.57425794
C        1.65699811      -0.29044663       0.28232348
O        2.63137372      -0.87632509       0.63839545
O        0.70609521      -0.81535695      -0.51079221
H       -1.33773892      -1.20783962       1.16183602
H       -1.57742603      -2.03497507      -0.39364219
H       -2.57327664      -0.64071733       0.01948503
H       -0.80649770       0.01787028      -1.57734790
H       -0.88207447       1.03289914       0.23862471
H        0.58444227       1.77787862      -1.17538480
H        1.96881051       1.48927248       1.26443311
14
Frame=14 idx=008266 GeodesicLength=0.691626743989824 rxn_smarts="[C:1]([C@@:2]1([H:11])[C:3]([H:12])([H:13])[N:4]([H:14])[C:5](=[O:6])[O:7]1)([H:8])([H:9])[H:10]>>[C:1]([C:2]([O:7][C:5]([N+:4](=[C-:3][H:13])[H:14])=[O:6])([H:11])[H:12])([H:8])([H:9])[H:10]"
C       -1.57426669      -1.06984823       0.10019800
C       -0.55980490      -0.12656132      -0.51687340
C        0.37853945       1.68649232      -0.10518316
N        1.37904170       1.05241109       0.58040782
C        1.65331316      -0.29281370       0.29013070
O        2.63173555      -0.87358454       0.64445712
O        0.70500019      -0.81874994      -0.50313592
H       -1.34528695      -1.21695632       1.15701598
H       -1.57741005      -2.03546176      -0.40496402
H       -2.57594154      -0.64508442       0.01179636
H       -0.80275463       0.01847433      -1.57230082
H       -0.89749595       1.03985102       0.25965428
H        0.58923014       1.77944927      -1.17550442
H        1.99610054       1.50238220       1.23430148
14
Frame=15 idx=008266 GeodesicLength=0.7398420713555993 rxn_smarts="[C:1]([C@@:2]1([H:11])[C:3]([H:12])([H:13])[N:4]([H:14])[C:5](=[O:6])[O:7]1)([H:8])([H:9])[H:10]>>[C:1]([C:2]([O:7][C:5]([N+:4](=[C-:3][H:13])[H:14])=[O:6])([H:11])[H:12])([H:8])([H:9])[H:10]"
C       -1.57651739      -1.07344319       0.09515032
C       -0.56059385      -0.12328696      -0.51010757
C        0.37922136       1.68267823      -0.10654962
N        1.37623956       1.05163254       0.58656963
C        1.64986374      -0.29495529       0.29751578
O        2.63174359      -0.87097888       0.65097464
O        0.70406778      -0.82204615      -0.49570250
H       -1.35236641      -1.22577938       1.15224652
H       -1.57716375      -2.03577335      -0.41601211
H       -2.57827980      -0.64920458       0.00434741
H       -0.79897510       0.01906487      -1.56730329
H       -0.91276960       1.04679839       0.28082695
H        0.59402044       1.78119487      -1.17556785
H        2.02150944       1.51409887       1.20361169
14
Frame=16 idx=008266 GeodesicLength=0.7879591516634501 rxn_smarts="[C:1]([C@@:2]1([H:11])[C:3]([H:12])([H:13])[N:4]([H:14])[C:5](=[O:6])[O:7]1)([H:8])([H:9])[H:10]>>[C:1]([C:2]([O:7][C:5]([N+:4](=[C-:3][H:13])[H:14])=[O:6])([H:11])[H:12])([H:8])([H:9])[H:10]"
C       -1.57839882      -1.07669377       0.09044832
C       -0.56119484      -0.12003098      -0.50356700
C        0.38010230       1.67883901      -0.10841805
N        1.37387032       1.05105532       0.59208732
C        1.64679160      -0.29692718       0.30412918
O        2.63190462      -0.86830322       0.65711250
O        0.70331260      -0.82534879      -0.48866989
H       -1.35874943      -1.23394731       1.14775167
H       -1.57675407      -2.03585965      -0.42638516
H       -2.58021475      -0.65287971      -0.00256204
H       -0.79525814       0.01946319      -1.56246824
H       -0.92772259       1.05389855       0.30184048
H        0.59888476       1.78295598      -1.17610870
H        2.04342641       1.52377857       1.17480962
