16
Frame=0 idx=006969 GeodesicLength=0.0 rxn_smarts="[C:1]([C:2]([C@@:3]([O:4][H:14])([C:5]([C:6]#[N:7])([H:15])[H:16])[H:13])([H:11])[H:12])([H:8])([H:9])[H:10]>>[C:1]([C:2]([C:3][H:13])([H:11])[H:12])([H:8])([H:9])[H:10].[O:4]([C:5]([C:6]#[N:7])([H:15])[H:16])[H:14]"
C        2.23791569      -0.34133449      -0.01460906
C        1.01889390       0.23447608       0.71773047
C       -0.12197926       0.66687254      -0.14851054
O       -0.62041477      -0.58549719      -0.99269414
C       -1.93649418      -0.28118283       0.03318758
C       -2.69994631       0.89748189      -0.27838032
N       -3.37411331       1.78599796      -0.55753352
H        2.65487805       0.39234870      -0.70649921
H        3.01950616      -0.63118753       0.68980671
H        1.99520942      -1.23451415      -0.59934779
H        1.32182078       1.12681589       1.27390758
H        0.67932063      -0.48120622       1.48030154
H        0.18870382       1.37327794      -0.92161358
H       -0.13766885      -1.38657176      -0.74058738
H       -1.74491739      -0.36557680       1.09632720
H       -2.48071437      -1.17019999      -0.33148555
16
Frame=1 idx=006969 GeodesicLength=0.07558836337942323 rxn_smarts="[C:1]([C:2]([C@@:3]([O:4][H:14])([C:5]([C:6]#[N:7])([H:15])[H:16])[H:13])([H:11])[H:12])([H:8])([H:9])[H:10]>>[C:1]([C:2]([C:3][H:13])([H:11])[H:12])([H:8])([H:9])[H:10].[O:4]([C:5]([C:6]#[N:7])([H:15])[H:16])[H:14]"
C        2.24385083      -0.33153090       0.00047153
C        1.01302455       0.24961648       0.70700782
C       -0.12349706       0.64913890      -0.17899215
O       -0.61588245      -0.63200318      -0.99775459
C       -1.94137761      -0.29014991       0.00731382
C       -2.69555768       0.91540334      -0.22115327
N       -3.33105706       1.84569345      -0.44928129
H        2.65394637       0.38341090      -0.71484362
H        3.02642155      -0.58516130       0.71762649
H        2.01537076      -1.24792135      -0.55304869
H        1.29714126       1.16408814       1.23801006
H        0.67730748      -0.44674836       1.48828172
H        0.19140848       1.33584225      -0.96862678
H       -0.12780392      -1.42564962      -0.73561056
H       -1.76941060      -0.44527330       1.06649934
H       -2.51388492      -1.13875554      -0.40589982
16
Frame=2 idx=006969 GeodesicLength=0.15190791825262118 rxn_smarts="[C:1]([C:2]([C@@:3]([O:4][H:14])([C:5]([C:6]#[N:7])([H:15])[H:16])[H:13])([H:11])[H:12])([H:8])([H:9])[H:10]>>[C:1]([C:2]([C:3][H:13])([H:11])[H:12])([H:8])([H:9])[H:10].[O:4]([C:5]([C:6]#[N:7])([H:15])[H:16])[H:14]"
C        2.24866686      -0.32149440       0.01671935
C        1.00581155       0.26624265       0.69473614
C       -0.12450000       0.63108467      -0.21236344
O       -0.61123369      -0.67993445      -1.00214429
C       -1.94588329      -0.29782474      -0.01971787
C       -2.68773656       0.93108056      -0.15915709
N       -3.28316756       1.89910559      -0.33025219
H        2.65376521       0.37216470      -0.72210919
H        3.03055559      -0.53790830       0.74666973
H        2.03445029      -1.26051295      -0.50335840
H        1.27103074       1.20266502       1.19802046
H        0.67219881      -0.40825211       1.49522679
H        0.19525367       1.29602414      -1.01906079
H       -0.11799562      -1.46567352      -0.72895294
H       -1.79646777      -0.52702018       1.03019094
H       -2.54474823      -1.09974669      -0.48444722
16
Frame=3 idx=006969 GeodesicLength=0.22906602114505742 rxn_smarts="[C:1]([C:2]([C@@:3]([O:4][H:14])([C:5]([C:6]#[N:7])([H:15])[H:16])[H:13])([H:11])[H:12])([H:8])([H:9])[H:10]>>[C:1]([C:2]([C:3][H:13])([H:11])[H:12])([H:8])([H:9])[H:10].[O:4]([C:5]([C:6]#[N:7])([H:15])[H:16])[H:14]"
C        2.25231824      -0.31126579       0.03403177
C        0.99737332       0.28422160       0.68080454
C       -0.12477638       0.61270200      -0.24848749
O       -0.60668031      -0.72905394      -1.00545704
C       -1.94987054      -0.30376661      -0.04748594
C       -2.67593655       0.94398175      -0.09307841
N       -3.23150612       1.94407751      -0.20077388
H        2.65445865       0.35860309      -0.72809528
H        3.03184877      -0.48969261       0.77663803
H        2.05212786      -1.27203598      -0.45046532
H        1.24383556       1.24214797       1.15381157
H        0.66397725      -0.36584196       1.50075285
H        0.20058987       1.25368661      -1.07260923
H       -0.10849018      -1.50643542      -0.72037575
H       -1.82691268      -0.60933091       0.98718887
H       -2.57235677      -1.05199730      -0.56639930
16
Frame=4 idx=006969 GeodesicLength=0.3072446018157871 rxn_smarts="[C:1]([C:2]([C@@:3]([O:4][H:14])([C:5]([C:6]#[N:7])([H:15])[H:16])[H:13])([H:11])[H:12])([H:8])([H:9])[H:10]>>[C:1]([C:2]([C:3][H:13])([H:11])[H:12])([H:8])([H:9])[H:10].[O:4]([C:5]([C:6]#[N:7])([H:15])[H:16])[H:14]"
C        2.25480612      -0.30086472       0.05219109
C        0.98793031       0.30333398       0.66518480
C       -0.12417106       0.59396646      -0.28696005
O       -0.60250839      -0.77902201      -1.00719766
C       -1.95322541      -0.30766062      -0.07540933
C       -2.65983027       0.95357615      -0.02395223
N       -3.17727997       1.97866855      -0.06194222
H        2.65603913       0.34282956      -0.73272994
H        3.03041737      -0.44076492       0.80702998
H        2.06810319      -1.28221946      -0.39473938
H        1.21604163       1.28201833       1.10543761
H        0.65288194      -0.31984511       1.50452454
H        0.20766721       1.20875140      -1.12864754
H       -0.09957353      -1.54765476      -0.70965558
H       -1.86174017      -0.69057241       0.93756541
H       -2.59555810      -0.99454043      -0.65069951
16
Frame=5 idx=006969 GeodesicLength=0.38713997552515056 rxn_smarts="[C:1]([C:2]([C@@:3]([O:4][H:14])([C:5]([C:6]#[N:7])([H:15])[H:16])[H:13])([H:11])[H:12])([H:8])([H:9])[H:10]>>[C:1]([C:2]([C:3][H:13])([H:11])[H:12])([H:8])([H:9])[H:10].[O:4]([C:5]([C:6]#[N:7])([H:15])[H:16])[H:14]"
C        2.25596041      -0.28976096       0.07068287
C        0.97741377       0.32321928       0.64805086
C       -0.12314600       0.57457224      -0.32688271
O       -0.59927756      -0.82977190      -1.00664938
C       -1.95616318      -0.31004870      -0.10252085
C       -2.63991284       0.95858214       0.04783515
N       -3.11693664       2.00306696       0.08273981
H        2.65798332       0.32605285      -0.73599927
H        3.02637261      -0.39089685       0.83691917
H        2.08220544      -1.29014216      -0.33733127
H        1.18753158       1.32159621       1.05345128
H        0.63932331      -0.27115054       1.50629695
H        0.21577285       1.16115809      -1.18597721
H       -0.09156310      -1.58923338      -0.69648972
H       -1.90226925      -0.77002308       0.88176844
H       -2.61329474      -0.92722020      -0.73589412
16
Frame=6 idx=006969 GeodesicLength=0.468149138265906 rxn_smarts="[C:1]([C:2]([C@@:3]([O:4][H:14])([C:5]([C:6]#[N:7])([H:15])[H:16])[H:13])([H:11])[H:12])([H:8])([H:9])[H:10]>>[C:1]([C:2]([C:3][H:13])([H:11])[H:12])([H:8])([H:9])[H:10].[O:4]([C:5]([C:6]#[N:7])([H:15])[H:16])[H:14]"
C        2.25617421      -0.27865659       0.08928365
C        0.96670071       0.34359227       0.62950254
C       -0.12103267       0.55492147      -0.36759790
O       -0.59702774      -0.88022272      -1.00357699
C       -1.95830748      -0.31004691      -0.12848817
C       -2.61598953       0.95974690       0.11972082
N       -3.05794186       2.01394237       0.23250920
H        2.66063449       0.30736208      -0.73820540
H        3.02038148      -0.34105432       0.86577219
H        2.09418399      -1.29640561      -0.27833069
H        1.15985622       1.36028632       0.99808411
H        0.62415718      -0.22004070       1.50599625
H        0.22586206       1.11128229      -1.24366734
H       -0.08478132      -1.63041381      -0.68097490
H       -1.94910214      -0.84469327       0.82001240
H       -2.62376759      -0.84959977      -0.82003977
16
Frame=7 idx=006969 GeodesicLength=0.5502480815695371 rxn_smarts="[C:1]([C:2]([C@@:3]([O:4][H:14])([C:5]([C:6]#[N:7])([H:15])[H:16])[H:13])([H:11])[H:12])([H:8])([H:9])[H:10]>>[C:1]([C:2]([C:3][H:13])([H:11])[H:12])([H:8])([H:9])[H:10].[O:4]([C:5]([C:6]#[N:7])([H:15])[H:16])[H:14]"
C        2.25557030      -0.26748855       0.10754763
C        0.95612348       0.36409151       0.60985655
C       -0.11802353       0.53503206      -0.40808556
O       -0.59608269      -0.92982783      -0.99768336
C       -1.95975796      -0.30798150      -0.15275744
C       -2.58896970       0.95679283       0.19059350
N       -3.00063525       2.01137227       0.38413365
H        2.66367697       0.28725214      -0.73957486
H        3.01297935      -0.29144227       0.89276080
H        2.10399362      -1.30074372      -0.21859223
H        1.13351431       1.39747196       0.94009821
H        0.60819481      -0.16733128       1.50367394
H        0.23754822       1.05950804      -1.30037266
H       -0.07950844      -1.67081606      -0.66321391
H       -2.00278518      -0.91321222       0.75263417
H       -2.62583830      -0.76267739      -0.90101842
16
Frame=8 idx=006969 GeodesicLength=0.6331141706231731 rxn_smarts="[C:1]([C:2]([C@@:3]([O:4][H:14])([C:5]([C:6]#[N:7])([H:15])[H:16])[H:13])([H:11])[H:12])([H:8])([H:9])[H:10]>>[C:1]([C:2]([C:3][H:13])([H:11])[H:12])([H:8])([H:9])[H:10].[O:4]([C:5]([C:6]#[N:7])([H:15])[H:16])[H:14]"
C        2.25439042      -0.25637965       0.12510483
C        0.94613946       0.38443314       0.58944458
C       -0.11419591       0.51505996      -0.44742344
O       -0.59660949      -0.97797789      -0.98883639
C       -1.96058460      -0.30403894      -0.17502739
C       -2.55982210       0.94983965       0.25955376
N       -2.94684718       1.99546037       0.53478907
H        2.66691589       0.26584149      -0.74044384
H        3.00484201      -0.24241665       0.91718639
H        2.11167961      -1.30317496      -0.15875372
H        1.10918328       1.43269221       0.88021608
H        0.59231030      -0.11363058       1.49952434
H        0.25056743       1.00632548      -1.35493115
H       -0.07598483      -1.71005395      -0.64334748
H       -2.06331950      -0.97412858       0.67972978
H       -2.61866479      -0.66785108      -0.97678543
16
Frame=9 idx=006969 GeodesicLength=0.7167150703916388 rxn_smarts="[C:1]([C:2]([C@@:3]([O:4][H:14])([C:5]([C:6]#[N:7])([H:15])[H:16])[H:13])([H:11])[H:12])([H:8])([H:9])[H:10]>>[C:1]([C:2]([C:3][H:13])([H:11])[H:12])([H:8])([H:9])[H:10].[O:4]([C:5]([C:6]#[N:7])([H:15])[H:16])[H:14]"
C        2.25258850      -0.24495396       0.14167881
C        0.93662365       0.40440848       0.56868374
C       -0.11016063       0.49495675      -0.48479692
O       -0.59881499      -1.02452738      -0.97703242
C       -1.96121570      -0.29908276      -0.19527290
C       -2.53023812       0.93825040       0.32612160
N       -2.89266561       1.96810376       0.68179917
H        2.66983430       0.24411568      -0.74089716
H        2.99623043      -0.19378635       0.93861687
H        2.11742037      -1.30323779      -0.09966573
H        1.08652364       1.46565775       0.81935790
H        0.57688384      -0.05967531       1.49381210
H        0.26397880       0.95217946      -1.40632107
H       -0.07435640      -1.74805008      -0.62149112
H       -2.13049248      -1.02680427       0.60108885
H       -2.60213959      -0.56755439      -1.04568171
16
Frame=10 idx=006969 GeodesicLength=0.7997297175959901 rxn_smarts="[C:1]([C:2]([C@@:3]([O:4][H:14])([C:5]([C:6]#[N:7])([H:15])[H:16])[H:13])([H:11])[H:12])([H:8])([H:9])[H:10]>>[C:1]([C:2]([C:3][H:13])([H:11])[H:12])([H:8])([H:9])[H:10].[O:4]([C:5]([C:6]#[N:7])([H:15])[H:16])[H:14]"
C        2.25094704      -0.23429479       0.15700112
C        0.92886499       0.42389103       0.54770761
C       -0.10508788       0.47538394      -0.51972778
O       -0.60249114      -1.06841105      -0.96242302
C       -1.96121222      -0.29205691      -0.21351525
C       -2.50026817       0.92376370       0.38967647
N       -2.84945814       1.92771100       0.82374156
H        2.67296471       0.22040567      -0.74162497
H        2.98843344      -0.14684253       0.95647897
H        2.12130654      -1.30207411      -0.04120213
H        1.06758629       1.49617509       0.75772831
H        0.56327441      -0.00537134       1.48679339
H        0.27857487       0.89777384      -1.45404030
H       -0.07484932      -1.78419968      -0.59794708
H       -2.20221196      -1.06846919       0.51706960
H       -2.57637345      -0.46338468      -1.10571651
16
Frame=11 idx=006969 GeodesicLength=0.8823715343218463 rxn_smarts="[C:1]([C:2]([C@@:3]([O:4][H:14])([C:5]([C:6]#[N:7])([H:15])[H:16])[H:13])([H:11])[H:12])([H:8])([H:9])[H:10]>>[C:1]([C:2]([C:3][H:13])([H:11])[H:12])([H:8])([H:9])[H:10].[O:4]([C:5]([C:6]#[N:7])([H:15])[H:16])[H:14]"
C        2.24899453      -0.22359656       0.17124360
C        0.92193313       0.44287116       0.52688898
C       -0.10001989       0.45611219      -0.55196748
O       -0.60781054      -1.11000460      -0.94547096
C       -1.96130329      -0.28432889      -0.23036652
C       -2.47211554       0.90508000       0.44987802
N       -2.80693843       1.87768321       0.95962487
H        2.67555795       0.19624194      -0.74216507
H        2.98097793      -0.10074635       0.97110500
H        2.12350105      -1.29887311       0.01620492
H        1.05078289       1.52429987       0.69615777
H        0.55086969       0.04872002       1.47868837
H        0.29302208       0.84343345      -1.49769496
H       -0.07734464      -1.81874571      -0.57319665
H       -2.27714189      -1.09936612       0.42751878
H       -2.54296505      -0.35878048      -1.15644868
16
Frame=12 idx=006969 GeodesicLength=0.9634730751835605 rxn_smarts="[C:1]([C:2]([C@@:3]([O:4][H:14])([C:5]([C:6]#[N:7])([H:15])[H:16])[H:13])([H:11])[H:12])([H:8])([H:9])[H:10]>>[C:1]([C:2]([C:3][H:13])([H:11])[H:12])([H:8])([H:9])[H:10].[O:4]([C:5]([C:6]#[N:7])([H:15])[H:16])[H:14]"
C        2.24774410      -0.21409064       0.18395458
C        0.91739203       0.46119364       0.50627030
C       -0.09394602       0.43781076      -0.58116534
O       -0.61457535      -1.14837368      -0.92608707
C       -1.96085352      -0.27443708      -0.24546982
C       -2.44515803       0.88415701       0.50734010
N       -2.77964175       1.81664259       1.08725027
H        2.67831836       0.16977677      -0.74337204
H        2.97545538      -0.05707328       0.98171798
H        2.12431910      -1.29487379       0.07242981
H        1.03845131       1.54985503       0.63474125
H        0.54137643       0.10269967       1.46971192
H        0.30812065       0.78974517      -1.53708711
H       -0.08198624      -1.85122048      -0.54742830
H       -2.35204964      -1.11723769       0.33393610
H       -2.50296682      -0.25457399      -1.19674262
16
Frame=13 idx=006969 GeodesicLength=1.0436070042636068 rxn_smarts="[C:1]([C:2]([C@@:3]([O:4][H:14])([C:5]([C:6]#[N:7])([H:15])[H:16])[H:13])([H:11])[H:12])([H:8])([H:9])[H:10]>>[C:1]([C:2]([C:3][H:13])([H:11])[H:12])([H:8])([H:9])[H:10].[O:4]([C:5]([C:6]#[N:7])([H:15])[H:16])[H:14]"
C        2.24619893      -0.20461896       0.19588927
C        0.91350908       0.47910586       0.48600826
C       -0.08812417       0.42000943      -0.60781033
O       -0.62294160      -1.18440611      -0.90504238
C       -1.96076879      -0.26397142      -0.26010755
C       -2.42181171       0.85940098       0.56095860
N       -2.75137258       1.74801383       1.20864866
H        2.68037539       0.14276743      -0.74413774
H        2.97041682      -0.01432298       0.98956016
H        2.12364074      -1.28899682       0.12783894
H        1.02792213       1.57325497       0.57380292
H        0.53298809       0.15647603       1.45987129
H        0.32264207       0.73656186      -1.57260441
H       -0.08845415      -1.88215605      -0.52130067
H       -2.42552466      -1.12347995       0.23640846
H       -2.45869560      -0.15363811      -1.22798348
16
Frame=14 idx=006969 GeodesicLength=1.1220493376137795 rxn_smarts="[C:1]([C:2]([C@@:3]([O:4][H:14])([C:5]([C:6]#[N:7])([H:15])[H:16])[H:13])([H:11])[H:12])([H:8])([H:9])[H:10]>>[C:1]([C:2]([C:3][H:13])([H:11])[H:12])([H:8])([H:9])[H:10].[O:4]([C:5]([C:6]#[N:7])([H:15])[H:16])[H:14]"
C        2.24568888      -0.19649063       0.20614164
C        0.91222183       0.49626263       0.46618942
C       -0.08147151       0.40336249      -0.63128861
O       -0.63276906      -1.21718036      -0.88176125
C       -1.96018985      -0.25124204      -0.27308330
C       -2.40087494       0.83276202       0.61246029
N       -2.74013305       1.67094922       1.31947396
H        2.68248950       0.11359176      -0.74571504
H        2.96796049       0.02558721       0.99328656
H        2.12217146      -1.28249955       0.18152080
H        1.02185094       1.59412371       0.51366477
H        0.52809591       0.20972623       1.44944793
H        0.33714348       0.68452158      -1.60389974
H       -0.09679024      -1.91114083      -0.49482511
H       -2.49439488      -1.11691010       0.13769934
H       -2.41099896      -0.05542334      -1.24931166
16
Frame=15 idx=006969 GeodesicLength=1.1992232406974348 rxn_smarts="[C:1]([C:2]([C@@:3]([O:4][H:14])([C:5]([C:6]#[N:7])([H:15])[H:16])[H:13])([H:11])[H:12])([H:8])([H:9])[H:10]>>[C:1]([C:2]([C:3][H:13])([H:11])[H:12])([H:8])([H:9])[H:10].[O:4]([C:5]([C:6]#[N:7])([H:15])[H:16])[H:14]"
C        2.24534282      -0.18884757       0.21551406
C        0.91206812       0.51295093       0.44680684
C       -0.07486746       0.38747600      -0.65228477
O       -0.64416024      -1.24747076      -0.85691815
C       -1.95974816      -0.23732462      -0.28554540
C       -2.38422187       0.80334651       0.66049503
N       -2.73283784       1.58777312       1.42259395
H        2.68407872       0.08341334      -0.74703869
H        2.96670657       0.06385775       0.99419571
H        2.11969117      -1.27462211       0.23413250
H        1.01807540       1.61290954       0.45428859
H        0.52499101       0.26264512       1.43833959
H        0.35093379       0.63332415      -1.63160197
H       -0.10670174      -1.93865628      -0.46861529
H       -2.55778816      -1.09943099       0.03826478
H       -2.36156214       0.03865587      -1.26262678
16
Frame=16 idx=006969 GeodesicLength=1.2755510875585734 rxn_smarts="[C:1]([C:2]([C@@:3]([O:4][H:14])([C:5]([C:6]#[N:7])([H:15])[H:16])[H:13])([H:11])[H:12])([H:8])([H:9])[H:10]>>[C:1]([C:2]([C:3][H:13])([H:11])[H:12])([H:8])([H:9])[H:10].[O:4]([C:5]([C:6]#[N:7])([H:15])[H:16])[H:14]"
C        2.24622405      -0.18250855       0.22307277
C        0.91447085       0.52883115       0.42805211
C       -0.06773068       0.37282934      -0.67011570
O       -0.65694991      -1.27468459      -0.82987384
C       -1.95878512      -0.22124914      -0.29615608
C       -2.37126952       0.77234432       0.70657629
N       -2.74238683       1.49915904       1.51374650
H        2.68550012       0.05148732      -0.74931972
H        2.96840339       0.09910736       0.99098701
H        2.11706889      -1.26617949       0.28449713
H        1.01831885       1.62930130       0.39624896
H        0.52571389       0.31462592       1.42693471
H        0.36393994       0.58365977      -1.65531074
H       -0.11801234      -1.96448753      -0.44269327
H       -2.61372976      -1.07147270      -0.05924755
H       -2.31077581       0.12923648      -1.26739857
