10
Frame=0 idx=002491 GeodesicLength=0.0 rxn_smarts="[O:1]([c:2]1[c:3]([H:8])[n:4]([H:9])[c:5]([H:10])[n:6]1)[H:7]>>[O:1]([C-:2](/[C:3](=[N:4]/[H:9])[H:8])[N+:6]#[C:5][H:10])[H:7]"
O        2.05538764      -0.41611788       0.05177563
C        0.75891298      -0.02563256      -0.01488713
C       -0.28392688      -1.02525235       0.12757709
N       -1.49077949      -0.62044852       0.13655547
C       -0.71425414       1.73489033      -0.52582759
N        0.36116373       1.16448707      -0.22490108
H        2.61888181       0.32394443      -0.18704693
H        0.03007475      -2.06793449       0.18974476
H       -2.15532669      -1.38701182       0.16796142
H       -1.18013370       2.31907577       0.27904835
10
Frame=1 idx=002491 GeodesicLength=0.05288232873800465 rxn_smarts="[O:1]([c:2]1[c:3]([H:8])[n:4]([H:9])[c:5]([H:10])[n:6]1)[H:7]>>[O:1]([C-:2](/[C:3](=[N:4]/[H:9])[H:8])[N+:6]#[C:5][H:10])[H:7]"
O        2.06082713      -0.41889524       0.03698972
C        0.76389086      -0.02603434       0.00829692
C       -0.27751002      -1.02459071       0.14807399
N       -1.48386812      -0.60913917       0.11929793
C       -0.72661991       1.70727196      -0.51575522
N        0.36413928       1.16399690      -0.21398321
H        2.61908444       0.32578794      -0.19990945
H        0.02827891      -2.07019159       0.18951675
H       -2.15911354      -1.36548455       0.15662092
H       -1.18910903       2.31727879       0.27085165
10
Frame=2 idx=002491 GeodesicLength=0.10577778477616501 rxn_smarts="[O:1]([c:2]1[c:3]([H:8])[n:4]([H:9])[c:5]([H:10])[n:6]1)[H:7]>>[O:1]([C-:2](/[C:3](=[N:4]/[H:9])[H:8])[N+:6]#[C:5][H:10])[H:7]"
O        2.06540549      -0.42101563       0.02428760
C        0.76865159      -0.02702151       0.02753645
C       -0.27147726      -1.02455978       0.16348203
N       -1.47639744      -0.59837397       0.10291835
C       -0.73814771       1.68097253      -0.50492173
N        0.36684978       1.16341364      -0.20393674
H        2.61892400       0.32768296      -0.21121806
H        0.02670476      -2.07228546       0.19140792
H       -2.16268706      -1.34378577       0.14718563
H       -1.19782615       2.31497298       0.26325855
10
Frame=3 idx=002491 GeodesicLength=0.15867166373309222 rxn_smarts="[O:1]([c:2]1[c:3]([H:8])[n:4]([H:9])[c:5]([H:10])[n:6]1)[H:7]>>[O:1]([C-:2](/[C:3](=[N:4]/[H:9])[H:8])[N+:6]#[C:5][H:10])[H:7]"
O        2.06949582      -0.42256190       0.01364592
C        0.77326449      -0.02839709       0.04434572
C       -0.26569958      -1.02494911       0.17543479
N       -1.46858000      -0.58811701       0.08666118
C       -0.74865824       1.65591850      -0.49343644
N        0.36941004       1.16292680      -0.19364897
H        2.61837449       0.32931675      -0.22273979
H        0.02530059      -2.07437452       0.19501956
H       -2.16609533      -1.32196242       0.13890805
H       -1.20681228       2.31220000       0.25580998
10
Frame=4 idx=002491 GeodesicLength=0.2115516051173663 rxn_smarts="[O:1]([c:2]1[c:3]([H:8])[n:4]([H:9])[c:5]([H:10])[n:6]1)[H:7]>>[O:1]([C-:2](/[C:3](=[N:4]/[H:9])[H:8])[N+:6]#[C:5][H:10])[H:7]"
O        2.07326661      -0.42362993       0.00477228
C        0.77772390      -0.03009328       0.05924698
C       -0.26012068      -1.02563728       0.18504163
N       -1.46051622      -0.57832865       0.07055328
C       -0.75830093       1.63195914      -0.48140717
N        0.37183007       1.16250862      -0.18321381
H        2.61742151       0.33076354      -0.23466234
H        0.02398986      -2.07652076       0.19991201
H       -2.16932571      -1.30005553       0.13128786
H       -1.21596841       2.30903414       0.24846928
10
Frame=5 idx=002491 GeodesicLength=0.2644170825496523 rxn_smarts="[O:1]([c:2]1[c:3]([H:8])[n:4]([H:9])[c:5]([H:10])[n:6]1)[H:7]>>[O:1]([C-:2](/[C:3](=[N:4]/[H:9])[H:8])[N+:6]#[C:5][H:10])[H:7]"
O        2.07686640      -0.42428626      -0.00235922
C        0.78206256      -0.03205609       0.07297002
C       -0.25467549      -1.02663602       0.19262943
N       -1.45222882      -0.56900974       0.05424782
C       -0.76697959       1.60893849      -0.46915947
N        0.37414947       1.16218602      -0.17215937
H        2.61606630       0.33207910      -0.24688899
H        0.02273504      -2.07884028       0.20465278
H       -2.17245501      -1.27782797       0.12542608
H       -1.22554086       2.30545274       0.24064092
10
Frame=6 idx=002491 GeodesicLength=0.3172603486144505 rxn_smarts="[O:1]([c:2]1[c:3]([H:8])[n:4]([H:9])[c:5]([H:10])[n:6]1)[H:7]>>[O:1]([C-:2](/[C:3](=[N:4]/[H:9])[H:8])[N+:6]#[C:5][H:10])[H:7]"
O        2.08033423      -0.42465319      -0.00845088
C        0.78627025      -0.03428214       0.08548555
C       -0.24935520      -1.02788080       0.19875221
N       -1.44378375      -0.56013739       0.03792907
C       -0.77493398       1.58676792      -0.45664408
N        0.37634368       1.16188702      -0.16087412
H        2.61437014       0.33342665      -0.25908561
H        0.02149092      -2.08130458       0.20974112
H       -2.17544781      -1.25533160       0.12052879
H       -1.23528848       2.30150811       0.23261795
10
Frame=7 idx=002491 GeodesicLength=0.37007103871431046 rxn_smarts="[O:1]([c:2]1[c:3]([H:8])[n:4]([H:9])[c:5]([H:10])[n:6]1)[H:7]>>[O:1]([C-:2](/[C:3](=[N:4]/[H:9])[H:8])[N+:6]#[C:5][H:10])[H:7]"
O        2.08367813      -0.42482977      -0.01400199
C        0.79031658      -0.03681006       0.09666512
C       -0.24412717      -1.02943692       0.20345047
N       -1.43530659      -0.55159828       0.02260272
C       -0.78240052       1.56521630      -0.44413984
N        0.37834911       1.16145659      -0.14999325
H        2.61257275       0.33518010      -0.26979799
H        0.02019960      -2.08401403       0.21388556
H       -2.17833225      -1.23252271       0.11725214
H       -1.24494964       2.29735877       0.22407704
10
Frame=8 idx=002491 GeodesicLength=0.42284374714505535 rxn_smarts="[O:1]([c:2]1[c:3]([H:8])[n:4]([H:9])[c:5]([H:10])[n:6]1)[H:7]>>[O:1]([C-:2](/[C:3](=[N:4]/[H:9])[H:8])[N+:6]#[C:5][H:10])[H:7]"
O        2.08688673      -0.42490382      -0.01953123
C        0.79416567      -0.03965824       0.10621591
C       -0.23898699      -1.03133851       0.20675974
N       -1.42699160      -0.54327777       0.00913924
C       -0.78965796       1.54412873      -0.43178122
N        0.38012608       1.16076578      -0.14033569
H        2.61099096       0.33766435      -0.27771181
H        0.01880316      -2.08703589       0.21640342
H       -2.18112655      -1.20950777       0.11587711
H       -1.25420950       2.29316315       0.21496454
10
Frame=9 idx=002491 GeodesicLength=0.4755785489620127 rxn_smarts="[O:1]([c:2]1[c:3]([H:8])[n:4]([H:9])[c:5]([H:10])[n:6]1)[H:7]>>[O:1]([C-:2](/[C:3](=[N:4]/[H:9])[H:8])[N+:6]#[C:5][H:10])[H:7]"
O        2.08995758      -0.42486786      -0.02490300
C        0.79786200      -0.04268142       0.11488904
C       -0.23391543      -1.03338511       0.20965153
N       -1.41890355      -0.53495364      -0.00172023
C       -0.79662662       1.52356051      -0.41922018
N        0.38171719       1.15995594      -0.13116527
H        2.60931950       0.34035915      -0.28493646
H        0.01732869      -2.09016199       0.21845147
H       -2.18362015      -1.18700147       0.11366977
H       -1.26311922       2.28917590       0.20528332
10
Frame=10 idx=002491 GeodesicLength=0.5282771057568787 rxn_smarts="[O:1]([c:2]1[c:3]([H:8])[n:4]([H:9])[c:5]([H:10])[n:6]1)[H:7]>>[O:1]([C-:2](/[C:3](=[N:4]/[H:9])[H:8])[N+:6]#[C:5][H:10])[H:7]"
O        2.09291029      -0.42471883      -0.03006005
C        0.80143236      -0.04582925       0.12288545
C       -0.22893415      -1.03551333       0.21215851
N       -1.41096819      -0.52676548      -0.01142007
C       -0.80322111       1.50362939      -0.40630427
N        0.38320513       1.15912800      -0.12212229
H        2.60747695       0.34310323      -0.29211858
H        0.01577737      -2.09331939       0.22084149
H       -2.18583052      -1.16491178       0.11078808
H       -1.27184813       2.28519745       0.19535173
10
Frame=11 idx=002491 GeodesicLength=0.5809534437406213 rxn_smarts="[O:1]([c:2]1[c:3]([H:8])[n:4]([H:9])[c:5]([H:10])[n:6]1)[H:7]>>[O:1]([C-:2](/[C:3](=[N:4]/[H:9])[H:8])[N+:6]#[C:5][H:10])[H:7]"
O        2.09575727      -0.42447381      -0.03506119
C        0.80493923      -0.04905149       0.13062601
C       -0.22404429      -1.03761415       0.21464950
N       -1.40305494      -0.51876270      -0.02090232
C       -0.80927020       1.48442922      -0.39284704
N        0.38465430       1.15840422      -0.11240668
H        2.60522821       0.34564251      -0.30046727
H        0.01415575      -2.09639321       0.22460640
H       -2.18772722      -1.14323887       0.10645521
H       -1.28063812       2.28105829       0.18534738
10
Frame=12 idx=002491 GeodesicLength=0.6335917258587147 rxn_smarts="[O:1]([c:2]1[c:3]([H:8])[n:4]([H:9])[c:5]([H:10])[n:6]1)[H:7]>>[O:1]([C-:2](/[C:3](=[N:4]/[H:9])[H:8])[N+:6]#[C:5][H:10])[H:7]"
O        2.09847957      -0.42418492      -0.04016082
C        0.80827027      -0.05245144       0.13735568
C       -0.21920789      -1.03994221       0.21642013
N       -1.39562594      -0.51061221      -0.02722459
C       -0.81524006       1.46556995      -0.37942502
N        0.38593691       1.15746863      -0.10381171
H        2.60327359       0.34872819      -0.30651112
H        0.01242153      -2.09967855       0.22622886
H       -2.18946941      -1.12225179       0.10292827
H       -1.28883856       2.27735435       0.17420030
10
Frame=13 idx=002491 GeodesicLength=0.6861922720768411 rxn_smarts="[O:1]([c:2]1[c:3]([H:8])[n:4]([H:9])[c:5]([H:10])[n:6]1)[H:7]>>[O:1]([C-:2](/[C:3](=[N:4]/[H:9])[H:8])[N+:6]#[C:5][H:10])[H:7]"
O        2.10108322      -0.42386169      -0.04542592
C        0.81148416      -0.05598262       0.14343114
C       -0.21443960      -1.04239152       0.21773224
N       -1.38852322      -0.50244364      -0.03178797
C       -0.82093954       1.44720884      -0.36576796
N        0.38713020       1.15646871      -0.09550814
H        2.60140396       0.35208674      -0.31153152
H        0.01058634      -2.10305427       0.22709913
H       -2.19104209      -1.10185233       0.09952071
H       -1.29674344       2.27382177       0.16223829
10
Frame=14 idx=002491 GeodesicLength=0.7387690561887477 rxn_smarts="[O:1]([c:2]1[c:3]([H:8])[n:4]([H:9])[c:5]([H:10])[n:6]1)[H:7]>>[O:1]([C-:2](/[C:3](=[N:4]/[H:9])[H:8])[N+:6]#[C:5][H:10])[H:7]"
O        2.10355970      -0.42351792      -0.05096318
C        0.81459643      -0.05963436       0.14891254
C       -0.20974091      -1.04493375       0.21863411
N       -1.38170850      -0.49430556      -0.03506292
C       -0.82636674       1.42937143      -0.35176011
N        0.38825981       1.15543081      -0.08735256
H        2.59960189       0.35567729      -0.31572771
H        0.00865782      -2.10648711       0.22761570
H       -2.19246098      -1.08199304       0.09613948
H       -1.30439852       2.27039221       0.14956465
10
Frame=15 idx=002491 GeodesicLength=0.7913261541533028 rxn_smarts="[O:1]([c:2]1[c:3]([H:8])[n:4]([H:9])[c:5]([H:10])[n:6]1)[H:7]>>[O:1]([C-:2](/[C:3](=[N:4]/[H:9])[H:8])[N+:6]#[C:5][H:10])[H:7]"
O        2.10592895      -0.42312466      -0.05665740
C        0.81763295      -0.06339226       0.15403613
C       -0.20510299      -1.04755461       0.21921626
N       -1.37512884      -0.48620387      -0.03727880
C       -0.83145464       1.41206452      -0.33731360
N        0.38934922       1.15440337      -0.07891625
H        2.59774369       0.35939366      -0.31964180
H        0.00664685      -2.10996200       0.22790867
H       -2.19372539      -1.06265039       0.09259608
H       -1.31188980       2.26702623       0.13605071
10
Frame=16 idx=002491 GeodesicLength=0.8438717533826201 rxn_smarts="[O:1]([c:2]1[c:3]([H:8])[n:4]([H:9])[c:5]([H:10])[n:6]1)[H:7]>>[O:1]([C-:2](/[C:3](=[N:4]/[H:9])[H:8])[N+:6]#[C:5][H:10])[H:7]"
O        2.10819089      -0.42266678      -0.06250072
C        0.82062032      -0.06725579       0.15900562
C       -0.20052086      -1.05024010       0.21957059
N       -1.36871121      -0.47816822      -0.03879233
C       -0.83614069       1.39529956      -0.32230783
N        0.39042048       1.15342963      -0.06973303
H        2.59569100       0.36316262      -0.32378114
H        0.00456223      -2.11346172       0.22825748
H       -2.19482512      -1.04376468       0.08867441
H       -1.31928702       2.26366549       0.12160695
